### 
### Created by X-TOOL on Mon Sep 10 21:12:57 2018
### 

@<TRIPOS>MOLECULE
3ddq_ligand
   52    54     1     0     0
SMALL
GAST_HUCK


@<TRIPOS>ATOM
      1 OAP       -34.3270   17.8530   35.2940 O.3       1 RRC        -0.3927
      2 CAQ       -33.8910   16.6360   34.6780 C.3       1 RRC         0.0673
      3 CAR       -34.7150   16.3620   33.4250 C.3       1 RRC         0.0634
      4 CAK       -36.2080   16.2620   33.7610 C.3       1 RRC        -0.0304
      5 CAI       -37.0790   15.7250   32.6290 C.3       1 RRC        -0.0631
      6 NAS       -34.5710   17.5490   32.5920 N.pl3     1 RRC        -0.2923
      7 CAT       -34.1710   17.4670   31.3090 C.ar      1 RRC         0.1544
      8 NAU       -33.8630   16.2650   30.7640 N.ar      1 RRC        -0.2645
      9 CAV       -33.4630   16.2320   29.4730 C.ar      1 RRC         0.1424
     10 NAW       -33.1080   15.2070   28.7460 N.pl3     1 RRC        -0.2248
     11 CAZ       -33.2530   13.9370   29.4580 C.3       1 RRC         0.0648
     12 CAY       -34.5220   13.1660   29.0410 C.3       1 RRC        -0.0349
     13 CBA       -32.0520   13.2140   30.1060 C.3       1 RRC        -0.0349
     14 CAX       -32.8010   15.6150   27.5020 C.2       1 RRC         0.1048
     15 CAN       -33.3510   17.3690   28.7000 C.ar      1 RRC         0.0919
     16 NAO       -32.9300   16.9750   27.4770 N.2       1 RRC        -0.3043
     17 NAL       -34.0770   18.6010   30.5770 N.ar      1 RRC        -0.2560
     18 CAM       -33.6780   18.5840   29.2880 C.ar      1 RRC         0.1222
     19 NAJ       -33.5770   19.7200   28.5660 N.pl3     1 RRC        -0.2919
     20 CAD       -33.9320   21.0170   29.1270 C.3       1 RRC         0.0632
     21 CAE       -32.7830   21.7730   29.7180 C.ar      1 RRC        -0.0206
     22 CAG       -32.8560   22.1790   31.0530 C.ar      1 RRC        -0.0584
     23 CAH       -31.8030   22.8960   31.6230 C.ar      1 RRC        -0.0685
     24 CAF       -30.6940   23.2080   30.8370 C.ar      1 RRC        -0.0687
     25 CAC       -30.6350   22.8100   29.4990 C.ar      1 RRC        -0.0685
     26 CAB       -31.6830   22.0860   28.9350 C.ar      1 RRC        -0.0584
     27 H1        -35.2433   17.7753   35.5325 H         1 RRC         0.2095
     28 H2        -34.0170   15.8037   35.3861 H         1 RRC         0.0580
     29 H3        -32.8297   16.7264   34.4035 H         1 RRC         0.0580
     30 H4        -34.3649   15.4534   32.9133 H         1 RRC         0.0581
     31 H5        -36.5686   17.2673   34.0241 H         1 RRC         0.0286
     32 H6        -36.3208   15.5936   34.6273 H         1 RRC         0.0286
     33 H7        -38.1277   15.6886   32.9590 H         1 RRC         0.0231
     34 H8        -36.7447   14.7128   32.3577 H         1 RRC         0.0231
     35 H9        -36.9926   16.3865   31.7544 H         1 RRC         0.0231
     36 H10       -34.7804   18.4736   32.9947 H         1 RRC         0.1849
     37 H11       -33.6446   14.3522   30.3984 H         1 RRC         0.0642
     38 H12       -34.5802   12.2234   29.6050 H         1 RRC         0.0259
     39 H13       -34.4805   12.9468   27.9639 H         1 RRC         0.0259
     40 H14       -35.4103   13.7778   29.2568 H         1 RRC         0.0259
     41 H15       -32.3971   12.2843   30.5820 H         1 RRC         0.0259
     42 H16       -31.5966   13.8673   30.8648 H         1 RRC         0.0259
     43 H17       -31.3070   12.9753   29.3328 H         1 RRC         0.0259
     44 H18       -32.5045   14.9793   26.6690 H         1 RRC         0.1309
     45 H19       -33.2405   19.6687   27.5939 H         1 RRC         0.1883
     46 H20       -34.6804   20.8565   29.9170 H         1 RRC         0.0689
     47 H21       -34.3705   21.6297   28.3255 H         1 RRC         0.0689
     48 H22       -33.7306   21.9371   31.6460 H         1 RRC         0.0557
     49 H23       -31.8465   23.2057   32.6609 H         1 RRC         0.0599
     50 H24       -29.8699   23.7646   31.2683 H         1 RRC         0.0559
     51 H25       -29.7703   23.0656   28.8974 H         1 RRC         0.0599
     52 H26       -31.6388   21.7719   27.8984 H         1 RRC         0.0557
@<TRIPOS>BOND
     1    1    2 1  
     2    2    3 1  
     3    3    4 1  
     4    3    6 1  
     5    4    5 1  
     6    6    7 1  
     7    7    8 ar 
     8    7   17 ar 
     9    8    9 ar 
    10    9   10 1  
    11    9   15 ar 
    12   10   11 1  
    13   10   14 1  
    14   11   12 1  
    15   11   13 1  
    16   14   16 2  
    17   15   16 1  
    18   15   18 ar 
    19   17   18 ar 
    20   18   19 1  
    21   19   20 1  
    22   20   21 1  
    23   21   22 ar 
    24   21   26 ar 
    25   22   23 ar 
    26   23   24 ar 
    27   24   25 ar 
    28   25   26 ar 
    29    1   27 1  
    30    2   28 1  
    31    2   29 1  
    32    3   30 1  
    33    4   31 1  
    34    4   32 1  
    35    5   33 1  
    36    5   34 1  
    37    5   35 1  
    38    6   36 1  
    39   11   37 1  
    40   12   38 1  
    41   12   39 1  
    42   12   40 1  
    43   13   41 1  
    44   13   42 1  
    45   13   43 1  
    46   14   44 1  
    47   19   45 1  
    48   20   46 1  
    49   20   47 1  
    50   22   48 1  
    51   23   49 1  
    52   24   50 1  
    53   25   51 1  
    54   26   52 1  
@<TRIPOS>SUBSTRUCTURE
     1 RRC         1

