### 
### Created by X-TOOL on Mon Sep 10 21:12:57 2018
### 

@<TRIPOS>MOLECULE
3ddu_ligand
   48    51     1     0     0
SMALL
GAST_HUCK


@<TRIPOS>ATOM
      1 CL11       -4.8100   11.3780   34.5030 Cl        1 552        -0.0061
      2 C10        -5.4620   11.7490   32.9340 C.2       1 552         0.1357
      3 N09        -6.8010   11.5350   32.8030 N.2       1 552        -0.2832
      4 C12        -4.6870   12.1820   31.9420 C.3       1 552         0.1198
      5 N23        -5.2310   12.4510   30.7400 N.am      1 552        -0.2260
      6 C15        -4.2930   12.9190   29.7590 C.3       1 552         0.1375
      7 C16        -4.1970   11.8140   28.7490 C.2       1 552         0.2046
      8 N18        -3.7610   12.2160   27.5240 N.am      1 552        -0.2713
      9 C22        -3.6570   11.2790   26.4540 C.3       1 552         0.0340
     10 C21        -3.1790   12.1020   25.2780 C.3       1 552        -0.0307
     11 C20        -2.4810   13.2930   25.9120 C.3       1 552        -0.0307
     12 C19        -3.1980   13.5000   27.2200 C.3       1 552         0.0340
     13 O17        -4.4580   10.6690   29.0040 O.2       1 552        -0.3943
     14 C14        -2.9980   13.0930   30.5550 C.3       1 552        -0.0071
     15 C13        -3.2290   12.4590   31.9230 C.3       1 552        -0.0075
     16 C24        -6.5480   12.2600   30.4680 C.2       1 552         0.2238
     17 O25        -7.1140   12.4610   29.4170 O.2       1 552        -0.3927
     18 C08        -7.3280   11.7590   31.6470 C.3       1 552         0.2035
     19 O07        -8.6380   11.6270   31.2820 O.3       1 552        -0.3341
     20 C06        -9.5340   11.5230   32.3770 C.3       1 552         0.0842
     21 C05        -9.9390   12.8310   32.9290 C.ar      1 552        -0.0211
     22 C04        -9.9960   13.9520   32.1430 C.ar      1 552        -0.0598
     23 C03       -10.3840   15.1530   32.6860 C.ar      1 552        -0.0348
     24 C26       -10.2750   12.8990   34.2550 C.ar      1 552        -0.0598
     25 C27       -10.6720   14.0950   34.7990 C.ar      1 552        -0.0348
     26 C02       -10.7170   15.2160   34.0170 C.ar      1 552         0.1248
     27 F01       -11.1020   16.4030   34.5160 F         1 552        -0.1893
     28 H1         -4.4959   11.1327   31.6730 H         1 552         0.0834
     29 H2         -4.6032   13.8623   29.2857 H         1 552         0.0804
     30 H3         -4.6350   10.8240   26.2387 H         1 552         0.0522
     31 H4         -2.9308   10.4894   26.6973 H         1 552         0.0522
     32 H5         -4.0286   12.4311   24.6617 H         1 552         0.0285
     33 H6         -2.4779   11.5245   24.6576 H         1 552         0.0285
     34 H7         -2.5741   14.1834   25.2728 H         1 552         0.0285
     35 H8         -1.4167   13.0739   26.0828 H         1 552         0.0285
     36 H9         -2.4936   13.8122   28.0051 H         1 552         0.0522
     37 H10        -3.9890   14.2571   27.1149 H         1 552         0.0522
     38 H11        -2.7645   14.1619   30.6683 H         1 552         0.0315
     39 H12        -2.1670   12.5887   30.0401 H         1 552         0.0315
     40 H13        -2.6517   11.5284   32.0263 H         1 552         0.0324
     41 H14        -2.9514   13.1541   32.7291 H         1 552         0.0324
     42 H15        -7.1261   10.7094   31.3872 H         1 552         0.0962
     43 H16        -9.0446   10.9445   33.1744 H         1 552         0.0719
     44 H17       -10.4366   10.9922   32.0399 H         1 552         0.0719
     45 H18        -9.7349   13.8913   31.0927 H         1 552         0.0548
     46 H19       -10.4269   16.0433   32.0691 H         1 552         0.0587
     47 H20       -10.2275   12.0101   34.8736 H         1 552         0.0548
     48 H21       -10.9491   14.1508   35.8455 H         1 552         0.0587
@<TRIPOS>BOND
     1    1    2 1  
     2    2    3 2  
     3    2    4 1  
     4    3   18 1  
     5    4    5 1  
     6    4   15 1  
     7    5    6 1  
     8    5   16 am 
     9    6    7 1  
    10    6   14 1  
    11    7    8 am 
    12    7   13 2  
    13    8    9 1  
    14    8   12 1  
    15    9   10 1  
    16   10   11 1  
    17   11   12 1  
    18   14   15 1  
    19   16   17 2  
    20   16   18 1  
    21   18   19 1  
    22   19   20 1  
    23   20   21 1  
    24   21   22 ar 
    25   21   24 ar 
    26   22   23 ar 
    27   23   26 ar 
    28   24   25 ar 
    29   25   26 ar 
    30   26   27 1  
    31    4   28 1  
    32    6   29 1  
    33    9   30 1  
    34    9   31 1  
    35   10   32 1  
    36   10   33 1  
    37   11   34 1  
    38   11   35 1  
    39   12   36 1  
    40   12   37 1  
    41   14   38 1  
    42   14   39 1  
    43   15   40 1  
    44   15   41 1  
    45   18   42 1  
    46   20   43 1  
    47   20   44 1  
    48   22   45 1  
    49   23   46 1  
    50   24   47 1  
    51   25   48 1  
@<TRIPOS>SUBSTRUCTURE
     1 552         1

