### 
### Created by X-TOOL on Mon Sep 10 21:12:58 2018
### 

@<TRIPOS>MOLECULE
3deh_ligand
   18    19     1     0     0
SMALL
GAST_HUCK


@<TRIPOS>ATOM
      1 OAA       -51.0150   13.8180  -21.5490 O.2       1 RXA        -0.3492
      2 CAI       -49.7810   14.0000  -21.3480 C.2       1 RXA         0.2968
      3 NAH       -49.1320   13.5330  -20.2410 N.am      1 RXA        -0.1882
      4 CAK       -49.0880   14.7050  -22.3190 C.2       1 RXA         0.2486
      5 OAC       -49.7450   15.0930  -23.3120 O.2       1 RXA        -0.3357
      6 CAM       -47.7100   14.9390  -22.1690 C.ar      1 RXA         0.0671
      7 CAL       -47.0500   14.4550  -21.0250 C.ar      1 RXA         0.0742
      8 CAF       -45.6690   14.6930  -20.8630 C.ar      1 RXA        -0.0360
      9 CAJ       -47.7900   13.7460  -20.0420 C.2       1 RXA         0.2384
     10 OAB       -47.2120   13.3050  -18.9860 O.2       1 RXA        -0.3712
     11 CAG       -46.9860   15.6340  -23.1470 C.ar      1 RXA        -0.0371
     12 CAE       -45.6070   15.8740  -22.9950 C.ar      1 RXA        -0.0518
     13 CAD       -44.9440   15.4090  -21.8430 C.ar      1 RXA        -0.0518
     14 H1        -49.6491   13.0209  -19.5552 H         1 RXA         0.2262
     15 H2        -45.1597   14.3240  -19.9801 H         1 RXA         0.0683
     16 H3        -47.4955   15.9923  -24.0342 H         1 RXA         0.0684
     17 H4        -45.0594   16.4131  -23.7596 H         1 RXA         0.0664
     18 H5        -43.8852   15.5987  -21.7086 H         1 RXA         0.0666
@<TRIPOS>BOND
     1    1    2 2  
     2    2    3 am 
     3    2    4 1  
     4    3    9 am 
     5    4    5 2  
     6    4    6 1  
     7    6    7 ar 
     8    6   11 ar 
     9    7    8 ar 
    10    7    9 1  
    11    8   13 ar 
    12    9   10 2  
    13   11   12 ar 
    14   12   13 ar 
    15    3   14 1  
    16    8   15 1  
    17   11   16 1  
    18   12   17 1  
    19   13   18 1  
@<TRIPOS>SUBSTRUCTURE
     1 RXA         1

