### 
### Created by X-TOOL on Mon Sep 10 21:12:58 2018
### 

@<TRIPOS>MOLECULE
3dei_ligand
   41    43     1     0     0
SMALL
GAST_HUCK


@<TRIPOS>ATOM
      1 OAE       -51.4730   12.6460  -19.3440 O.2       1 RXB        -0.3714
      2 CAW       -50.3280   13.1540  -19.6610 C.2       1 RXB         0.2348
      3 NAP       -49.2350   13.0180  -18.8390 N.am      1 RXB        -0.1887
      4 CAV       -47.9970   13.5380  -19.1210 C.2       1 RXB         0.2933
      5 OAD       -47.0160   13.3870  -18.3430 O.2       1 RXB        -0.3498
      6 CAY       -50.1450   13.8720  -20.8510 C.ar      1 RXB         0.0612
      7 CAZ       -48.8680   14.4250  -21.1760 C.ar      1 RXB         0.0869
      8 CAX       -47.7780   14.2460  -20.2810 C.2       1 RXB         0.2382
      9 OAF       -46.5900   14.6840  -20.4330 O.2       1 RXB        -0.3464
     10 CAN       -51.2680   14.0090  -21.6710 C.ar      1 RXB        -0.0509
     11 CAJ       -51.1030   14.7230  -22.8340 C.ar      1 RXB        -0.0648
     12 CAM       -49.8550   15.2700  -23.1840 C.ar      1 RXB        -0.0300
     13 CAU       -48.7140   15.1430  -22.3820 C.ar      1 RXB         0.0931
     14 NAO       -47.5130   15.7020  -22.8000 N.am      1 RXB        -0.2235
     15 CAS       -46.4380   14.9050  -23.0100 C.2       1 RXB         0.2522
     16 OAC       -46.3770   13.7820  -22.4970 O.2       1 RXB        -0.3772
     17 CBA       -45.1880   15.2740  -23.7960 C.3       1 RXB         0.2154
     18 OAQ       -45.4510   16.1750  -24.9040 O.3       1 RXB        -0.2391
     19 CAR       -44.6810   17.4230  -25.2420 C.2       1 RXB         0.2353
     20 OAB       -44.7680   17.8270  -26.4210 O.2       1 RXB        -0.3704
     21 CAA       -43.8460   18.2470  -24.2690 C.3       1 RXB         0.0375
     22 CAT       -44.1300   15.5230  -22.7350 C.ar      1 RXB         0.0098
     23 CAL       -42.7440   15.5290  -23.0350 C.ar      1 RXB        -0.0551
     24 CAI       -41.7660   15.7090  -22.0300 C.ar      1 RXB        -0.0680
     25 CAG       -42.1890   15.8490  -20.6990 C.ar      1 RXB        -0.0684
     26 CAH       -43.5640   15.8190  -20.3880 C.ar      1 RXB        -0.0680
     27 CAK       -44.5220   15.6610  -21.3900 C.ar      1 RXB        -0.0551
     28 H1        -49.3487   12.5101  -17.9851 H         1 RXB         0.2262
     29 H2        -52.2236   13.5731  -21.4029 H         1 RXB         0.0558
     30 H3        -51.9507   14.8673  -23.4940 H         1 RXB         0.0627
     31 H4        -49.7728   15.8149  -24.1175 H         1 RXB         0.0554
     32 H5        -47.4423   16.6889  -22.9453 H         1 RXB         0.2295
     33 H6        -44.8550   14.3564  -24.3030 H         1 RXB         0.1062
     34 H7        -43.4008   19.1012  -24.8002 H         1 RXB         0.0483
     35 H8        -43.0463   17.6192  -23.8492 H         1 RXB         0.0483
     36 H9        -44.4882   18.6154  -23.4555 H         1 RXB         0.0483
     37 H10       -42.4259   15.3919  -24.0622 H         1 RXB         0.0562
     38 H11       -40.7121   15.7383  -22.2820 H         1 RXB         0.0600
     39 H12       -41.4580   15.9803  -19.9094 H         1 RXB         0.0561
     40 H13       -43.8811   15.9201  -19.3564 H         1 RXB         0.0600
     41 H14       -45.5745   15.6444  -21.1312 H         1 RXB         0.0562
@<TRIPOS>BOND
     1    1    2 2  
     2    2    3 am 
     3    2    6 1  
     4    3    4 am 
     5    4    5 2  
     6    4    8 1  
     7    6    7 ar 
     8    6   10 ar 
     9    7    8 1  
    10    7   13 ar 
    11    8    9 2  
    12   10   11 ar 
    13   11   12 ar 
    14   12   13 ar 
    15   13   14 1  
    16   14   15 am 
    17   15   16 2  
    18   15   17 1  
    19   17   18 1  
    20   17   22 1  
    21   18   19 1  
    22   19   20 2  
    23   19   21 1  
    24   22   23 ar 
    25   22   27 ar 
    26   23   24 ar 
    27   24   25 ar 
    28   25   26 ar 
    29   26   27 ar 
    30    3   28 1  
    31   10   29 1  
    32   11   30 1  
    33   12   31 1  
    34   14   32 1  
    35   17   33 1  
    36   21   34 1  
    37   21   35 1  
    38   21   36 1  
    39   23   37 1  
    40   24   38 1  
    41   25   39 1  
    42   26   40 1  
    43   27   41 1  
@<TRIPOS>SUBSTRUCTURE
     1 RXB         1

