### 
### Created by X-TOOL on Mon Sep 10 21:12:58 2018
### 

@<TRIPOS>MOLECULE
3dej_ligand
   41    43     1     0     0
SMALL
GAST_HUCK


@<TRIPOS>ATOM
      1 OAE       -50.9490   13.0910  -19.2630 O.2       1 RXC        -0.3714
      2 CAX       -49.7540   13.4250  -19.5780 C.2       1 RXC         0.2348
      3 NAP       -48.6980   13.2930  -18.7070 N.am      1 RXC        -0.1887
      4 CAW       -47.4140   13.6310  -19.0110 C.2       1 RXC         0.2933
      5 OAD       -46.4800   13.4980  -18.1760 O.2       1 RXC        -0.3498
      6 CAZ       -49.5140   13.9360  -20.8490 C.ar      1 RXC         0.0612
      7 CBA       -48.1810   14.2910  -21.1750 C.ar      1 RXC         0.0869
      8 CAY       -47.1130   14.1430  -20.2670 C.2       1 RXC         0.2382
      9 OAF       -45.8950   14.4680  -20.5530 O.2       1 RXC        -0.3464
     10 CAM       -50.5960   14.0840  -21.7600 C.ar      1 RXC        -0.0509
     11 CAI       -50.2960   14.6060  -23.0230 C.ar      1 RXC        -0.0648
     12 CAL       -48.9590   14.9740  -23.3370 C.ar      1 RXC        -0.0300
     13 CAV       -47.8990   14.8160  -22.4190 C.ar      1 RXC         0.0931
     14 NAO       -46.5770   15.1350  -22.6490 N.am      1 RXC        -0.2235
     15 CAS       -46.0880   15.5820  -23.8120 C.2       1 RXC         0.2521
     16 OAC       -46.7480   15.7330  -24.8520 O.2       1 RXC        -0.3772
     17 CBB       -44.5990   15.7600  -23.9040 C.3       1 RXC         0.2154
     18 OAQ       -44.2910   16.9300  -24.6890 O.3       1 RXC        -0.2391
     19 CAR       -44.2170   16.5800  -26.1040 C.2       1 RXC         0.2353
     20 OAB       -44.2740   17.5180  -26.9100 O.2       1 RXC        -0.3704
     21 CAA       -44.0810   15.1180  -26.5070 C.3       1 RXC         0.0375
     22 CAU       -43.8330   15.8400  -22.6260 C.ar      1 RXC         0.0103
     23 CAK       -43.7960   17.0170  -21.8740 C.ar      1 RXC        -0.0549
     24 CAH       -43.0000   17.0270  -20.7100 C.ar      1 RXC        -0.0675
     25 CAJ       -42.2450   15.9020  -20.3180 C.ar      1 RXC        -0.0545
     26 CAT       -42.2740   14.7480  -21.0920 C.ar      1 RXC         0.0343
     27 CLAG      -41.3220   13.2660  -20.6360 Cl        1 RXC        -0.0724
     28 CAN       -43.0630   14.7280  -22.2430 C.ar      1 RXC        -0.0412
     29 H1        -48.8840   12.9267  -17.7953 H         1 RXC         0.2262
     30 H2        -51.6076   13.8050  -21.4881 H         1 RXC         0.0558
     31 H3        -51.0810   14.7296  -23.7603 H         1 RXC         0.0627
     32 H4        -48.7467   15.3902  -24.3151 H         1 RXC         0.0554
     33 H5        -45.9357   15.0240  -21.8898 H         1 RXC         0.2295
     34 H6        -44.2179   14.8793  -24.4417 H         1 RXC         0.1062
     35 H7        -44.0401   15.0423  -27.6036 H         1 RXC         0.0483
     36 H8        -44.9468   14.5523  -26.1324 H         1 RXC         0.0483
     37 H9        -43.1578   14.7032  -26.0762 H         1 RXC         0.0483
     38 H10       -44.3599   17.8925  -22.1750 H         1 RXC         0.0563
     39 H11       -42.9675   17.9228  -20.1005 H         1 RXC         0.0600
     40 H12       -41.6443   15.9373  -19.4163 H         1 RXC         0.0567
     41 H13       -43.0825   13.8341  -22.8560 H         1 RXC         0.0567
@<TRIPOS>BOND
     1    1    2 2  
     2    2    3 am 
     3    2    6 1  
     4    3    4 am 
     5    4    5 2  
     6    4    8 1  
     7    6    7 ar 
     8    6   10 ar 
     9    7    8 1  
    10    7   13 ar 
    11    8    9 2  
    12   10   11 ar 
    13   11   12 ar 
    14   12   13 ar 
    15   13   14 1  
    16   14   15 am 
    17   15   16 2  
    18   15   17 1  
    19   17   18 1  
    20   17   22 1  
    21   18   19 1  
    22   19   20 2  
    23   19   21 1  
    24   22   23 ar 
    25   22   28 ar 
    26   23   24 ar 
    27   24   25 ar 
    28   25   26 ar 
    29   26   27 1  
    30   26   28 ar 
    31    3   29 1  
    32   10   30 1  
    33   11   31 1  
    34   12   32 1  
    35   14   33 1  
    36   17   34 1  
    37   21   35 1  
    38   21   36 1  
    39   21   37 1  
    40   23   38 1  
    41   24   39 1  
    42   25   40 1  
    43   28   41 1  
@<TRIPOS>SUBSTRUCTURE
     1 RXC         1

