### 
### Created by X-TOOL on Mon Sep 10 21:12:58 2018
### 

@<TRIPOS>MOLECULE
3dek_ligand
   49    51     1     0     0
SMALL
GAST_HUCK


@<TRIPOS>ATOM
      1 FAN       -39.9970    3.1170  -23.4600 F         1 RXD        -0.2463
      2 CAN       -39.3470    4.3050  -23.7120 C.3       1 RXD         0.1177
      3 CAO       -40.3840    5.3480  -24.1280 C.3       1 RXD         0.0981
      4 OAU       -40.7140    6.1770  -22.9990 O.3       1 RXD        -0.3194
      5 CAZ       -40.9110    7.5450  -23.1120 C.ar      1 RXD         0.0776
      6 CAI       -41.1830    8.0900  -24.3730 C.ar      1 RXD        -0.0484
      7 CAG       -41.3730    9.4640  -24.5350 C.ar      1 RXD        -0.0837
      8 CAH       -41.2960   10.2890  -23.4120 C.ar      1 RXD        -0.0523
      9 CAL       -40.8450    8.3730  -21.9890 C.ar      1 RXD        -0.0141
     10 CAX       -41.0310    9.7610  -22.1350 C.ar      1 RXD         0.0571
     11 NAR       -40.9510   10.6090  -21.0610 N.am      1 RXD        -0.2362
     12 CAV       -41.2500   11.9260  -21.2030 C.2       1 RXD         0.2057
     13 OAA       -41.3490   12.5330  -22.2740 O.2       1 RXD        -0.3847
     14 CAP       -41.4680   12.6910  -19.9270 C.3       1 RXD         0.0605
     15 CAQ       -42.4480   13.8390  -20.1000 C.3       1 RXD         0.0608
     16 CAW       -42.0800   14.8330  -21.1850 C.2       1 RXD         0.2077
     17 OAB       -40.9750   15.3680  -21.2260 O.2       1 RXD        -0.3838
     18 NAS       -43.0300   15.1040  -22.0820 N.am      1 RXD        -0.2296
     19 CAY       -44.2960   14.4790  -22.0680 C.ar      1 RXD         0.0775
     20 CAJ       -44.7510   13.9510  -23.2870 C.ar      1 RXD        -0.0305
     21 CAK       -45.9840   13.3120  -23.3530 C.ar      1 RXD        -0.0496
     22 CBD       -46.7580   13.2060  -22.1930 C.ar      1 RXD         0.0580
     23 CBE       -46.3220   13.7180  -20.9640 C.ar      1 RXD         0.0540
     24 CBC       -47.1490   13.5770  -19.8420 C.2       1 RXD         0.2453
     25 OAE       -46.8140   14.0200  -18.7150 O.2       1 RXD        -0.3357
     26 CAM       -45.0820   14.3590  -20.8940 C.ar      1 RXD        -0.0158
     27 CBB       -47.9800   12.5650  -22.2740 C.2       1 RXD         0.2268
     28 OAD       -48.3280   12.1180  -23.3880 O.2       1 RXD        -0.3787
     29 NAT       -48.7760   12.4370  -21.1920 N.am      1 RXD        -0.1906
     30 CBA       -48.3830   12.9340  -19.9880 C.2       1 RXD         0.2962
     31 OAC       -49.1250   12.8000  -18.9780 O.2       1 RXD        -0.3493
     32 H1        -38.6173    4.1637  -24.5229 H         1 RXD         0.0642
     33 H2        -38.8255    4.6422  -22.8041 H         1 RXD         0.0642
     34 H3        -41.2912    4.8397  -24.4865 H         1 RXD         0.0639
     35 H4        -39.9716    5.9735  -24.9334 H         1 RXD         0.0639
     36 H5        -41.2470    7.4363  -25.2353 H         1 RXD         0.0418
     37 H6        -41.5764    9.8818  -25.5144 H         1 RXD         0.0551
     38 H7        -41.4432   11.3569  -23.5257 H         1 RXD         0.0414
     39 H8        -40.6516    7.9492  -21.0102 H         1 RXD         0.0419
     40 H9        -40.6710   10.2560  -20.1683 H         1 RXD         0.2254
     41 H10       -40.5033   13.0980  -19.5899 H         1 RXD         0.0533
     42 H11       -41.8618   12.0022  -19.1651 H         1 RXD         0.0533
     43 H12       -42.5104   14.3822  -19.1455 H         1 RXD         0.0533
     44 H13       -43.4326   13.4142  -20.3452 H         1 RXD         0.0533
     45 H14       -42.8371   15.7786  -22.7946 H         1 RXD         0.2281
     46 H15       -44.1400   14.0417  -24.1778 H         1 RXD         0.0553
     47 H16       -46.3406   12.9015  -24.2908 H         1 RXD         0.0643
     48 H17       -44.7250   14.7601  -19.9523 H         1 RXD         0.0572
     49 H18       -49.6588   11.9747  -21.2755 H         1 RXD         0.2257
@<TRIPOS>BOND
     1    1    2 1  
     2    2    3 1  
     3    3    4 1  
     4    4    5 1  
     5    5    6 ar 
     6    5    9 ar 
     7    6    7 ar 
     8    7    8 ar 
     9    8   10 ar 
    10    9   10 ar 
    11   10   11 1  
    12   11   12 am 
    13   12   13 2  
    14   12   14 1  
    15   14   15 1  
    16   15   16 1  
    17   16   17 2  
    18   16   18 am 
    19   18   19 1  
    20   19   20 ar 
    21   19   26 ar 
    22   20   21 ar 
    23   21   22 ar 
    24   22   23 ar 
    25   22   27 1  
    26   23   24 1  
    27   23   26 ar 
    28   24   25 2  
    29   24   30 1  
    30   27   28 2  
    31   27   29 am 
    32   29   30 am 
    33   30   31 2  
    34    2   32 1  
    35    2   33 1  
    36    3   34 1  
    37    3   35 1  
    38    6   36 1  
    39    7   37 1  
    40    8   38 1  
    41    9   39 1  
    42   11   40 1  
    43   14   41 1  
    44   14   42 1  
    45   15   43 1  
    46   15   44 1  
    47   18   45 1  
    48   20   46 1  
    49   21   47 1  
    50   26   48 1  
    51   29   49 1  
@<TRIPOS>SUBSTRUCTURE
     1 RXD         1

