### 
### Created by X-TOOL on Mon Sep 10 21:13:00 2018
### 

@<TRIPOS>MOLECULE
3dg8_ligand
   34    34     1     0     0
SMALL
GAST_HUCK


@<TRIPOS>ATOM
      1 C1         26.9540    4.8220   62.1900 C.ar      1 RJ6         0.2716
      2 C2         27.3970    5.9110   62.8580 C.ar      1 RJ6         0.1911
      3 C3         28.2110    6.8610   62.3570 C.ar      1 RJ6         0.2716
      4 C4         28.6290    6.6970   61.0330 C.ar      1 RJ6         0.1518
      5 C5         28.2230    5.6040   60.2910 C.ar      1 RJ6         0.2322
      6 C6         27.3800    4.6690   60.8740 C.ar      1 RJ6         0.1518
      7 O7         26.1240    4.0090   62.8980 O.3       1 RJ6        -0.2643
      8 C8         25.4230    2.8270   62.6650 C.3       1 RJ6         0.0750
      9 O9         28.4990    7.8820   63.2150 O.3       1 RJ6        -0.2643
     10 C10        28.9060    9.1440   62.7740 C.3       1 RJ6         0.0750
     11 N11        28.6240    5.4280   58.9960 N.pl3     1 RJ6        -0.1880
     12 C12        29.5170    4.5600   58.4390 C.cat     1 RJ6         0.2131
     13 N13        29.7750    4.6620   57.1170 N.pl3     1 RJ6        -0.3063
     14 C14        29.2000    5.3780   56.1380 C.cat     1 RJ6         0.1281
     15 N15        28.3770    6.4150   56.3920 N.pl3     1 RJ6        -0.3552
     16 N16        30.0890    3.6760   59.1790 N.pl3     1 RJ6        -0.3361
     17 N17        29.4460    5.0520   54.9160 N.pl3     1 RJ6        -0.3552
     18 H          27.0693    6.0301   63.8844 H         1 RJ6         0.2345
     19 H          29.2803    7.4371   60.5823 H         1 RJ6         0.1134
     20 H          27.0501    3.8113   60.2991 H         1 RJ6         0.1134
     21 H          24.8694    2.5441   63.5724 H         1 RJ6         0.0610
     22 H          26.1306    2.0266   62.4028 H         1 RJ6         0.0610
     23 H          24.7158    2.9774   61.8360 H         1 RJ6         0.0610
     24 H          29.0794    9.7973   63.6418 H         1 RJ6         0.0610
     25 H          28.1222    9.5804   62.1374 H         1 RJ6         0.0610
     26 H          29.8367    9.0478   62.1957 H         1 RJ6         0.0610
     27 H          28.1723    6.0626   58.3220 H         1 RJ6         0.2862
     28 H          30.5630    4.0794   56.7998 H         1 RJ6         0.1910
     29 H          27.9548    6.9402   55.6130 H         1 RJ6         0.1649
     30 H          28.1703    6.6821   57.3651 H         1 RJ6         0.1649
     31 H          29.8694    3.6255   60.1841 H         1 RJ6         0.1720
     32 H          30.7664    3.0190   58.7662 H         1 RJ6         0.1720
     33 H          30.0733    4.2614   54.7102 H         1 RJ6         0.1649
     34 H          29.0154    5.5820   54.1449 H         1 RJ6         0.1649
@<TRIPOS>BOND
     1    1    2 ar 
     2    1    6 ar 
     3    1    7 1  
     4    2    3 ar 
     5    3    4 ar 
     6    3    9 1  
     7    4    5 ar 
     8    5    6 ar 
     9    5   11 1  
    10    7    8 1  
    11    9   10 1  
    12   11   12 ar 
    13   12   13 ar 
    14   12   16 ar 
    15   13   14 ar 
    16   14   15 ar 
    17   14   17 ar 
    18    2   18 1  
    19    4   19 1  
    20    6   20 1  
    21    8   21 1  
    22    8   22 1  
    23    8   23 1  
    24   10   24 1  
    25   10   25 1  
    26   10   26 1  
    27   11   27 1  
    28   13   28 1  
    29   15   29 1  
    30   15   30 1  
    31   16   31 1  
    32   16   32 1  
    33   17   33 1  
    34   17   34 1  
@<TRIPOS>SUBSTRUCTURE
     1 RJ6         1

