### 
### Created by X-TOOL on Mon Sep 10 21:13:01 2018
### 

@<TRIPOS>MOLECULE
3dga_ligand
   29    29     1     0     0
SMALL
GAST_HUCK


@<TRIPOS>ATOM
      1 C1         25.6380    5.4370   60.6740 C.ar      1 RJ1         0.2064
      2 C2         25.8740    4.6760   61.7840 C.ar      1 RJ1         0.0978
      3 C3         27.0450    4.0240   61.9620 C.ar      1 RJ1         0.1199
      4 C4         28.0440    4.1090   61.0290 C.ar      1 RJ1         0.2803
      5 C5         27.8620    4.8730   59.8610 C.ar      1 RJ1         0.3477
      6 C6         26.6480    5.5320   59.7080 C.ar      1 RJ1         0.1968
      7 CL7        29.4650    3.2390   61.3980 Cl        1 RJ1         0.0435
      8 C8         24.3060    6.1480   60.5390 C.3       1 RJ1         0.4173
      9 F9         24.2830    7.0750   59.5210 F         1 RJ1        -0.2128
     10 F10        23.2530    5.2400   60.3250 F         1 RJ1        -0.2128
     11 F11        24.0210    6.8620   61.7000 F         1 RJ1        -0.2128
     12 N12        28.8500    4.9850   58.8950 N.pl3     1 RJ1        -0.1450
     13 C13        29.8560    4.3890   58.1720 C.cat     1 RJ1         0.2367
     14 N14        30.2380    4.7140   56.9210 N.pl3     1 RJ1        -0.3006
     15 C15        29.6890    5.2210   55.8100 C.cat     1 RJ1         0.1296
     16 N16        29.9690    4.7480   54.5800 N.pl3     1 RJ1        -0.3549
     17 N17        30.5120    3.4340   58.7320 N.pl3     1 RJ1        -0.3302
     18 N18        28.8690    6.2020   55.9300 N.pl3     1 RJ1        -0.3549
     19 H          25.1028    4.5929   62.5412 H         1 RJ1         0.1978
     20 H          27.1950    3.4267   62.8541 H         1 RJ1         0.1238
     21 H          26.4790    6.1327   58.8217 H         1 RJ1         0.2063
     22 H          28.8138    5.9618   58.5704 H         1 RJ1         0.3181
     23 H          31.2387    4.5156   56.7790 H         1 RJ1         0.1929
     24 H          29.5229    5.1689   53.7525 H         1 RJ1         0.1650
     25 H          30.6291    3.9655   54.4671 H         1 RJ1         0.1650
     26 H          30.2714    3.1354   59.6880 H         1 RJ1         0.1747
     27 H          31.2776    2.9682   58.2243 H         1 RJ1         0.1747
     28 H          28.6449    6.5747   56.8637 H         1 RJ1         0.1650
     29 H          28.4354    6.6162   55.0925 H         1 RJ1         0.1650
@<TRIPOS>BOND
     1    1    2 ar 
     2    1    6 ar 
     3    1    8 1  
     4    2    3 ar 
     5    3    4 ar 
     6    4    5 ar 
     7    4    7 1  
     8    5    6 ar 
     9    5   12 1  
    10    8    9 1  
    11    8   10 1  
    12    8   11 1  
    13   12   13 ar 
    14   13   14 ar 
    15   13   17 ar 
    16   14   15 ar 
    17   15   16 ar 
    18   15   18 ar 
    19    2   19 1  
    20    3   20 1  
    21    6   21 1  
    22   12   22 1  
    23   14   23 1  
    24   16   24 1  
    25   16   25 1  
    26   17   26 1  
    27   17   27 1  
    28   18   28 1  
    29   18   29 1  
@<TRIPOS>SUBSTRUCTURE
     1 RJ1         1

