### 
### Created by X-TOOL on Mon Sep 10 21:13:00 2018
### 

@<TRIPOS>MOLECULE
3dgq_ligand
   30    30     1     0     0
SMALL
GAST_HUCK


@<TRIPOS>ATOM
      1 C1          5.7560    6.5380   23.0450 C.ar      1 EAA         0.1139
      2 O2          4.5330    7.1250   22.8830 O.3       1 EAA        -0.2994
      3 C2          5.9240    5.4080   23.9900 C.ar      1 EAA         0.0881
      4 CL1         4.5410    4.8050   24.9530 Cl        1 EAA        -0.0767
      5 C3          7.2590    4.7850   24.1370 C.ar      1 EAA         0.0650
      6 CL2         7.4260    3.4210   25.2910 Cl        1 EAA        -0.0667
      7 C4          8.3700    5.3430   23.3070 C.ar      1 EAA         0.0377
      8 C5          8.1040    6.4140   22.4490 C.ar      1 EAA        -0.0512
      9 C6          6.8480    6.9950   22.3140 C.ar      1 EAA        -0.0258
     10 C7          9.7950    4.8600   23.3030 C.2       1 EAA         0.1527
     11 O1         10.5650    5.4430   22.5620 O.2       1 EAA        -0.3720
     12 C8         10.3100    3.7580   24.1140 C.2       1 EAA         0.0058
     13 C9         10.4520    3.8960   25.6170 C.3       1 EAA        -0.0152
     14 C10        11.6810    4.6970   25.9860 C.3       1 EAA        -0.0548
     15 C11        10.6750    2.6360   23.5200 C.2       1 EAA        -0.0907
     16 C12         3.6840    6.6430   21.8390 C.3       1 EAA         0.1241
     17 C13         3.9340    7.4150   20.5620 C.2       1 EAA         0.0656
     18 O           4.9600    7.1700   19.8850 O.co2     1 EAA        -0.5662
     19 OXT         3.0900    8.2750   20.2310 O.co2     1 EAA        -0.5662
     20 H1          8.9202    6.8127   21.8575 H         1 EAA         0.0644
     21 H2          6.7169    7.8213   21.6248 H         1 EAA         0.0559
     22 H3         10.5319    2.8933   26.0622 H         1 EAA         0.0432
     23 H4          9.5613    4.4041   26.0151 H         1 EAA         0.0432
     24 H5         11.7517    4.7765   27.0808 H         1 EAA         0.0253
     25 H6         11.6072    5.7039   25.5493 H         1 EAA         0.0253
     26 H7         12.5778    4.1931   25.5963 H         1 EAA         0.0253
     27 H8         10.5743    2.5337   22.4405 H         1 EAA         0.0460
     28 H9         11.0766    1.8133   24.1098 H         1 EAA         0.0460
     29 H10         2.6331    6.7678   22.1389 H         1 EAA         0.0788
     30 H11         3.8916    5.5768   21.6652 H         1 EAA         0.0788
@<TRIPOS>BOND
     1    1    2 1  
     2    1    3 ar 
     3    1    9 ar 
     4    2   16 1  
     5    3    4 1  
     6    3    5 ar 
     7    5    6 1  
     8    5    7 ar 
     9    7    8 ar 
    10    7   10 1  
    11    8    9 ar 
    12   10   11 2  
    13   10   12 1  
    14   12   13 1  
    15   12   15 2  
    16   13   14 1  
    17   16   17 1  
    18   17   18 ar 
    19   17   19 ar 
    20    8   20 1  
    21    9   21 1  
    22   13   22 1  
    23   13   23 1  
    24   14   24 1  
    25   14   25 1  
    26   14   26 1  
    27   15   27 1  
    28   15   28 1  
    29   16   29 1  
    30   16   30 1  
@<TRIPOS>SUBSTRUCTURE
     1 EAA         1

