### 
### Created by X-TOOL on Mon Sep 10 21:13:00 2018
### 

@<TRIPOS>MOLECULE
3dhk_ligand
   62    65     1     0     0
SMALL
GAST_HUCK


@<TRIPOS>ATOM
      1 C1         19.3460  -14.2430   24.8680 C.ar      1 23U        -0.0211
      2 C2         19.6330  -13.1540   25.6850 C.ar      1 23U        -0.0577
      3 C3         20.9350  -12.6580   25.7570 C.ar      1 23U        -0.0682
      4 C4         21.9630  -13.2490   25.0110 C.ar      1 23U        -0.0685
      5 C5         21.6890  -14.3410   24.1900 C.ar      1 23U        -0.0682
      6 C6         20.3820  -14.8350   24.1190 C.ar      1 23U        -0.0577
      7 C7         17.8330  -16.0360   25.6990 C.ar      1 23U        -0.0211
      8 C8         17.9070  -14.7760   24.7980 C.3       1 23U         0.0858
      9 C9         17.4210  -14.9820   23.3300 C.3       1 23U         0.0866
     10 N2         16.2050  -15.8320   23.3000 N.4       1 23U         0.2410
     11 C10        17.2480  -13.5970   22.6830 C.2       1 23U         0.2336
     12 O32        16.3220  -12.9400   23.1570 O.2       1 23U        -0.3901
     13 N1         17.9970  -13.1240   21.6610 N.am      1 23U        -0.2468
     14 C11        19.0400  -13.9400   21.0120 C.3       1 23U         0.0371
     15 C12        19.7890  -12.8140   20.2550 C.3       1 23U        -0.0281
     16 C13        18.6160  -11.9370   19.7510 C.3       1 23U        -0.0104
     17 C14        17.7330  -11.8390   21.0280 C.3       1 23U         0.1339
     18 C15        16.2780  -11.7360   20.6310 C.2       1 23U         0.2037
     19 N23        15.6470  -10.5650   20.8610 N.am      1 23U        -0.2737
     20 C16        14.2860  -10.3630   20.3600 C.3       1 23U         0.0645
     21 C17        13.2730  -10.3160   21.5220 C.ar      1 23U        -0.0205
     22 C18        12.3830  -11.3660   21.7460 C.ar      1 23U        -0.0583
     23 C19        11.4660  -11.3290   22.7960 C.ar      1 23U        -0.0680
     24 C20        11.4270  -10.2260   23.6430 C.ar      1 23U        -0.0548
     25 C21        12.3120   -9.1700   23.4310 C.ar      1 23U         0.0338
     26 C22        13.2310   -9.2060   22.3810 C.ar      1 23U        -0.0446
     27 CL1        12.2430   -7.7960   24.5140 Cl        1 23U        -0.0725
     28 O22        15.7490  -12.7140   20.1110 O.2       1 23U        -0.3944
     29 C23        17.2830  -16.0360   26.9810 C.ar      1 23U        -0.0577
     30 C24        17.2590  -17.2200   27.7230 C.ar      1 23U        -0.0682
     31 C25        17.7800  -18.3920   27.1840 C.ar      1 23U        -0.0685
     32 C26        18.3340  -18.4000   25.8990 C.ar      1 23U        -0.0682
     33 C27        18.3570  -17.2180   25.1600 C.ar      1 23U        -0.0577
     34 H1         18.8441  -12.6904   26.2662 H         1 23U         0.0561
     35 H2         21.1528  -11.8090   26.3949 H         1 23U         0.0600
     36 H3         22.9717  -12.8568   25.0725 H         1 23U         0.0561
     37 H4         22.4809  -14.8033   23.6119 H         1 23U         0.0600
     38 H5         20.1639  -15.6832   23.4802 H         1 23U         0.0561
     39 H6         17.2442  -14.0178   25.2404 H         1 23U         0.0701
     40 H7         18.2059  -15.5154   22.7737 H         1 23U         0.1149
     41 H8         15.9046  -15.9551   22.3457 H         1 23U         0.2018
     42 H9         15.4710  -15.3872   23.8286 H         1 23U         0.2018
     43 H10        16.4134  -16.7311   23.7052 H         1 23U         0.2018
     44 H11        18.6131  -14.6858   20.3254 H         1 23U         0.0524
     45 H12        19.6858  -14.4444   21.7458 H         1 23U         0.0524
     46 H13        20.3767  -13.2169   19.4170 H         1 23U         0.0287
     47 H14        20.4504  -12.2496   20.9288 H         1 23U         0.0287
     48 H15        18.0761  -12.4235   18.9253 H         1 23U         0.0313
     49 H16        18.9655  -10.9457   19.4269 H         1 23U         0.0313
     50 H17        18.0189  -10.9931   21.6704 H         1 23U         0.0802
     51 H18        16.1071   -9.8385   21.3714 H         1 23U         0.1878
     52 H19        14.0233  -11.1922   19.6866 H         1 23U         0.0683
     53 H20        14.2432   -9.4134   19.8064 H         1 23U         0.0683
     54 H21        12.4044  -12.2289   21.0903 H         1 23U         0.0559
     55 H22        10.7850  -12.1579   22.9519 H         1 23U         0.0599
     56 H23        10.7154  -10.1881   24.4598 H         1 23U         0.0565
     57 H24        13.9124   -8.3768   22.2287 H         1 23U         0.0562
     58 H25        16.8764  -15.1224   27.3994 H         1 23U         0.0561
     59 H26        16.8338  -17.2252   28.7201 H         1 23U         0.0600
     60 H27        17.7566  -19.3071   27.7646 H         1 23U         0.0561
     61 H28        18.7406  -19.3147   25.4830 H         1 23U         0.0600
     62 H29        18.7826  -17.2136   24.1631 H         1 23U         0.0561
@<TRIPOS>BOND
     1    1    2 ar 
     2    1    6 ar 
     3    1    8 1  
     4    2    3 ar 
     5    3    4 ar 
     6    4    5 ar 
     7    5    6 ar 
     8    8    7 1  
     9    7   29 ar 
    10    7   33 ar 
    11    8    9 1  
    12    9   10 1  
    13    9   11 1  
    14   11   12 2  
    15   11   13 am 
    16   13   14 1  
    17   13   17 1  
    18   14   15 1  
    19   15   16 1  
    20   16   17 1  
    21   17   18 1  
    22   18   19 am 
    23   18   28 2  
    24   19   20 1  
    25   20   21 1  
    26   21   22 ar 
    27   21   26 ar 
    28   22   23 ar 
    29   23   24 ar 
    30   24   25 ar 
    31   25   26 ar 
    32   25   27 1  
    33   29   30 ar 
    34   30   31 ar 
    35   31   32 ar 
    36   32   33 ar 
    37    2   34 1  
    38    3   35 1  
    39    4   36 1  
    40    5   37 1  
    41    6   38 1  
    42    8   39 1  
    43    9   40 1  
    44   10   41 1  
    45   10   42 1  
    46   10   43 1  
    47   14   44 1  
    48   14   45 1  
    49   15   46 1  
    50   15   47 1  
    51   16   48 1  
    52   16   49 1  
    53   17   50 1  
    54   19   51 1  
    55   20   52 1  
    56   20   53 1  
    57   22   54 1  
    58   23   55 1  
    59   24   56 1  
    60   26   57 1  
    61   29   58 1  
    62   30   59 1  
    63   31   60 1  
    64   32   61 1  
    65   33   62 1  
@<TRIPOS>SUBSTRUCTURE
     1 23U         1

