### 
### Created by X-TOOL on Mon Sep 10 21:12:58 2018
### 

@<TRIPOS>MOLECULE
3di6_ligand
   35    37     1     0     0
SMALL
GAST_HUCK


@<TRIPOS>ATOM
      1 C1         48.6610   62.2320   21.2910 C.ar      1 PDZ        -0.0697
      2 C2         48.3150   60.9520   20.8780 C.ar      1 PDZ        -0.0723
      3 C3         47.9040   60.7240   19.5700 C.ar      1 PDZ        -0.0697
      4 C4         47.8330   61.7730   18.6660 C.ar      1 PDZ        -0.0286
      5 C5         48.1790   63.0540   19.0830 C.ar      1 PDZ         0.1152
      6 C6         48.5900   63.2800   20.3900 C.ar      1 PDZ        -0.0286
      7 O7         48.1170   64.1040   18.2300 O.3       1 PDZ        -0.2586
      8 C8         48.5460   63.9850   16.9560 C.ar      1 PDZ         0.1575
      9 C9         47.6240   63.9640   15.9320 C.ar      1 PDZ         0.0640
     10 C10        48.0140   63.8380   14.6030 C.ar      1 PDZ        -0.0658
     11 C11        49.3680   63.7360   14.3290 C.ar      1 PDZ        -0.0700
     12 C12        50.3040   63.7530   15.3610 C.ar      1 PDZ        -0.0064
     13 C13        49.8940   63.8900   16.6800 C.ar      1 PDZ         0.1667
     14 C14        51.7710   63.6660   15.0450 C.3       1 PDZ         0.0280
     15 CL15       45.9680   64.0980   16.3830 Cl        1 PDZ        -0.0848
     16 F16        50.7650   63.9150   17.7120 F         1 PDZ        -0.1949
     17 C17        52.1560   65.1050   14.7970 C.2       1 PDZ         0.0837
     18 C18        52.7750   65.8640   15.8140 C.2       1 PDZ        -0.0144
     19 C19        53.0870   67.1690   15.5460 C.3       1 PDZ         0.0751
     20 C20        52.7500   67.6670   14.2640 C.2       1 PDZ         0.2196
     21 N21        52.1520   66.8670   13.3600 N.2       1 PDZ        -0.1357
     22 N22        51.8730   65.6470   13.6340 N.2       1 PDZ        -0.1657
     23 O23        53.0010   68.8170   13.9570 O.2       1 PDZ        -0.3726
     24 H1         48.9840   62.4087   22.3106 H         1 PDZ         0.0590
     25 H2         48.3657   60.1268   21.5791 H         1 PDZ         0.0527
     26 H3         47.6377   59.7215   19.2551 H         1 PDZ         0.0590
     27 H4         47.5115   61.5967   17.6459 H         1 PDZ         0.0552
     28 H5         48.8565   64.2821   20.7060 H         1 PDZ         0.0552
     29 H6         47.2802   63.8201   13.8053 H         1 PDZ         0.0547
     30 H7         49.7025   63.6421   13.3022 H         1 PDZ         0.0464
     31 H8         51.9460   63.0510   14.1500 H         1 PDZ         0.0560
     32 H9         52.3331   63.2478   15.8930 H         1 PDZ         0.0560
     33 H10        52.9979   65.4231   16.7845 H         1 PDZ         0.0857
     34 H11        54.1744   67.2807   15.6685 H         1 PDZ         0.0742
     35 H12        52.5683   67.7922   16.2894 H         1 PDZ         0.0742
@<TRIPOS>BOND
     1    1    2 ar 
     2    1    6 ar 
     3    2    3 ar 
     4    3    4 ar 
     5    4    5 ar 
     6    5    6 ar 
     7    5    7 1  
     8    7    8 1  
     9    8    9 ar 
    10    8   13 ar 
    11    9   10 ar 
    12    9   15 1  
    13   10   11 ar 
    14   11   12 ar 
    15   12   13 ar 
    16   12   14 1  
    17   13   16 1  
    18   14   17 1  
    19   17   18 2  
    20   17   22 1  
    21   18   19 1  
    22   19   20 1  
    23   20   21 1  
    24   20   23 2  
    25   21   22 2  
    26    1   24 1  
    27    2   25 1  
    28    3   26 1  
    29    4   27 1  
    30    6   28 1  
    31   10   29 1  
    32   11   30 1  
    33   14   31 1  
    34   14   32 1  
    35   18   33 1  
    36   19   34 1  
    37   19   35 1  
@<TRIPOS>SUBSTRUCTURE
     1 PDZ         1

