### 
### Created by X-TOOL on Mon Sep 10 21:13:01 2018
### 

@<TRIPOS>MOLECULE
3djf_ligand
   30    32     1     0     0
SMALL
GAST_HUCK


@<TRIPOS>ATOM
      1 N01       -19.1310   -2.7640   24.5600 N.pl3     1 BC3        -0.3392
      2 C02       -19.4950   -2.6900   25.8370 C.cat     1 BC3         0.1765
      3 N03       -18.6820   -3.1690   26.7920 N.pl3     1 BC3        -0.2630
      4 C04       -19.0240   -3.1080   28.0880 C.2       1 BC3         0.1822
      5 C05       -18.3870   -3.5160   29.2510 C.2       1 BC3         0.0880
      6 C06       -17.0200   -4.1970   29.3430 C.3       1 BC3         0.0319
      7 C07       -15.9480   -3.1500   29.6520 C.ar      1 BC3        -0.0029
      8 C08       -14.6340   -3.5370   29.8720 C.ar      1 BC3        -0.0374
      9 C09       -13.6950   -2.5540   30.1490 C.ar      1 BC3        -0.0392
     10 C10       -14.0990   -1.2240   30.1970 C.ar      1 BC3         0.0053
     11 N11       -15.3610   -0.8910   29.9830 N.ar      1 BC3        -0.3028
     12 C12       -16.2810   -1.8020   29.7160 C.ar      1 BC3         0.0158
     13 C13       -19.1850   -3.2080   30.2720 C.2       1 BC3         0.1183
     14 N14       -20.2930   -2.6250   29.8100 N.pl3     1 BC3        -0.1831
     15 C15       -20.2280   -2.5480   28.4830 C.2       1 BC3         0.2638
     16 C16       -21.0950   -2.0430   27.5240 C.2       1 BC3         0.2934
     17 O17       -22.1690   -1.5420   27.8530 O.2       1 BC3        -0.3434
     18 N18       -20.7260   -2.1140   26.1780 N.am      1 BC3        -0.2480
     19 H1        -18.2268   -3.1868   24.3059 H         1 BC3         0.1745
     20 H2        -19.7533   -2.3985   23.8251 H         1 BC3         0.1745
     21 H3        -17.7807   -3.5903   26.5254 H         1 BC3         0.2163
     22 H4        -16.7891   -4.6865   28.3854 H         1 BC3         0.0601
     23 H5        -17.0387   -4.9500   30.1446 H         1 BC3         0.0601
     24 H6        -14.3480   -4.5817   29.8285 H         1 BC3         0.0688
     25 H7        -12.6590   -2.8193   30.3259 H         1 BC3         0.0696
     26 H8        -13.3705   -0.4507   30.4125 H         1 BC3         0.0776
     27 H9        -17.3063   -1.4944   29.5451 H         1 BC3         0.0777
     28 H10       -18.9671   -3.4019   31.3212 H         1 BC3         0.1624
     29 H11       -21.0752   -2.2878   30.3892 H         1 BC3         0.2606
     30 H12       -21.3328   -1.7582   25.4672 H         1 BC3         0.1816
@<TRIPOS>BOND
     1    1    2 ar 
     2    2    3 ar 
     3    2   18 ar 
     4    3    4 1  
     5    4    5 1  
     6    4   15 2  
     7    5    6 1  
     8    5   13 2  
     9    6    7 1  
    10    7    8 ar 
    11    7   12 ar 
    12    8    9 ar 
    13    9   10 ar 
    14   10   11 ar 
    15   11   12 ar 
    16   13   14 1  
    17   14   15 1  
    18   15   16 1  
    19   16   17 2  
    20   16   18 am 
    21    1   19 1  
    22    1   20 1  
    23    3   21 1  
    24    6   22 1  
    25    6   23 1  
    26    8   24 1  
    27    9   25 1  
    28   10   26 1  
    29   12   27 1  
    30   13   28 1  
    31   14   29 1  
    32   18   30 1  
@<TRIPOS>SUBSTRUCTURE
     1 BC3         1

