### 
### Created by X-TOOL on Mon Sep 10 21:12:57 2018
### 

@<TRIPOS>MOLECULE
3djk_ligand
   76    78     1     0     0
SMALL
GAST_HUCK


@<TRIPOS>ATOM
      1 C2         20.8690   27.8900   15.0590 C.ar      1 G55         0.0908
      2 O39        21.4930   29.0410   14.7630 O.3       1 G55        -0.3212
      3 C40        22.8770   29.1030   15.0880 C.3       1 G55         0.0594
      4 C3         21.4610   26.7260   15.5410 C.ar      1 G55        -0.0313
      5 C4         20.7360   25.5970   15.8110 C.ar      1 G55        -0.0440
      6 C5         19.3460   25.6280   15.5390 C.ar      1 G55         0.0971
      7 C6         18.7550   26.7060   14.9390 C.ar      1 G55        -0.0440
      8 C7         19.5150   27.8140   14.6600 C.ar      1 G55        -0.0313
      9 S8         18.3810   24.2220   16.0380 S.o2      1 G55         0.0657
     10 O9         17.3000   24.1190   15.0750 O.2       1 G55        -0.1515
     11 O10        19.2460   23.1130   16.2290 O.2       1 G55        -0.1515
     12 N11        17.7320   24.5400   17.5050 N.am      1 G55        -0.2325
     13 C12        18.6610   24.8190   18.5720 C.3       1 G55         0.0319
     14 C13        18.3610   24.1240   19.9320 C.3       1 G55        -0.0296
     15 C14        18.4700   22.6220   19.7760 C.3       1 G55        -0.0612
     16 C15        19.4190   24.6750   20.8820 C.3       1 G55        -0.0612
     17 C16        16.4370   25.1960   17.5830 C.3       1 G55         0.0578
     18 C17        15.3440   24.2910   18.1310 C.3       1 G55         0.0967
     19 O18        14.1730   25.1000   18.4290 O.3       1 G55        -0.3877
     20 C19        14.9280   23.1250   17.1930 C.3       1 G55         0.0807
     21 N20        14.0550   22.1930   17.9210 N.am      1 G55        -0.2550
     22 C21        14.4400   21.0110   18.3640 C.2       1 G55         0.3203
     23 O22        15.5330   20.5830   18.2690 O.2       1 G55        -0.3775
     24 O23        13.4510   20.3390   19.0020 O.3       1 G55        -0.2582
     25 C24        13.7670   18.9940   19.3780 C.3       1 G55         0.1135
     26 C25        12.7940   18.5910   20.4600 C.3       1 G55         0.0809
     27 O26        11.4400   18.6570   20.0870 O.3       1 G55        -0.3511
     28 C27        10.8480   17.5600   19.4500 C.3       1 G55         0.1482
     29 O28        11.6590   16.9190   18.5120 O.3       1 G55        -0.3539
     30 C29        12.2610   17.8570   17.6120 C.3       1 G55         0.0531
     31 C30        13.6570   18.1480   18.1200 C.3       1 G55         0.0035
     32 C32        14.1560   23.5600   15.9570 C.3       1 G55         0.0064
     33 C33        12.6170   21.7860   15.0450 C.ar      1 G55        -0.0603
     34 C34        12.4110   20.6170   14.3520 C.ar      1 G55        -0.0686
     35 C35        13.4040   20.0470   13.5560 C.ar      1 G55        -0.0687
     36 C36        14.6320   20.6980   13.4690 C.ar      1 G55        -0.0686
     37 C37        14.8660   21.8620   14.2270 C.ar      1 G55        -0.0603
     38 C38        13.8690   22.4000   15.0450 C.ar      1 G55        -0.0408
     39 H1         23.2772   30.0867   14.8014 H         1 G55         0.0577
     40 H2         23.4172   28.3146   14.5434 H         1 G55         0.0577
     41 H3         23.0065   28.9557   16.1704 H         1 G55         0.0577
     42 H4         22.5320   26.7133   15.7081 H         1 G55         0.0542
     43 H5         21.2085   24.7106   16.2185 H         1 G55         0.0608
     44 H6         17.7008   26.6853   14.6874 H         1 G55         0.0608
     45 H7         19.0697   28.6448   14.1247 H         1 G55         0.0542
     46 H8         18.6630   25.9058   18.7419 H         1 G55         0.0480
     47 H9         19.6599   24.4976   18.2422 H         1 G55         0.0480
     48 H10        17.3530   24.3814   20.2893 H         1 G55         0.0311
     49 H11        18.2570   22.1369   20.7400 H         1 G55         0.0233
     50 H12        19.4876   22.3600   19.4506 H         1 G55         0.0233
     51 H13        17.7446   22.2778   19.0241 H         1 G55         0.0233
     52 H14        19.3039   25.7657   20.9661 H         1 G55         0.0233
     53 H15        20.4203   24.4410   20.4912 H         1 G55         0.0233
     54 H16        19.2960   24.2158   21.8740 H         1 G55         0.0233
     55 H17        16.1481   25.5224   16.5731 H         1 G55         0.0504
     56 H18        16.5276   26.0735   18.2401 H         1 G55         0.0504
     57 H19        15.7164   23.8479   19.0664 H         1 G55         0.0634
     58 H20        14.4005   25.7587   19.0746 H         1 G55         0.2100
     59 H21        15.8414   22.6025   16.8724 H         1 G55         0.0604
     60 H22        13.1100   22.4722   18.0913 H         1 G55         0.1873
     61 H23        14.7927   18.9322   19.7705 H         1 G55         0.0671
     62 H24        12.9447   19.2575   21.3220 H         1 G55         0.0590
     63 H25        13.0182   17.5550   20.7539 H         1 G55         0.0590
     64 H26         9.9418   17.9116   18.9351 H         1 G55         0.0871
     65 H27        10.5704   16.8258   20.2206 H         1 G55         0.0871
     66 H28        11.6703   18.7846   17.5866 H         1 G55         0.0562
     67 H29        12.3120   17.4269   16.6009 H         1 G55         0.0562
     68 H30        14.1444   17.1833   18.3243 H         1 G55         0.0316
     69 H31        14.2001   18.6709   17.3190 H         1 G55         0.0316
     70 H32        14.7507   24.3057   15.4091 H         1 G55         0.0449
     71 H33        13.2031   24.0104   16.2718 H         1 G55         0.0449
     72 H34        11.7988   22.2347   15.5966 H         1 G55         0.0557
     73 H35        11.4486   20.1238   14.4264 H         1 G55         0.0599
     74 H36        13.2249   19.1223   13.0195 H         1 G55         0.0559
     75 H37        15.4071   20.3093   12.8185 H         1 G55         0.0599
     76 H38        15.8338   22.3476   14.1750 H         1 G55         0.0557
@<TRIPOS>BOND
     1    1    2 1  
     2    4    1 ar 
     3    8    1 ar 
     4    2    3 1  
     5    5    4 ar 
     6    6    5 ar 
     7    6    7 ar 
     8    9    6 1  
     9    7    8 ar 
    10    9   10 2  
    11    9   11 2  
    12   12    9 am 
    13   12   13 1  
    14   17   12 1  
    15   13   14 1  
    16   14   15 1  
    17   14   16 1  
    18   18   17 1  
    19   18   19 1  
    20   20   18 1  
    21   20   21 1  
    22   32   20 1  
    23   21   22 am 
    24   22   23 2  
    25   22   24 1  
    26   24   25 1  
    27   25   26 1  
    28   25   31 1  
    29   26   27 1  
    30   27   28 1  
    31   29   28 1  
    32   30   29 1  
    33   31   30 1  
    34   38   32 1  
    35   33   34 ar 
    36   33   38 ar 
    37   34   35 ar 
    38   35   36 ar 
    39   36   37 ar 
    40   37   38 ar 
    41    3   39 1  
    42    3   40 1  
    43    3   41 1  
    44    4   42 1  
    45    5   43 1  
    46    7   44 1  
    47    8   45 1  
    48   13   46 1  
    49   13   47 1  
    50   14   48 1  
    51   15   49 1  
    52   15   50 1  
    53   15   51 1  
    54   16   52 1  
    55   16   53 1  
    56   16   54 1  
    57   17   55 1  
    58   17   56 1  
    59   18   57 1  
    60   19   58 1  
    61   20   59 1  
    62   21   60 1  
    63   25   61 1  
    64   26   62 1  
    65   26   63 1  
    66   28   64 1  
    67   28   65 1  
    68   30   66 1  
    69   30   67 1  
    70   31   68 1  
    71   31   69 1  
    72   32   70 1  
    73   32   71 1  
    74   33   72 1  
    75   34   73 1  
    76   35   74 1  
    77   36   75 1  
    78   37   76 1  
@<TRIPOS>SUBSTRUCTURE
     1 G55         1

