### 
### Created by X-TOOL on Mon Sep 10 21:12:59 2018
### 

@<TRIPOS>MOLECULE
3dk1_ligand
   80    83     1     0     0
SMALL
GAST_HUCK


@<TRIPOS>ATOM
      1 C2         20.8680   27.7330   14.8850 C.ar      1 G05         0.0908
      2 O39        21.4580   28.9590   14.7130 O.3       1 G05        -0.3212
      3 C40        22.8290   28.9460   15.0250 C.3       1 G05         0.0594
      4 C3         21.4340   26.6140   15.4840 C.ar      1 G05        -0.0313
      5 C4         20.6410   25.5190   15.7310 C.ar      1 G05        -0.0440
      6 C5         19.2830   25.5310   15.4250 C.ar      1 G05         0.0971
      7 C6         18.7090   26.6500   14.8530 C.ar      1 G05        -0.0440
      8 C7         19.5250   27.7590   14.6000 C.ar      1 G05        -0.0313
      9 S8         18.2990   24.1590   15.9000 S.o2      1 G05         0.0657
     10 O9         17.1840   24.0540   14.9470 O.2       1 G05        -0.1515
     11 O10        19.1870   23.0200   16.0500 O.2       1 G05        -0.1515
     12 N11        17.6260   24.4540   17.3920 N.am      1 G05        -0.2325
     13 C12        18.5710   24.7340   18.4620 C.3       1 G05         0.0319
     14 C13        18.2970   24.0360   19.8010 C.3       1 G05        -0.0296
     15 C14        18.3460   22.5130   19.6590 C.3       1 G05        -0.0612
     16 C15        19.3290   24.5420   20.8460 C.3       1 G05        -0.0612
     17 C16        16.3340   25.1440   17.4410 C.3       1 G05         0.0578
     18 C17        15.2320   24.2270   17.9790 C.3       1 G05         0.0967
     19 O18        14.0600   25.0110   18.2740 O.3       1 G05        -0.3877
     20 C19        14.8660   23.0850   17.0340 C.3       1 G05         0.0807
     21 N20        13.9520   22.1820   17.7540 N.am      1 G05        -0.2550
     22 C21        14.2950   20.9940   18.1590 C.2       1 G05         0.3202
     23 O22        15.4020   20.4420   18.0020 O.2       1 G05        -0.3775
     24 O23        13.3030   20.3560   18.8090 O.3       1 G05        -0.2604
     25 C24        13.5610   18.9970   19.2350 C.3       1 G05         0.0930
     26 C25        12.3380   18.6100   20.0800 C.3       1 G05         0.0066
     27 C26        11.3020   18.0090   19.1070 C.3       1 G05         0.0876
     28 O27        10.6550   19.1440   18.4210 O.3       1 G05        -0.3716
     29 C28         9.9330   18.7060   17.2580 C.3       1 G05         0.0715
     30 C29        10.9550   18.1230   16.2780 C.3       1 G05         0.0715
     31 O30        11.5180   16.9510   16.8810 O.3       1 G05        -0.3716
     32 C31        12.1490   17.2850   18.1360 C.3       1 G05         0.0876
     33 C41        13.4480   18.0590   18.0260 C.3       1 G05         0.0066
     34 C32        14.1440   23.5310   15.7810 C.3       1 G05         0.0064
     35 C33        12.5080   21.8350   14.8170 C.ar      1 G05        -0.0603
     36 C34        12.2340   20.6820   14.0940 C.ar      1 G05        -0.0686
     37 C35        13.2230   20.0520   13.3500 C.ar      1 G05        -0.0687
     38 C36        14.5000   20.6090   13.3780 C.ar      1 G05        -0.0686
     39 C37        14.7820   21.7640   14.1240 C.ar      1 G05        -0.0603
     40 C38        13.7850   22.3820   14.8560 C.ar      1 G05        -0.0408
     41 H1         23.2498   29.9504   14.8700 H         1 G05         0.0577
     42 H2         23.3466   28.2270   14.3730 H         1 G05         0.0577
     43 H3         22.9631   28.6505   16.0760 H         1 G05         0.0577
     44 H4         22.4843   26.6050   15.7522 H         1 G05         0.0542
     45 H5         21.0803   24.6312   16.1714 H         1 G05         0.0608
     46 H6         17.6536   26.6687   14.6064 H         1 G05         0.0608
     47 H7         19.0889   28.6541   14.1715 H         1 G05         0.0542
     48 H8         18.5651   25.8193   18.6408 H         1 G05         0.0480
     49 H9         19.5692   24.4243   18.1191 H         1 G05         0.0480
     50 H10        17.2886   24.3140   20.1412 H         1 G05         0.0311
     51 H11        18.1457   22.0471   20.6351 H         1 G05         0.0233
     52 H12        19.3425   22.2095   19.3055 H         1 G05         0.0233
     53 H13        17.5850   22.1876   18.9344 H         1 G05         0.0233
     54 H14        19.2665   25.6376   20.9222 H         1 G05         0.0233
     55 H15        20.3424   24.2537   20.5299 H         1 G05         0.0233
     56 H16        19.1089   24.0932   21.8258 H         1 G05         0.0233
     57 H17        16.0639   25.4709   16.4260 H         1 G05         0.0504
     58 H18        16.4216   26.0219   18.0979 H         1 G05         0.0504
     59 H19        15.5970   23.7797   18.9153 H         1 G05         0.0634
     60 H20        13.7588   25.4389   17.4811 H         1 G05         0.2100
     61 H21        15.7844   22.5511   16.7485 H         1 G05         0.0604
     62 H22        13.0217   22.4976   17.9409 H         1 G05         0.1873
     63 H23        14.5187   18.8970   19.7669 H         1 G05         0.0649
     64 H24        11.9219   19.4997   20.5752 H         1 G05         0.0319
     65 H25        12.6213   17.8664   20.8394 H         1 G05         0.0319
     66 H26        10.5690   17.3557   19.6030 H         1 G05         0.0623
     67 H27         9.4122   19.5575   16.7958 H         1 G05         0.0583
     68 H28         9.1994   17.9359   17.5386 H         1 G05         0.0583
     69 H29        11.7473   18.8600   16.0805 H         1 G05         0.0583
     70 H30        10.4584   17.8564   15.3334 H         1 G05         0.0583
     71 H31        12.3967   16.3168   18.5955 H         1 G05         0.0623
     72 H32        14.2969   17.3595   18.0186 H         1 G05         0.0319
     73 H33        13.4507   18.6488   17.0975 H         1 G05         0.0319
     74 H34        14.7931   24.2305   15.2338 H         1 G05         0.0449
     75 H35        13.2172   24.0450   16.0758 H         1 G05         0.0449
     76 H36        11.7074   22.3199   15.3638 H         1 G05         0.0557
     77 H37        11.2327   20.2671   14.1104 H         1 G05         0.0599
     78 H38        13.0098   19.1614   12.7699 H         1 G05         0.0559
     79 H39        15.2947   20.1390   12.8100 H         1 G05         0.0599
     80 H40        15.7858   22.1733   14.1263 H         1 G05         0.0557
@<TRIPOS>BOND
     1    1    2 1  
     2    4    1 ar 
     3    8    1 ar 
     4    2    3 1  
     5    5    4 ar 
     6    6    5 ar 
     7    6    7 ar 
     8    9    6 1  
     9    7    8 ar 
    10    9   10 2  
    11    9   11 2  
    12   12    9 am 
    13   12   13 1  
    14   17   12 1  
    15   13   14 1  
    16   14   15 1  
    17   14   16 1  
    18   18   17 1  
    19   18   19 1  
    20   20   18 1  
    21   20   21 1  
    22   34   20 1  
    23   21   22 am 
    24   22   23 2  
    25   22   24 1  
    26   24   25 1  
    27   25   26 1  
    28   25   33 1  
    29   26   27 1  
    30   27   28 1  
    31   32   27 1  
    32   28   29 1  
    33   30   29 1  
    34   31   30 1  
    35   32   31 1  
    36   33   32 1  
    37   40   34 1  
    38   35   36 ar 
    39   35   40 ar 
    40   36   37 ar 
    41   37   38 ar 
    42   38   39 ar 
    43   39   40 ar 
    44    3   41 1  
    45    3   42 1  
    46    3   43 1  
    47    4   44 1  
    48    5   45 1  
    49    7   46 1  
    50    8   47 1  
    51   13   48 1  
    52   13   49 1  
    53   14   50 1  
    54   15   51 1  
    55   15   52 1  
    56   15   53 1  
    57   16   54 1  
    58   16   55 1  
    59   16   56 1  
    60   17   57 1  
    61   17   58 1  
    62   18   59 1  
    63   19   60 1  
    64   20   61 1  
    65   21   62 1  
    66   25   63 1  
    67   26   64 1  
    68   26   65 1  
    69   27   66 1  
    70   29   67 1  
    71   29   68 1  
    72   30   69 1  
    73   30   70 1  
    74   32   71 1  
    75   33   72 1  
    76   33   73 1  
    77   34   74 1  
    78   34   75 1  
    79   35   76 1  
    80   36   77 1  
    81   37   78 1  
    82   38   79 1  
    83   39   80 1  
@<TRIPOS>SUBSTRUCTURE
     1 G05         1

