### 
### Created by X-TOOL on Mon Sep 10 21:13:00 2018
### 

@<TRIPOS>MOLECULE
3dkf_ligand
   39    43     1     0     0
SMALL
GAST_HUCK


@<TRIPOS>ATOM
      1 C7         16.1770   16.6930  139.1080 C.2       1 SX8         0.0052
      2 C6         15.3490   15.8170  139.6870 C.2       1 SX8        -0.0226
      3 C1         11.5950   12.4340  141.7610 C.3       1 SX8         0.0621
      4 N1         12.7910   12.6200  140.9690 N.pl3     1 SX8        -0.2036
      5 C5         15.4570   14.3870  139.2780 C.2       1 SX8         0.0765
      6 C4         14.4450   12.0770  139.7750 C.2       1 SX8         0.0096
      7 C3         14.5110   13.4900  139.8990 C.2       1 SX8         0.0255
      8 C2         13.3970   13.7970  140.6670 C.2       1 SX8         0.0690
      9 N2         13.4100   11.5550  140.4360 N.2       1 SX8        -0.2122
     10 N7         16.2740   13.9050  138.3740 N.2       1 SX8        -0.1492
     11 N6         17.0770   14.8770  137.8370 N.pl3     1 SX8        -0.0948
     12 C8         17.0800   16.2320  138.1310 C.2       1 SX8         0.1770
     13 C9         18.0420   14.7460  136.8870 C.2       1 SX8         0.2458
     14 N4         18.5820   15.9090  136.6090 N.2       1 SX8        -0.2567
     15 N3         17.9680   16.8550  137.3940 N.2       1 SX8        -0.2783
     16 S1         18.4230   13.2250  136.1540 S.3       1 SX8         0.0186
     17 C10        19.1740   12.3010  137.4730 C.ar      1 SX8         0.0426
     18 C18        18.5560   11.1600  138.0010 C.ar      1 SX8        -0.0335
     19 C17        19.2000   10.4400  139.0340 C.ar      1 SX8         0.0005
     20 C13        20.4710   10.8540  139.5240 C.ar      1 SX8         0.0426
     21 C12        21.0540   11.9920  138.9760 C.ar      1 SX8        -0.0407
     22 C11        20.4240   12.7060  137.9480 C.ar      1 SX8        -0.0381
     23 C16        18.6280    9.2970  139.6090 C.ar      1 SX8        -0.0380
     24 C15        19.3080    8.6210  140.6270 C.ar      1 SX8        -0.0341
     25 C14        20.5410    9.0990  141.0410 C.ar      1 SX8         0.0084
     26 N5         21.1250   10.1970  140.5150 N.ar      1 SX8        -0.2982
     27 H          16.1533   17.7462  139.3877 H         1 SX8         0.0750
     28 H          14.6205   16.1370  140.4320 H         1 SX8         0.0704
     29 H          11.7598   12.8283  142.7637 H         1 SX8         0.0609
     30 H          10.7649   12.9632  141.2930 H         1 SX8         0.0609
     31 H          11.3622   11.3708  141.8210 H         1 SX8         0.0609
     32 H          15.1599   11.4849  139.2037 H         1 SX8         0.0683
     33 H          13.0709   14.7920  140.9698 H         1 SX8         0.1068
     34 H          17.5894   10.8307  137.6198 H         1 SX8         0.0575
     35 H          22.0178   12.3343  139.3529 H         1 SX8         0.0640
     36 H          20.9110   13.5808  137.5172 H         1 SX8         0.0633
     37 H          17.6585    8.9370  139.2647 H         1 SX8         0.0752
     38 H          18.8752    7.7327  141.0872 H         1 SX8         0.0687
     39 H          21.0658    8.5617  141.8309 H         1 SX8         0.0846
@<TRIPOS>BOND
     1    2    1 2  
     2    1   12 1  
     3    5    2 1  
     4    4    3 1  
     5    4    8 1  
     6    9    4 1  
     7    7    5 1  
     8    5   10 2  
     9    6    7 1  
    10    6    9 2  
    11    7    8 2  
    12   10   11 1  
    13   11   12 1  
    14   11   13 1  
    15   12   15 2  
    16   13   14 2  
    17   13   16 1  
    18   14   15 1  
    19   16   17 1  
    20   17   18 ar 
    21   17   22 ar 
    22   18   19 ar 
    23   19   20 ar 
    24   19   23 ar 
    25   20   21 ar 
    26   20   26 ar 
    27   21   22 ar 
    28   23   24 ar 
    29   24   25 ar 
    30   25   26 ar 
    31    1   27 1  
    32    2   28 1  
    33    3   29 1  
    34    3   30 1  
    35    3   31 1  
    36    6   32 1  
    37    8   33 1  
    38   18   34 1  
    39   21   35 1  
    40   22   36 1  
    41   23   37 1  
    42   24   38 1  
    43   25   39 1  
@<TRIPOS>SUBSTRUCTURE
     1 SX8         1

