### 
### Created by X-TOOL on Mon Sep 10 21:13:00 2018
### 

@<TRIPOS>MOLECULE
3dkg_ligand
   39    43     1     0     0
SMALL
GAST_HUCK


@<TRIPOS>ATOM
      1 C7         16.1870   16.5270   60.1180 C.2       1 SX8         0.0052
      2 C6         15.3670   15.6630   60.7380 C.2       1 SX8        -0.0226
      3 C1         11.6460   12.1020   62.8620 C.3       1 SX8         0.0621
      4 N1         12.8660   12.3510   62.1220 N.pl3     1 SX8        -0.2036
      5 C5         15.4430   14.2210   60.3410 C.2       1 SX8         0.0765
      6 C4         14.6700   11.8950   61.1400 C.2       1 SX8         0.0096
      7 C3         14.5330   13.3040   61.0180 C.2       1 SX8         0.0255
      8 C2         13.3360   13.5550   61.6710 C.2       1 SX8         0.0690
      9 N2         13.6660   11.3240   61.8060 N.2       1 SX8        -0.2122
     10 N7         16.2420   13.7300   59.4300 N.2       1 SX8        -0.1492
     11 N6         17.0620   14.6850   58.8530 N.pl3     1 SX8        -0.0948
     12 C8         17.0690   16.0540   59.1200 C.2       1 SX8         0.1770
     13 C9         18.0170   14.5340   57.8720 C.2       1 SX8         0.2458
     14 N4         18.5470   15.7090   57.5700 N.2       1 SX8        -0.2567
     15 N3         17.9340   16.6740   58.3420 N.2       1 SX8        -0.2783
     16 S1         18.4010   13.0120   57.1090 S.3       1 SX8         0.0186
     17 C10        19.3050   12.1180   58.3550 C.ar      1 SX8         0.0426
     18 C18        18.6930   11.0310   58.9870 C.ar      1 SX8        -0.0335
     19 C17        19.4020   10.3110   59.9720 C.ar      1 SX8         0.0005
     20 C13        20.7340   10.6720   60.3160 C.ar      1 SX8         0.0426
     21 C12        21.3290   11.7570   59.6640 C.ar      1 SX8        -0.0407
     22 C11        20.6250   12.4810   58.6820 C.ar      1 SX8        -0.0381
     23 C16        18.8220    9.2190   60.6460 C.ar      1 SX8        -0.0380
     24 C15        19.5430    8.5210   61.6170 C.ar      1 SX8        -0.0341
     25 C14        20.8300    8.9410   61.8790 C.ar      1 SX8         0.0084
     26 N5         21.4290    9.9810   61.2490 N.ar      1 SX8        -0.2982
     27 H          16.1725   17.5844   60.3822 H         1 SX8         0.0750
     28 H          14.6693   16.0000   61.5047 H         1 SX8         0.0704
     29 H          11.6720   12.6564   63.8001 H         1 SX8         0.0609
     30 H          10.7906   12.4273   62.2699 H         1 SX8         0.0609
     31 H          11.5605   11.0356   63.0709 H         1 SX8         0.0609
     32 H          15.5117   11.3368   60.7301 H         1 SX8         0.0683
     33 H          12.8595   14.5267   61.8007 H         1 SX8         0.1068
     34 H          17.6762   10.7421   58.7208 H         1 SX8         0.0575
     35 H          22.3488   12.0455   59.9186 H         1 SX8         0.0640
     36 H          21.1016   13.3208   58.1763 H         1 SX8         0.0633
     37 H          17.8023    8.9163   60.4079 H         1 SX8         0.0752
     38 H          19.1049    7.6759   62.1479 H         1 SX8         0.0687
     39 H          21.3996    8.4047   62.6380 H         1 SX8         0.0846
@<TRIPOS>BOND
     1    2    1 2  
     2    1   12 1  
     3    5    2 1  
     4    4    3 1  
     5    4    8 1  
     6    9    4 1  
     7    7    5 1  
     8    5   10 2  
     9    6    7 1  
    10    6    9 2  
    11    7    8 2  
    12   10   11 1  
    13   11   12 1  
    14   11   13 1  
    15   12   15 2  
    16   13   14 2  
    17   13   16 1  
    18   14   15 1  
    19   16   17 1  
    20   17   18 ar 
    21   17   22 ar 
    22   18   19 ar 
    23   19   20 ar 
    24   19   23 ar 
    25   20   21 ar 
    26   20   26 ar 
    27   21   22 ar 
    28   23   24 ar 
    29   24   25 ar 
    30   25   26 ar 
    31    1   27 1  
    32    2   28 1  
    33    3   29 1  
    34    3   30 1  
    35    3   31 1  
    36    6   32 1  
    37    8   33 1  
    38   18   34 1  
    39   21   35 1  
    40   22   36 1  
    41   23   37 1  
    42   24   38 1  
    43   25   39 1  
@<TRIPOS>SUBSTRUCTURE
     1 SX8         1

