### 
### Created by X-TOOL on Mon Sep 10 21:12:58 2018
### 

@<TRIPOS>MOLECULE
3dln_ligand
   18    17     1     0     0
SMALL
GAST_HUCK


@<TRIPOS>ATOM
      1 N          20.8060   20.6780   13.3580 N.4       1 GLU         0.2328
      2 CA         20.5700   19.3760   14.0530 C.3       1 GLU         0.0298
      3 C          19.0780   19.0650   14.1280 C.2       1 GLU         0.0845
      4 O          18.7220   18.0340   14.7270 O.co2     1 GLU        -0.5643
      5 CB         21.1630   19.4190   15.4660 C.3       1 GLU         0.0139
      6 CG         22.6820   19.3170   15.5080 C.3       1 GLU         0.0069
      7 CD         23.1860   17.9140   15.2380 C.2       1 GLU         0.0351
      8 OE1        24.3900   17.7610   14.9340 O.co2     1 GLU        -0.5690
      9 OE2        22.3870   16.9570   15.3430 O.co2     1 GLU        -0.5690
     10 OXT        18.2850   19.8640   13.5810 O.co2     1 GLU        -0.5643
     11 H1         21.7960   20.8637   13.3195 H         1 GLU         0.2010
     12 H2         20.3449   21.4176   13.8644 H         1 GLU         0.2010
     13 H3         20.4364   20.6308   12.4214 H         1 GLU         0.2010
     14 H4         21.0682   18.5779   13.4830 H         1 GLU         0.1025
     15 H5         20.7448   18.5801   16.0415 H         1 GLU         0.0356
     16 H6         20.8678   20.3690   15.9354 H         1 GLU         0.0356
     17 H7         23.0273   19.6282   16.5049 H         1 GLU         0.0433
     18 H8         23.1004   19.9927   14.7475 H         1 GLU         0.0433
@<TRIPOS>BOND
     1    1    2 1  
     2    2    3 1  
     3    2    5 1  
     4    3    4 ar 
     5    3   10 ar 
     6    5    6 1  
     7    6    7 1  
     8    7    8 ar 
     9    7    9 ar 
    10    1   11 1  
    11    1   12 1  
    12    1   13 1  
    13    2   14 1  
    14    5   15 1  
    15    5   16 1  
    16    6   17 1  
    17    6   18 1  
@<TRIPOS>SUBSTRUCTURE
     1 GLU         1

