### 
### Created by X-TOOL on Mon Sep 10 21:12:59 2018
### 

@<TRIPOS>MOLECULE
3dm6_ligand
  105   108     1     0     0
SMALL
GAST_HUCK


@<TRIPOS>ATOM
      1 O11         2.5070   17.7160   30.2080 O.2       1 757        -0.3845
      2 C10         1.6370   17.2530   30.9560 C.2       1 757         0.2041
      3 N8          0.3680   17.6180   30.7880 N.am      1 757        -0.2723
      4 C7         -0.0850   18.4220   29.6770 C.3       1 757         0.0723
      5 C6         -0.5080   17.5060   28.5660 C.ar      1 757        -0.0183
      6 C5         -1.5590   16.5910   28.7170 C.ar      1 757        -0.0582
      7 C4         -1.9480   15.7490   27.6660 C.ar      1 757        -0.0685
      8 C3         -1.2600   15.7920   26.4430 C.ar      1 757        -0.0687
      9 C2         -0.1940   16.6920   26.2810 C.ar      1 757        -0.0685
     10 C1          0.1750   17.5420   27.3320 C.ar      1 757        -0.0582
     11 C9         -1.2020   19.3420   30.1490 C.3       1 757        -0.0320
     12 C12         2.0320   16.3190   32.0750 C.ar      1 757         0.0398
     13 C13         3.2330   15.5890   32.0180 C.ar      1 757        -0.0214
     14 C14         3.6140   14.7240   33.0400 C.ar      1 757         0.0754
     15 N21         4.8280   14.0030   32.9710 N.am      1 757        -0.1796
     16 C22         5.5170   13.7230   34.2220 C.3       1 757         0.0445
     17 S23         5.5280   13.5200   31.6770 S.o2      1 757         0.0593
     18 O26         4.6050   13.3760   30.5500 O.2       1 757        -0.1500
     19 C24         6.7020   14.6350   31.2640 C.3       1 757         0.0790
     20 O25         6.2090   12.2740   31.9700 O.2       1 757        -0.1500
     21 C15         2.7830   14.6220   34.1570 C.ar      1 757        -0.0214
     22 C17         1.2290   16.1880   33.1910 C.ar      1 757        -0.0393
     23 C16         1.5870   15.3350   34.2360 C.ar      1 757         0.0397
     24 C18         0.6470   15.2960   35.4290 C.2       1 757         0.2024
     25 O19         1.1170   15.3350   36.5570 O.2       1 757        -0.3847
     26 N29        -0.6690   15.2860   35.2020 N.am      1 757        -0.2780
     27 C30        -1.7340   15.3410   36.1830 C.3       1 757         0.0970
     28 C31        -2.7450   16.3920   35.7030 C.3       1 757         0.0956
     29 O32        -2.2890   17.2960   34.6830 O.3       1 757        -0.3176
     30 C33        -1.4560   18.3860   34.8690 C.ar      1 757         0.0876
     31 C34        -0.9080   18.6450   36.1170 C.ar      1 757        -0.0041
     32 C35        -0.0540   19.7220   36.3250 C.ar      1 757         0.1223
     33 F40         0.4330   19.9170   37.5520 F         1 757        -0.1874
     34 C36         0.2730   20.5870   35.2940 C.ar      1 757        -0.0061
     35 C37        -0.2630   20.3470   34.0380 C.ar      1 757         0.1223
     36 F39         0.0750   21.1950   33.0400 F         1 757        -0.1874
     37 C38        -1.1280   19.2580   33.8220 C.ar      1 757        -0.0041
     38 C41        -2.5270   14.0720   36.4140 C.3       1 757         0.0971
     39 O42        -2.8590   13.5780   35.1130 O.3       1 757        -0.3871
     40 C43        -1.7820   13.0560   37.3060 C.3       1 757         0.0656
     41 C44        -1.6690   13.4810   38.7790 C.2       1 757         0.1808
     42 O45        -0.6950   14.1400   39.1130 O.2       1 757        -0.3968
     43 N46        -2.5780   13.1710   39.7350 N.am      1 757        -0.2648
     44 C47        -2.3680   13.5850   41.1320 C.3       1 757         0.1389
     45 C48        -3.4660   13.3100   42.1690 C.3       1 757        -0.0058
     46 C49        -3.6660   14.5510   43.0450 C.3       1 757        -0.0584
     47 C50        -4.7750   12.8150   41.6000 C.3       1 757        -0.0584
     48 C51        -1.2160   12.8660   41.7780 C.2       1 757         0.2294
     49 O52        -1.0470   11.6730   41.5840 O.2       1 757        -0.3824
     50 N53        -0.4340   13.5530   42.6200 N.am      1 757        -0.2310
     51 C54         0.6050   12.9770   43.2270 C.ar      1 757         0.0732
     52 C59         1.8490   13.0560   42.6320 C.ar      1 757        -0.0246
     53 C58         2.9640   12.4680   43.2140 C.ar      1 757         0.0002
     54 C63         4.2740   12.6140   42.4790 C.2       1 757         0.0600
     55 O64         4.3420   12.2550   41.2780 O.co2     1 757        -0.5608
     56 O65         5.2710   13.1250   43.0460 O.co2     1 757        -0.5608
     57 C55         0.4340   12.3090   44.4130 C.ar      1 757        -0.0246
     58 C56         1.5300   11.7180   45.0070 C.ar      1 757         0.0002
     59 C57         2.8050   11.7830   44.4280 C.ar      1 757        -0.0488
     60 C60         1.2540   11.0080   46.2860 C.2       1 757         0.0600
     61 O62         0.9000   11.6810   47.2850 O.co2     1 757        -0.5608
     62 O61         1.3500    9.7560   46.3140 O.co2     1 757        -0.5608
     63 H1         -0.3054   17.3207   31.4649 H         1 757         0.1875
     64 H2          0.7473   19.0447   29.3171 H         1 757         0.0716
     65 H3         -2.0812   16.5334   29.6652 H         1 757         0.0557
     66 H4         -2.7790   15.0655   27.7974 H         1 757         0.0599
     67 H5         -1.5492   15.1358   25.6301 H         1 757         0.0559
     68 H6          0.3444   16.7291   25.3409 H         1 757         0.0599
     69 H7          0.9961   18.2364   27.1952 H         1 757         0.0557
     70 H8         -1.5511   19.9570   29.3065 H         1 757         0.0274
     71 H9         -0.8249   19.9961   30.9489 H         1 757         0.0274
     72 H10        -2.0373   18.7377   30.5326 H         1 757         0.0274
     73 H11         3.8792   15.7031   31.1551 H         1 757         0.0566
     74 H12         4.9238   14.1125   35.0624 H         1 757         0.0517
     75 H13         6.5039   14.2086   34.2137 H         1 757         0.0517
     76 H14         5.6440   12.6363   34.3354 H         1 757         0.0517
     77 H15         7.2110   14.3082   30.3453 H         1 757         0.0487
     78 H16         7.4348   14.7154   32.0804 H         1 757         0.0487
     79 H17         6.2331   15.6154   31.0943 H         1 757         0.0487
     80 H18         3.0727   13.9766   34.9783 H         1 757         0.0566
     81 H19         0.3078   16.7556   33.2562 H         1 757         0.0576
     82 H20        -0.9522   15.2346   34.2443 H         1 757         0.1850
     83 H21        -1.2939   15.6492   37.1428 H         1 757         0.0610
     84 H22        -3.0426   16.9932   36.5747 H         1 757         0.0638
     85 H23        -3.6222   15.8577   35.3093 H         1 757         0.0638
     86 H24        -1.1511   17.9931   36.9483 H         1 757         0.0493
     87 H25         0.9317   21.4308   35.4648 H         1 757         0.0497
     88 H26        -1.5450   19.0919   32.8353 H         1 757         0.0493
     89 H27        -3.4610   14.3314   36.9340 H         1 757         0.0642
     90 H28        -3.3611   12.7761   35.1986 H         1 757         0.2101
     91 H29        -0.7661   12.9239   36.9054 H         1 757         0.0529
     92 H30        -2.3207   12.0979   37.2630 H         1 757         0.0529
     93 H31        -3.3993   12.6561   39.4892 H         1 757         0.1883
     94 H32        -2.1714   14.6670   41.1069 H         1 757         0.0808
     95 H33        -3.0903   12.5067   42.8198 H         1 757         0.0343
     96 H34        -4.4529   14.3527   43.7876 H         1 757         0.0235
     97 H35        -3.9634   15.4013   42.4138 H         1 757         0.0235
     98 H36        -2.7253   14.7899   43.5626 H         1 757         0.0235
     99 H37        -4.5919   11.9259   40.9787 H         1 757         0.0235
    100 H38        -5.2294   13.6052   40.9843 H         1 757         0.0235
    101 H39        -5.4568   12.5533   42.4226 H         1 757         0.0235
    102 H40        -0.6326   14.5169   42.7974 H         1 757         0.2257
    103 H41         1.9568   13.5870   41.6931 H         1 757         0.0556
    104 H42        -0.5446   12.2467   44.8751 H         1 757         0.0556
    105 H43         3.6539   11.3119   44.9102 H         1 757         0.0555
@<TRIPOS>BOND
     1    1    2 2  
     2    2    3 am 
     3    2   12 1  
     4    3    4 1  
     5    4    5 1  
     6    4   11 1  
     7    5    6 ar 
     8    5   10 ar 
     9    6    7 ar 
    10    7    8 ar 
    11    8    9 ar 
    12    9   10 ar 
    13   12   13 ar 
    14   12   22 ar 
    15   13   14 ar 
    16   14   15 1  
    17   14   21 ar 
    18   15   16 1  
    19   15   17 am 
    20   17   18 2  
    21   17   19 1  
    22   17   20 2  
    23   21   23 ar 
    24   22   23 ar 
    25   23   24 1  
    26   24   25 2  
    27   24   26 am 
    28   26   27 1  
    29   27   28 1  
    30   27   38 1  
    31   28   29 1  
    32   29   30 1  
    33   30   31 ar 
    34   30   37 ar 
    35   31   32 ar 
    36   32   33 1  
    37   32   34 ar 
    38   34   35 ar 
    39   35   36 1  
    40   35   37 ar 
    41   38   39 1  
    42   38   40 1  
    43   40   41 1  
    44   41   42 2  
    45   41   43 am 
    46   43   44 1  
    47   44   45 1  
    48   44   48 1  
    49   45   46 1  
    50   45   47 1  
    51   48   49 2  
    52   48   50 am 
    53   50   51 1  
    54   51   52 ar 
    55   51   57 ar 
    56   52   53 ar 
    57   53   54 1  
    58   53   59 ar 
    59   54   55 ar 
    60   54   56 ar 
    61   57   58 ar 
    62   58   59 ar 
    63   58   60 1  
    64   60   61 ar 
    65   60   62 ar 
    66    3   63 1  
    67    4   64 1  
    68    6   65 1  
    69    7   66 1  
    70    8   67 1  
    71    9   68 1  
    72   10   69 1  
    73   11   70 1  
    74   11   71 1  
    75   11   72 1  
    76   13   73 1  
    77   16   74 1  
    78   16   75 1  
    79   16   76 1  
    80   19   77 1  
    81   19   78 1  
    82   19   79 1  
    83   21   80 1  
    84   22   81 1  
    85   26   82 1  
    86   27   83 1  
    87   28   84 1  
    88   28   85 1  
    89   31   86 1  
    90   34   87 1  
    91   37   88 1  
    92   38   89 1  
    93   39   90 1  
    94   40   91 1  
    95   40   92 1  
    96   43   93 1  
    97   44   94 1  
    98   45   95 1  
    99   46   96 1  
   100   46   97 1  
   101   46   98 1  
   102   47   99 1  
   103   47  100 1  
   104   47  101 1  
   105   50  102 1  
   106   52  103 1  
   107   57  104 1  
   108   59  105 1  
@<TRIPOS>SUBSTRUCTURE
     1 757         1

