### 
### Created by X-TOOL on Mon Sep 10 21:13:00 2018
### 

@<TRIPOS>MOLECULE
3dnd_ligand
   23    24     1     0     0
SMALL
GAST_HUCK


@<TRIPOS>ATOM
      1 C8          8.9100    9.9830    3.0430 C.ar      1 LL2        -0.0586
      2 C11         9.6680    8.9910    2.3900 C.ar      1 LL2        -0.0683
      3 C13        10.1440    7.8730    3.0960 C.ar      1 LL2        -0.0686
      4 C12         9.8370    7.8050    4.4640 C.ar      1 LL2        -0.0683
      5 C9          9.0870    8.7970    5.1390 C.ar      1 LL2        -0.0586
      6 C5          8.6130    9.9080    4.4230 C.ar      1 LL2        -0.0326
      7 C2          7.7840   11.0150    5.1230 C.3       1 LL2         0.0191
      8 C1          6.2950   10.8290    4.7470 C.2       1 LL2         0.0262
      9 S4          5.8850   10.8230    3.1450 S.3       1 LL2         0.0185
     10 C3          5.1430   10.6460    5.4710 C.2       1 LL2        -0.0456
     11 N6          3.9720   10.4870    4.7480 N.2       1 LL2        -0.3366
     12 C7          4.1890   10.5520    3.3970 C.2       1 LL2         0.1694
     13 N10         3.2970   10.4440    2.4100 N.pl3     1 LL2        -0.3030
     14 H1          8.5441   10.8279    2.4708 H         1 LL2         0.0559
     15 H2          9.8861    9.0911    1.3329 H         1 LL2         0.0599
     16 H3         10.7223    7.0980    2.6061 H         1 LL2         0.0560
     17 H4         10.1915    6.9515    5.0306 H         1 LL2         0.0599
     18 H5          8.8803    8.7002    6.1987 H         1 LL2         0.0559
     19 H6          8.1298   12.0043    4.7886 H         1 LL2         0.0578
     20 H7          7.9037   10.9340    6.2135 H         1 LL2         0.0578
     21 H8          5.1494   10.6268    6.5598 H         1 LL2         0.0362
     22 H9          2.3035   10.2831    2.6290 H         1 LL2         0.1837
     23 H10         3.6021   10.5216    1.4293 H         1 LL2         0.1837
@<TRIPOS>BOND
     1    1    2 ar 
     2    1    6 ar 
     3    2    3 ar 
     4    3    4 ar 
     5    4    5 ar 
     6    5    6 ar 
     7    6    7 1  
     8    7    8 1  
     9    8    9 1  
    10    8   10 2  
    11    9   12 1  
    12   10   11 1  
    13   11   12 2  
    14   12   13 1  
    15    1   14 1  
    16    2   15 1  
    17    3   16 1  
    18    4   17 1  
    19    5   18 1  
    20    7   19 1  
    21    7   20 1  
    22   10   21 1  
    23   13   22 1  
    24   13   23 1  
@<TRIPOS>SUBSTRUCTURE
     1 LL2         1

