### 
### Created by X-TOOL on Mon Sep 10 21:13:00 2018
### 

@<TRIPOS>MOLECULE
3dne_ligand
   24    26     1     0     0
SMALL
GAST_HUCK


@<TRIPOS>ATOM
      1 C4          8.1770   10.4530    3.5880 C.ar      1 LL1         0.0203
      2 C5          8.4900   10.9060    4.8980 C.ar      1 LL1        -0.0629
      3 C6          9.8320   11.1480    5.3000 C.ar      1 LL1        -0.0719
      4 C1         10.8840   10.9750    4.3630 C.ar      1 LL1        -0.0699
      5 C2         10.5770   10.5050    3.0310 C.ar      1 LL1        -0.0341
      6 C3          9.2460   10.2780    2.6400 C.ar      1 LL1         0.0915
      7 N11         8.6750    9.9220    1.4520 N.pl3     1 LL1        -0.2081
      8 N12         7.4230    9.8510    1.6070 N.2       1 LL1        -0.1893
      9 C13         6.9890   10.1560    2.8550 C.2       1 LL1         0.0757
     10 C14         5.6030   10.1850    3.2950 C.ar      1 LL1         0.0096
     11 C15         4.5770   10.2690    2.3320 C.ar      1 LL1        -0.0283
     12 C16         3.2090   10.2580    2.6860 C.ar      1 LL1         0.0084
     13 N17         2.9070   10.2090    4.0030 N.ar      1 LL1        -0.3008
     14 C18         3.7950   10.1120    5.0010 C.ar      1 LL1         0.0084
     15 C19         5.2030   10.0990    4.6690 C.ar      1 LL1        -0.0283
     16 H1          7.6869   11.0709    5.6072 H         1 LL1         0.0592
     17 H2         10.0501   11.4622    6.3143 H         1 LL1         0.0535
     18 H3         11.9080   11.1933    4.6437 H         1 LL1         0.0581
     19 H4         11.3812   10.3258    2.3266 H         1 LL1         0.0563
     20 H5          9.1816    9.7410    0.5737 H         1 LL1         0.2492
     21 H6          4.8465   10.3446    1.2847 H         1 LL1         0.0701
     22 H7          2.4318   10.2877    1.9309 H         1 LL1         0.0815
     23 H8          3.4668   10.0449    6.0319 H         1 LL1         0.0815
     24 H9          5.9489   10.0249    5.4521 H         1 LL1         0.0701
@<TRIPOS>BOND
     1    1    2 ar 
     2    1    6 ar 
     3    1    9 1  
     4    2    3 ar 
     5    3    4 ar 
     6    4    5 ar 
     7    5    6 ar 
     8    6    7 1  
     9    7    8 1  
    10    8    9 2  
    11    9   10 1  
    12   10   11 ar 
    13   10   15 ar 
    14   11   12 ar 
    15   12   13 ar 
    16   13   14 ar 
    17   14   15 ar 
    18    2   16 1  
    19    3   17 1  
    20    4   18 1  
    21    5   19 1  
    22    7   20 1  
    23   11   21 1  
    24   12   22 1  
    25   14   23 1  
    26   15   24 1  
@<TRIPOS>SUBSTRUCTURE
     1 LL1         1

