### 
### Created by X-TOOL on Mon Sep 10 21:13:01 2018
### 

@<TRIPOS>MOLECULE
3dng_ligand
   54    58     1     0     0
SMALL
GAST_HUCK


@<TRIPOS>ATOM
      1 CAH         9.2080   -4.3840   31.6160 C.ar      1 AXA        -0.0459
      2 CAY         9.0470   -3.0500   31.2610 C.ar      1 AXA         0.0902
      3 N1          8.8550   -2.0900   32.2610 N.am      1 AXA        -0.2357
      4 CAV         8.7630   -0.7460   31.8870 C.2       1 AXA         0.2310
      5 OAC         8.5490    0.1250   32.7290 O.2       1 AXA        -0.3833
      6 CAM         8.9080   -0.4250   30.5420 C.3       1 AXA         0.1597
      7 OAS         8.6610   -1.4260   29.5420 O.3       1 AXA        -0.3078
      8 CAZ         9.0330   -2.6800   29.9200 C.ar      1 AXA         0.1086
      9 CAG         9.2260   -3.6470   28.9380 C.ar      1 AXA        -0.0522
     10 CAF         9.4020   -4.9790   29.2940 C.ar      1 AXA        -0.0825
     11 CAX         9.3860   -5.3520   30.6340 C.ar      1 AXA        -0.0456
     12 CAL         9.5610   -6.8180   31.0350 C.3       1 AXA         0.0565
     13 N2          9.6780   -7.6380   29.8210 N.am      1 AXA        -0.2684
     14 CAW        10.8340   -7.7920   29.1810 C.2       1 AXA         0.2724
     15 OAD        11.8880   -7.2450   29.5020 O.2       1 AXA        -0.3641
     16 CBB        10.7490   -8.6630   27.9280 C.2       1 AXA         0.2375
     17 N3          9.5640   -9.1650   27.5570 N.2       1 AXA        -0.2628
     18 N4         11.8400   -8.7350   27.0560 N.am      1 AXA        -0.1955
     19 CBD        11.6630   -9.2950   25.7860 C.2       1 AXA         0.2125
     20 OAE        12.6230   -9.3560   25.0190 O.2       1 AXA        -0.4052
     21 CBF        10.4140   -9.7760   25.4050 C.2       1 AXA         0.0465
     22 CBC        10.0270  -10.2690   24.1580 C.2       1 AXA        -0.0434
     23 CBE         9.3840   -9.7010   26.3420 C.2       1 AXA         0.0846
     24 SAT         7.9740  -10.3020   25.5820 S.3       1 AXA        -0.0312
     25 CBA         8.6810  -10.6240   24.0550 C.2       1 AXA         0.0089
     26 CAJ         8.0040  -11.1580   22.7910 C.3       1 AXA        -0.0155
     27 CAI         8.8500  -10.8460   21.5560 C.3       1 AXA        -0.0426
     28 CAK        10.2930  -11.2640   21.8420 C.3       1 AXA        -0.0419
     29 CBG        10.9070  -10.3530   22.9060 C.3       1 AXA        -0.0079
     30 CAN        11.0690   -8.9430   22.3320 C.3       1 AXA         0.0443
     31 CAU        11.9610   -8.9220   21.0880 C.2       1 AXA         0.1750
     32 OAB        11.6270   -8.2970   20.0830 O.2       1 AXA        -0.3971
     33 N5         13.0970   -9.6060   21.1900 N.am      1 AXA        -0.3008
     34 H1          9.1948   -4.6705   32.6614 H         1 AXA         0.0408
     35 H2          8.7852   -2.3593   33.2215 H         1 AXA         0.2223
     36 H3          9.9454   -0.0859   30.4047 H         1 AXA         0.0855
     37 H4          8.2197    0.4080   30.3366 H         1 AXA         0.0855
     38 H5          9.2391   -3.3606   27.8926 H         1 AXA         0.0479
     39 H6          9.5521   -5.7288   28.5257 H         1 AXA         0.0402
     40 H7          8.6887   -7.1468   31.6189 H         1 AXA         0.0660
     41 H8         10.4714   -6.9275   31.6426 H         1 AXA         0.0660
     42 H9          8.8628   -8.0947   29.4648 H         1 AXA         0.1879
     43 H10        12.7358   -8.3904   27.3367 H         1 AXA         0.2538
     44 H11         7.0168  -10.6851   22.6821 H         1 AXA         0.0416
     45 H12         7.8810  -12.2475   22.8793 H         1 AXA         0.0416
     46 H13         8.8110   -9.7678   21.3415 H         1 AXA         0.0288
     47 H14         8.4654  -11.4061   20.6909 H         1 AXA         0.0288
     48 H15        10.8828  -11.1900   20.9164 H         1 AXA         0.0285
     49 H16        10.3054  -12.3031   22.2026 H         1 AXA         0.0285
     50 H17        11.8934  -10.7503   23.1875 H         1 AXA         0.0412
     51 H18        11.5187   -8.2974   23.1008 H         1 AXA         0.0519
     52 H19        10.0759   -8.5546   22.0619 H         1 AXA         0.0519
     53 H20        13.7319   -9.6389   20.4181 H         1 AXA         0.1814
     54 H21        13.3163  -10.0874   22.0386 H         1 AXA         0.1814
@<TRIPOS>BOND
     1    1    2 ar 
     2    1   11 ar 
     3    2    3 1  
     4    2    8 ar 
     5    3    4 am 
     6    4    5 2  
     7    4    6 1  
     8    6    7 1  
     9    7    8 1  
    10    8    9 ar 
    11    9   10 ar 
    12   10   11 ar 
    13   11   12 1  
    14   12   13 1  
    15   13   14 am 
    16   14   15 2  
    17   14   16 1  
    18   16   17 2  
    19   16   18 1  
    20   17   23 1  
    21   18   19 am 
    22   19   20 2  
    23   19   21 1  
    24   21   22 1  
    25   21   23 2  
    26   22   25 2  
    27   22   29 1  
    28   23   24 1  
    29   24   25 1  
    30   25   26 1  
    31   26   27 1  
    32   27   28 1  
    33   28   29 1  
    34   29   30 1  
    35   30   31 1  
    36   31   32 2  
    37   31   33 am 
    38    1   34 1  
    39    3   35 1  
    40    6   36 1  
    41    6   37 1  
    42    9   38 1  
    43   10   39 1  
    44   12   40 1  
    45   12   41 1  
    46   13   42 1  
    47   18   43 1  
    48   26   44 1  
    49   26   45 1  
    50   27   46 1  
    51   27   47 1  
    52   28   48 1  
    53   28   49 1  
    54   29   50 1  
    55   30   51 1  
    56   30   52 1  
    57   33   53 1  
    58   33   54 1  
@<TRIPOS>SUBSTRUCTURE
     1 AXA         1

