### 
### Created by X-TOOL on Mon Sep 10 21:12:57 2018
### 

@<TRIPOS>MOLECULE
3dnj_ligand
   53    53     1     0     0
SMALL
GAST_HUCK


@<TRIPOS>ATOM
      1 N          17.4910   -6.0820   12.8190 N.4       1 TYR         0.2392
      2 CA         17.9170   -6.6820   11.5350 C.3       1 TYR         0.0730
      3 C          19.0640   -5.8790   10.9580 C.2       1 TYR         0.2286
      4 O          19.3230   -4.7680   11.3980 O.2       1 TYR        -0.3905
      5 CB         16.7510   -6.7180   10.5660 C.3       1 TYR         0.0365
      6 CG         15.6270   -7.6220   11.0200 C.ar      1 TYR        -0.0460
      7 CD1        14.3150   -7.1610   11.0520 C.ar      1 TYR        -0.0684
      8 CD2        15.8800   -8.9170   11.4350 C.ar      1 TYR        -0.0684
      9 CE1        13.2790   -7.9880   11.4450 C.ar      1 TYR        -0.0398
     10 CE2        14.8490   -9.7540   11.8410 C.ar      1 TYR        -0.0398
     11 CZ         13.5510   -9.2740   11.8530 C.ar      1 TYR         0.0805
     12 OH         12.4990  -10.0920   12.2120 O.3       1 TYR        -0.3376
     13 N          19.7530   -6.4510    9.9770 N.am      1 LEU        -0.2609
     14 CA         20.9140   -5.8140    9.3560 C.3       1 LEU         0.1313
     15 C          20.5550   -4.9100    8.2100 C.2       1 LEU         0.2033
     16 O          19.7180   -5.2330    7.3860 O.2       1 LEU        -0.3944
     17 CB         21.8730   -6.8660    8.8190 C.3       1 LEU        -0.0101
     18 CG         22.8980   -7.2310    9.8640 C.3       1 LEU        -0.0425
     19 CD1        22.1440   -7.5820   11.0760 C.3       1 LEU        -0.0625
     20 CD2        23.8450   -8.3530    9.4060 C.3       1 LEU        -0.0625
     21 N          21.2540   -3.7830    8.1570 N.am      1 PHE        -0.2698
     22 CA         21.1510   -2.8140    7.0640 C.3       1 PHE         0.0916
     23 C          19.8980   -1.9510    7.1630 C.2       1 PHE         0.0598
     24 O          19.5551   -1.4367    8.2610 O.co2     1 PHE        -0.5666
     25 CB         21.2130   -3.5140    5.7140 C.3       1 PHE        -0.0300
     26 O25        19.1974   -1.7498    6.1352 O.co2     1 PHE        -0.5666
     27 H1         16.7275   -6.6167   13.2028 H         1 TYR         0.2017
     28 H2         17.1911   -5.1324   12.6630 H         1 TYR         0.2017
     29 H3         18.2641   -6.0883   13.4657 H         1 TYR         0.2017
     30 H4         18.2587   -7.7117   11.7165 H         1 TYR         0.1120
     31 H5         17.1164   -7.0765    9.5924 H         1 TYR         0.0486
     32 H6         16.3560   -5.6973   10.4562 H         1 TYR         0.0486
     33 H7         14.1016   -6.1379   10.7645 H         1 TYR         0.0530
     34 H8         16.8998   -9.2845   11.4434 H         1 TYR         0.0530
     35 H9         12.2576   -7.6253   11.4318 H         1 TYR         0.0525
     36 H10        15.0587  -10.7730   12.1454 H         1 TYR         0.0525
     37 H11        12.6303  -10.4036   13.0997 H         1 TYR         0.2458
     38 H12        19.4669   -7.3519    9.6504 H         1 LEU         0.1885
     39 H13        21.4261   -5.2178   10.1256 H         1 LEU         0.0800
     40 H14        22.3870   -6.4678    7.9318 H         1 LEU         0.0315
     41 H15        21.3043   -7.7654    8.5405 H         1 LEU         0.0315
     42 H16        23.5152   -6.3456   10.0766 H         1 LEU         0.0298
     43 H17        22.8454   -7.8586   11.8769 H         1 LEU         0.0232
     44 H18        21.4793   -8.4317   10.8611 H         1 LEU         0.0232
     45 H19        21.5431   -6.7184   11.3970 H         1 LEU         0.0232
     46 H20        24.3796   -8.0342    8.4990 H         1 LEU         0.0232
     47 H21        23.2612   -9.2594    9.1879 H         1 LEU         0.0232
     48 H22        24.5716   -8.5679   10.2034 H         1 LEU         0.0232
     49 H23        21.8866   -3.5844    8.9056 H         1 PHE         0.1875
     50 H24        22.0200   -2.1434    7.1355 H         1 PHE         0.0723
     51 H25        21.1339   -2.7675    4.9100 H         1 PHE         0.0270
     52 H26        20.3813   -4.2293    5.6333 H         1 PHE         0.0270
     53 H27        22.1687   -4.0510    5.6229 H         1 PHE         0.0270
@<TRIPOS>BOND
     1    1    2 1  
     2    2    3 1  
     3    2    5 1  
     4    3    4 2  
     5    3   13 am 
     6    5    6 1  
     7    6    7 ar 
     8    6    8 ar 
     9    7    9 ar 
    10    8   10 ar 
    11    9   11 ar 
    12   10   11 ar 
    13   11   12 1  
    14   13   14 1  
    15   14   15 1  
    16   14   17 1  
    17   15   16 2  
    18   15   21 am 
    19   17   18 1  
    20   18   19 1  
    21   18   20 1  
    22   21   22 1  
    23   22   23 1  
    24   22   25 1  
    25   23   24 ar 
    26   23   26 ar 
    27    1   27 1  
    28    1   28 1  
    29    1   29 1  
    30    2   30 1  
    31    5   31 1  
    32    5   32 1  
    33    7   33 1  
    34    8   34 1  
    35    9   35 1  
    36   10   36 1  
    37   12   37 1  
    38   13   38 1  
    39   14   39 1  
    40   17   40 1  
    41   17   41 1  
    42   18   42 1  
    43   19   43 1  
    44   19   44 1  
    45   19   45 1  
    46   20   46 1  
    47   20   47 1  
    48   20   48 1  
    49   21   49 1  
    50   22   50 1  
    51   25   51 1  
    52   25   52 1  
    53   25   53 1  
@<TRIPOS>SUBSTRUCTURE
     1 TYR         1

