### 
### Created by X-TOOL on Mon Sep 10 21:12:58 2018
### 

@<TRIPOS>MOLECULE
3dog_ligand
   53    55     1     0     0
SMALL
GAST_HUCK


@<TRIPOS>ATOM
      1 O1        -33.6070  -17.9420  -35.2170 O.3       1 NNN        -0.3926
      2 C15       -34.2530  -16.6810  -34.9680 C.3       1 NNN         0.0685
      3 C12       -34.7920  -16.5670  -33.5380 C.3       1 NNN         0.0696
      4 C13       -36.2790  -16.2500  -33.5680 C.3       1 NNN        -0.0291
      5 C14       -36.6020  -15.2060  -32.5030 C.3       1 NNN        -0.0630
      6 N2        -34.5710  -17.7550  -32.7310 N.pl3     1 NNN        -0.2701
      7 C2        -34.1180  -17.6270  -31.4690 C.ar      1 NNN         0.2362
      8 N1        -33.9410  -18.7270  -30.7090 N.ar      1 NNN        -0.1848
      9 C6        -33.4900  -18.6450  -29.4390 C.ar      1 NNN         0.2373
     10 N5        -33.2090  -17.4470  -28.9460 N.ar      1 NNN        -0.1533
     11 N7        -32.7340  -17.1790  -27.6570 N.pl3     1 NNN        -0.1727
     12 C8        -32.5930  -15.8270  -27.5670 C.2       1 NNN         0.1389
     13 C9'       -32.9680  -15.3060  -28.7920 C.2       1 NNN         0.0936
     14 C9        -32.9700  -13.8590  -29.0910 C.3       1 NNN         0.0203
     15 C10       -32.2310  -13.5200  -30.3810 C.3       1 NNN        -0.0433
     16 C11       -34.4000  -13.3540  -29.1270 C.3       1 NNN        -0.0433
     17 C4        -33.3840  -16.3880  -29.6980 C.ar      1 NNN         0.1883
     18 N3        -33.8310  -16.4100  -30.9650 N.ar      1 NNN        -0.1800
     19 N6        -33.3260  -19.7480  -28.6920 N.pl3     1 NNN        -0.2596
     20 CA'       -33.9150  -21.0080  -29.0920 C.3       1 NNN         0.0731
     21 C1'       -32.8930  -21.7680  -29.8820 C.ar      1 NNN        -0.0184
     22 C6'       -31.7590  -22.2440  -29.2490 C.ar      1 NNN        -0.0582
     23 C5'       -30.8020  -22.9380  -29.9730 C.ar      1 NNN        -0.0685
     24 C4'       -30.9800  -23.1490  -31.3360 C.ar      1 NNN        -0.0687
     25 C3'       -32.1200  -22.6690  -31.9750 C.ar      1 NNN        -0.0685
     26 C2'       -33.0800  -21.9720  -31.2400 C.ar      1 NNN        -0.0582
     27 H1        -33.2915  -17.9635  -36.1129 H         1 NNN         0.2095
     28 H2        -35.0921  -16.5703  -35.6706 H         1 NNN         0.0582
     29 H3        -33.5254  -15.8733  -35.1356 H         1 NNN         0.0582
     30 H4        -34.2677  -15.7311  -33.0519 H         1 NNN         0.0597
     31 H5        -36.8528  -17.1668  -33.3676 H         1 NNN         0.0287
     32 H6        -36.5496  -15.8574  -34.5593 H         1 NNN         0.0287
     33 H7        -37.6780  -14.9786  -32.5269 H         1 NNN         0.0231
     34 H8        -36.0289  -14.2887  -32.7030 H         1 NNN         0.0231
     35 H9        -36.3321  -15.5981  -31.5114 H         1 NNN         0.0231
     36 H10       -34.7596  -18.6892  -33.1216 H         1 NNN         0.1959
     37 H11       -32.5307  -17.8694  -26.9201 H         1 NNN         0.2922
     38 H12       -32.2513  -15.2654  -26.6988 H         1 NNN         0.1431
     39 H13       -32.4483  -13.3464  -28.2694 H         1 NNN         0.0614
     40 H14       -32.2666  -12.4335  -30.5493 H         1 NNN         0.0276
     41 H15       -32.7103  -14.0376  -31.2250 H         1 NNN         0.0276
     42 H16       -31.1831  -13.8442  -30.2993 H         1 NNN         0.0276
     43 H17       -34.9044  -13.6138  -28.1846 H         1 NNN         0.0276
     44 H18       -34.9326  -13.8207  -29.9687 H         1 NNN         0.0276
     45 H19       -34.3999  -12.2613  -29.2537 H         1 NNN         0.0276
     46 H20       -32.7743  -19.6971  -27.8237 H         1 NNN         0.2057
     47 H21       -34.8046  -20.8238  -29.7122 H         1 NNN         0.0715
     48 H22       -34.2024  -21.5852  -28.2008 H         1 NNN         0.0715
     49 H23       -31.6187  -22.0745  -28.1876 H         1 NNN         0.0557
     50 H24       -29.9154  -23.3160  -29.4770 H         1 NNN         0.0599
     51 H25       -30.2294  -23.6885  -31.9022 H         1 NNN         0.0559
     52 H26       -32.2611  -22.8356  -33.0368 H         1 NNN         0.0599
     53 H27       -33.9691  -21.5914  -31.7297 H         1 NNN         0.0557
@<TRIPOS>BOND
     1    1    2 1  
     2    2    3 1  
     3    3    4 1  
     4    3    6 1  
     5    4    5 1  
     6    6    7 1  
     7    7    8 ar 
     8    7   18 ar 
     9    8    9 ar 
    10    9   10 ar 
    11    9   19 1  
    12   10   11 1  
    13   10   17 ar 
    14   11   12 1  
    15   12   13 2  
    16   13   14 1  
    17   13   17 1  
    18   14   15 1  
    19   14   16 1  
    20   17   18 ar 
    21   19   20 1  
    22   20   21 1  
    23   21   22 ar 
    24   21   26 ar 
    25   22   23 ar 
    26   23   24 ar 
    27   24   25 ar 
    28   25   26 ar 
    29    1   27 1  
    30    2   28 1  
    31    2   29 1  
    32    3   30 1  
    33    4   31 1  
    34    4   32 1  
    35    5   33 1  
    36    5   34 1  
    37    5   35 1  
    38    6   36 1  
    39   11   37 1  
    40   12   38 1  
    41   14   39 1  
    42   15   40 1  
    43   15   41 1  
    44   15   42 1  
    45   16   43 1  
    46   16   44 1  
    47   16   45 1  
    48   19   46 1  
    49   20   47 1  
    50   20   48 1  
    51   22   49 1  
    52   23   50 1  
    53   24   51 1  
    54   25   52 1  
    55   26   53 1  
@<TRIPOS>SUBSTRUCTURE
     1 NNN         1

