### 
### Created by X-TOOL on Mon Sep 10 21:13:00 2018
### 

@<TRIPOS>MOLECULE
3doy_ligand
   31    32     1     0     0
SMALL
GAST_HUCK


@<TRIPOS>ATOM
      1 CAJ       -18.3010  -16.3780  -11.9780 C.ar      1 2BE        -0.0411
      2 CAH       -19.5030  -15.6970  -11.9010 C.ar      1 2BE        -0.0420
      3 CAP       -19.5110  -14.3240  -12.0520 C.ar      1 2BE         0.0453
      4 CLAD      -20.9900  -13.4540  -11.9600 Cl        1 2BE        -0.0663
      5 CAI       -18.3270  -13.6410  -12.2740 C.ar      1 2BE        -0.0420
      6 CAK       -17.1220  -14.3250  -12.3420 C.ar      1 2BE        -0.0411
      7 CAT       -17.1090  -15.6960  -12.1840 C.ar      1 2BE         0.0564
      8 CAO       -15.8020  -16.4710  -12.3070 C.2       1 2BE         0.2705
      9 OAA       -15.7070  -17.2800  -13.2240 O.2       1 2BE        -0.3333
     10 NAN       -14.8100  -16.1810  -11.4580 N.2       1 2BE        -0.0930
     11 NAM       -13.7240  -16.7600  -11.5430 N.2       1 2BE        -0.1635
     12 CAG       -13.5750  -17.6830  -12.4700 C.3       1 2BE         0.0933
     13 CAU       -12.4150  -18.4060  -12.7270 C.ar      1 2BE         0.0051
     14 CAL       -11.1710  -17.9600  -12.2920 C.ar      1 2BE        -0.0630
     15 CAS       -10.0250  -18.6910  -12.5920 C.ar      1 2BE         0.0249
     16 BRAE       -8.3330  -18.1070  -12.0010 Br        1 2BE        -0.0688
     17 CAQ       -10.1300  -19.8620  -13.3340 C.ar      1 2BE         0.0921
     18 OAB        -9.0220  -20.5790  -13.6340 O.3       1 2BE        -0.3359
     19 CAV       -11.3670  -20.3110  -13.7790 C.ar      1 2BE         0.0640
     20 BRAF      -11.4900  -21.9100  -14.7890 Br        1 2BE        -0.0674
     21 CAR       -12.5030  -19.5780  -13.4780 C.ar      1 2BE         0.0965
     22 OAC       -13.7060  -20.0230  -13.9170 O.3       1 2BE        -0.3351
     23 H1        -18.2896  -17.4572  -11.8763 H         1 2BE         0.0671
     24 H2        -20.4275  -16.2346  -11.7243 H         1 2BE         0.0635
     25 H3        -18.3419  -12.5639  -12.3955 H         1 2BE         0.0635
     26 H4        -16.1977  -13.7867  -12.5179 H         1 2BE         0.0671
     27 H5        -13.8171  -17.1806  -13.4181 H         1 2BE         0.0658
     28 H6        -14.3427  -18.4393  -12.2493 H         1 2BE         0.0658
     29 H7        -11.0942  -17.0429  -11.7192 H         1 2BE         0.0550
     30 H8         -9.2685  -21.3432  -14.1417 H         1 2BE         0.2485
     31 H9        -14.3863  -19.4222  -13.6363 H         1 2BE         0.2481
@<TRIPOS>BOND
     1    1    2 ar 
     2    1    7 ar 
     3    2    3 ar 
     4    3    4 1  
     5    3    5 ar 
     6    5    6 ar 
     7    6    7 ar 
     8    7    8 1  
     9    8    9 2  
    10    8   10 1  
    11   10   11 2  
    12   11   12 1  
    13   12   13 1  
    14   13   14 ar 
    15   13   21 ar 
    16   14   15 ar 
    17   15   16 1  
    18   15   17 ar 
    19   17   18 1  
    20   17   19 ar 
    21   19   20 1  
    22   19   21 ar 
    23   21   22 1  
    24    1   23 1  
    25    2   24 1  
    26    5   25 1  
    27    6   26 1  
    28   12   27 1  
    29   12   28 1  
    30   14   29 1  
    31   18   30 1  
    32   22   31 1  
@<TRIPOS>SUBSTRUCTURE
     1 2BE         1

