### 
### Created by X-TOOL on Mon Sep 10 21:13:01 2018
### 

@<TRIPOS>MOLECULE
3doz_ligand
   31    32     1     0     0
SMALL
GAST_HUCK


@<TRIPOS>ATOM
      1 CAK       -18.6040   15.6990   11.8590 C.ar      1 3BE        -0.0317
      2 CAP       -19.6890   14.8210   11.7800 C.ar      1 3BE         0.0189
      3 BRAD      -21.4670   15.4180   11.6830 Br        1 3BE        -0.0486
      4 CAI       -19.4720   13.4600   11.7640 C.ar      1 3BE        -0.0477
      5 CAH       -18.1770   12.9680   11.8280 C.ar      1 3BE        -0.0531
      6 CAJ       -17.0970   13.8390   11.9040 C.ar      1 3BE        -0.0387
      7 CAU       -17.2960   15.2080   11.9060 C.ar      1 3BE         0.0593
      8 CAO       -16.0590   16.1150   12.0350 C.2       1 3BE         0.2712
      9 OAA       -16.1250   17.1500   12.6890 O.2       1 3BE        -0.3332
     10 NAN       -14.9170   15.6440   11.5220 N.2       1 3BE        -0.0929
     11 NAM       -13.8580   16.2750   11.6140 N.2       1 3BE        -0.1635
     12 CAG       -13.8270   17.4360   12.2420 C.3       1 3BE         0.0933
     13 CAT       -12.6790   18.1990   12.4750 C.ar      1 3BE         0.0051
     14 CAL       -11.3940   17.7520   12.1660 C.ar      1 3BE        -0.0630
     15 CAQ       -10.2830   18.5490   12.4560 C.ar      1 3BE         0.0249
     16 BRAE       -8.5140   18.0030   12.0440 Br        1 3BE        -0.0688
     17 CAR       -10.4680   19.7830   13.0630 C.ar      1 3BE         0.0921
     18 OAB        -9.3980   20.5610   13.3480 O.3       1 3BE        -0.3359
     19 CAV       -11.7420   20.2280   13.3850 C.ar      1 3BE         0.0640
     20 BRAF      -11.9700   21.9090   14.2180 Br        1 3BE        -0.0674
     21 CAS       -12.8400   19.4320   13.0940 C.ar      1 3BE         0.0965
     22 OAC       -14.0820   19.8630   13.4100 O.3       1 3BE        -0.3351
     23 H1        -18.7783   16.7686   11.8840 H         1 3BE         0.0699
     24 H2        -20.3109   12.7763   11.7016 H         1 3BE         0.0681
     25 H3        -18.0063   11.8976   11.8187 H         1 3BE         0.0637
     26 H4        -16.0899   13.4423   11.9622 H         1 3BE         0.0695
     27 H5        -14.2542   17.2410   13.2367 H         1 3BE         0.0658
     28 H6        -14.5032   18.0925   11.6748 H         1 3BE         0.0658
     29 H7        -11.2568   16.7832   11.6994 H         1 3BE         0.0550
     30 H8         -9.6931   21.3655   13.7581 H         1 3BE         0.2485
     31 H9        -14.7191   19.2089   13.1480 H         1 3BE         0.2481
@<TRIPOS>BOND
     1    1    2 ar 
     2    1    7 ar 
     3    2    3 1  
     4    2    4 ar 
     5    4    5 ar 
     6    5    6 ar 
     7    6    7 ar 
     8    7    8 1  
     9    8    9 2  
    10    8   10 1  
    11   10   11 2  
    12   11   12 1  
    13   12   13 1  
    14   13   14 ar 
    15   13   21 ar 
    16   14   15 ar 
    17   15   16 1  
    18   15   17 ar 
    19   17   18 1  
    20   17   19 ar 
    21   19   20 1  
    22   19   21 ar 
    23   21   22 1  
    24    1   23 1  
    25    4   24 1  
    26    5   25 1  
    27    6   26 1  
    28   12   27 1  
    29   12   28 1  
    30   14   29 1  
    31   18   30 1  
    32   22   31 1  
@<TRIPOS>SUBSTRUCTURE
     1 3BE         1

