### 
### Created by X-TOOL on Mon Sep 10 21:13:01 2018
### 

@<TRIPOS>MOLECULE
3dp0_ligand
   37    39     1     0     0
SMALL
GAST_HUCK


@<TRIPOS>ATOM
      1 CAN        17.8280   16.1930  -12.0780 C.ar      1 2BC        -0.0322
      2 CAY        18.9750   15.4210  -11.9410 C.ar      1 2BC        -0.0112
      3 CAK        20.2270   16.0010  -12.1140 C.ar      1 2BC        -0.0515
      4 CAH        21.3740   15.2260  -11.9930 C.ar      1 2BC        -0.0595
      5 CAG        21.2630   13.8710  -11.6990 C.ar      1 2BC        -0.0597
      6 CAJ        20.0110   13.2920  -11.5240 C.ar      1 2BC        -0.0522
      7 CAX        18.8620   14.0680  -11.6410 C.ar      1 2BC        -0.0150
      8 CAL        17.6060   13.4960  -11.4670 C.ar      1 2BC        -0.0508
      9 CAI        16.4570   14.2690  -11.6020 C.ar      1 2BC        -0.0428
     10 CAV        16.5720   15.6180  -11.9170 C.ar      1 2BC         0.0569
     11 CAQ        15.3390   16.4740  -12.2100 C.2       1 2BC         0.2702
     12 OAA        15.4440   17.4420  -12.9630 O.2       1 2BC        -0.3337
     13 NAP        14.1920   16.0540  -11.6780 N.2       1 2BC        -0.0931
     14 NAO        13.1440   16.6810  -11.8430 N.2       1 2BC        -0.1636
     15 CAF        13.1420   17.8020  -12.5400 C.3       1 2BC         0.0933
     16 CAU        11.9810   18.5340  -12.7630 C.ar      1 2BC         0.0051
     17 CAM        10.7490   18.0350  -12.3540 C.ar      1 2BC        -0.0630
     18 CAR         9.5880   18.7150  -12.7030 C.ar      1 2BC         0.0249
     19 BRAD        7.8890   18.1480  -12.0890 Br        1 2BC        -0.0688
     20 CAS         9.6520   19.8800  -13.4580 C.ar      1 2BC         0.0921
     21 OAB         8.5100   20.4990  -13.8610 O.3       1 2BC        -0.3359
     22 CAW        10.8860   20.3840  -13.8450 C.ar      1 2BC         0.0640
     23 BRAE       10.9390   22.0270  -14.7870 Br        1 2BC        -0.0674
     24 CAT        12.0530   19.7130  -13.4990 C.ar      1 2BC         0.0965
     25 OAC        13.2600   20.2280  -13.8590 O.3       1 2BC        -0.3351
     26 H1         17.9125   17.2482  -12.3114 H         1 2BC         0.0699
     27 H2         20.3081   17.0574  -12.3432 H         1 2BC         0.0637
     28 H3         22.3512   15.6755  -12.1272 H         1 2BC         0.0622
     29 H4         22.1562   13.2639  -11.6059 H         1 2BC         0.0631
     30 H5         19.9300   12.2353  -11.2963 H         1 2BC         0.0627
     31 H6         17.5220   12.4427  -11.2250 H         1 2BC         0.0627
     32 H7         15.4791   13.8224  -11.4625 H         1 2BC         0.0652
     33 H8         13.5392   17.5464  -13.5334 H         1 2BC         0.0658
     34 H9         13.8401   18.4819  -12.0298 H         1 2BC         0.0658
     35 H10        10.6946   17.1243  -11.7685 H         1 2BC         0.0550
     36 H11         8.7317   21.2744  -14.3632 H         1 2BC         0.2485
     37 H12        13.9522   19.6554  -13.5501 H         1 2BC         0.2481
@<TRIPOS>BOND
     1    1    2 ar 
     2    1   10 ar 
     3    2    3 ar 
     4    2    7 ar 
     5    3    4 ar 
     6    4    5 ar 
     7    5    6 ar 
     8    6    7 ar 
     9    7    8 ar 
    10    8    9 ar 
    11    9   10 ar 
    12   10   11 1  
    13   11   12 2  
    14   11   13 1  
    15   13   14 2  
    16   14   15 1  
    17   15   16 1  
    18   16   17 ar 
    19   16   24 ar 
    20   17   18 ar 
    21   18   19 1  
    22   18   20 ar 
    23   20   21 1  
    24   20   22 ar 
    25   22   23 1  
    26   22   24 ar 
    27   24   25 1  
    28    1   26 1  
    29    3   27 1  
    30    4   28 1  
    31    5   29 1  
    32    6   30 1  
    33    8   31 1  
    34    9   32 1  
    35   15   33 1  
    36   15   34 1  
    37   17   35 1  
    38   21   36 1  
    39   25   37 1  
@<TRIPOS>SUBSTRUCTURE
     1 2BC         1

