### 
### Created by X-TOOL on Mon Sep 10 21:13:00 2018
### 

@<TRIPOS>MOLECULE
3dp1_ligand
   35    36     1     0     0
SMALL
GAST_HUCK


@<TRIPOS>ATOM
      1 CAA       -21.7330   14.8380   11.5750 C.3       1 2RB         0.0608
      2 OAO       -20.6730   13.9160   11.8500 O.3       1 2RB        -0.3174
      3 CAR       -19.4960   14.5880   11.9580 C.ar      1 2RB         0.0967
      4 CAI       -18.2990   13.9850   11.5860 C.ar      1 2RB        -0.0265
      5 CAK       -17.0960   14.6720   11.7100 C.ar      1 2RB        -0.0498
      6 CAH       -19.4930   15.8880   12.4520 C.ar      1 2RB        -0.0265
      7 CAJ       -18.2920   16.5750   12.5780 C.ar      1 2RB        -0.0498
      8 CAV       -17.0960   15.9680   12.2130 C.ar      1 2RB         0.0451
      9 CAP       -15.8010   16.7530   12.4320 C.2       1 2RB         0.2623
     10 OAB       -15.8240   17.7480   13.1560 O.2       1 2RB        -0.3393
     11 NAN       -14.7050   16.2830   11.8380 N.2       1 2RB        -0.0952
     12 NAM       -13.6220   16.8550   11.9720 N.2       1 2RB        -0.1638
     13 CAG       -13.5440   17.9520   12.7050 C.3       1 2RB         0.0933
     14 CAS       -12.3580   18.6440   12.9220 C.ar      1 2RB         0.0051
     15 CAL       -11.1420   18.1440   12.4670 C.ar      1 2RB        -0.0630
     16 CAQ        -9.9610   18.7890   12.8180 C.ar      1 2RB         0.0249
     17 BRAE       -8.2820   18.0880   12.2920 Br        1 2RB        -0.0688
     18 CAT        -9.9880   19.9300   13.6110 C.ar      1 2RB         0.0921
     19 OAC        -8.8250   20.5350   13.9730 O.3       1 2RB        -0.3359
     20 CAW       -11.2050   20.4350   14.0540 C.ar      1 2RB         0.0640
     21 BRAF      -11.2340   22.0010   15.1200 Br        1 2RB        -0.0674
     22 CAU       -12.3880   19.7920   13.7080 C.ar      1 2RB         0.0965
     23 OAD       -13.5800   20.3000   14.1210 O.3       1 2RB        -0.3351
     24 H1        -22.6827   14.2897   11.4886 H         1 2RB         0.0580
     25 H2        -21.5260   15.3638   10.6312 H         1 2RB         0.0580
     26 H3        -21.8049   15.5689   12.3939 H         1 2RB         0.0580
     27 H4        -18.3038   12.9732   11.1970 H         1 2RB         0.0558
     28 H5        -16.1652   14.2003   11.4166 H         1 2RB         0.0645
     29 H6        -20.4243   16.3635   12.7377 H         1 2RB         0.0558
     30 H7        -18.2876   17.5885   12.9625 H         1 2RB         0.0645
     31 H8        -13.9181   17.6755   13.7018 H         1 2RB         0.0658
     32 H9        -14.2332   18.6734   12.2418 H         1 2RB         0.0658
     33 H10       -11.1153   17.2578   11.8432 H         1 2RB         0.0550
     34 H11        -9.0182   21.2947   14.5097 H         1 2RB         0.2485
     35 H12       -14.2851   19.7482   13.8037 H         1 2RB         0.2481
@<TRIPOS>BOND
     1    1    2 1  
     2    2    3 1  
     3    3    4 ar 
     4    3    6 ar 
     5    4    5 ar 
     6    5    8 ar 
     7    6    7 ar 
     8    7    8 ar 
     9    8    9 1  
    10    9   10 2  
    11    9   11 1  
    12   11   12 2  
    13   12   13 1  
    14   13   14 1  
    15   14   15 ar 
    16   14   22 ar 
    17   15   16 ar 
    18   16   17 1  
    19   16   18 ar 
    20   18   19 1  
    21   18   20 ar 
    22   20   21 1  
    23   20   22 ar 
    24   22   23 1  
    25    1   24 1  
    26    1   25 1  
    27    1   26 1  
    28    4   27 1  
    29    5   28 1  
    30    6   29 1  
    31    7   30 1  
    32   13   31 1  
    33   13   32 1  
    34   15   33 1  
    35   19   34 1  
    36   23   35 1  
@<TRIPOS>SUBSTRUCTURE
     1 2RB         1

