### 
### Created by X-TOOL on Mon Sep 10 21:13:00 2018
### 

@<TRIPOS>MOLECULE
3dp2_ligand
   31    32     1     0     0
SMALL
GAST_HUCK


@<TRIPOS>ATOM
      1 CAJ        17.1660   14.7950  -11.5670 C.ar      1 4BE        -0.0389
      2 CAH        18.4520   14.2820  -11.4280 C.ar      1 4BE        -0.0465
      3 CAP        19.5400   14.9910  -11.9220 C.ar      1 4BE         0.0175
      4 BRAD       21.3150   14.4050  -11.6250 Br        1 4BE        -0.0458
      5 CAI        19.3620   16.2060  -12.5720 C.ar      1 4BE        -0.0465
      6 CAK        18.0770   16.7140  -12.7110 C.ar      1 4BE        -0.0389
      7 CAU        16.9900   16.0160  -12.2070 C.ar      1 4BE         0.0591
      8 CAO        15.6270   16.6920  -12.3330 C.2       1 4BE         0.2724
      9 OAA        15.5410   17.7010  -13.0320 O.2       1 4BE        -0.3319
     10 NAN        14.5960   16.1300  -11.7060 N.2       1 4BE        -0.0925
     11 NAM        13.4940   16.6760  -11.7840 N.2       1 4BE        -0.1635
     12 CAG        13.4290   17.7940  -12.4820 C.3       1 4BE         0.0933
     13 CAT        12.2830   18.5460  -12.6950 C.ar      1 4BE         0.0051
     14 CAL        11.0370   18.0980  -12.2730 C.ar      1 4BE        -0.0630
     15 CAQ         9.9030   18.8150  -12.6330 C.ar      1 4BE         0.0249
     16 BRAE        8.1860   18.2070  -12.1180 Br        1 4BE        -0.0688
     17 CAR        10.0050   19.9670  -13.4020 C.ar      1 4BE         0.0921
     18 OAB         8.8830   20.6230  -13.8030 O.3       1 4BE        -0.3359
     19 CAV        11.2560   20.4170  -13.8080 C.ar      1 4BE         0.0640
     20 BRAF       11.4130   21.9850  -14.8570 Br        1 4BE        -0.0674
     21 CAS        12.3950   19.7070  -13.4530 C.ar      1 4BE         0.0965
     22 OAC        13.6170   20.1590  -13.8410 O.3       1 4BE        -0.3351
     23 H1         16.3125   14.2493  -11.1811 H         1 4BE         0.0677
     24 H2         18.6050   13.3292  -10.9343 H         1 4BE         0.0655
     25 H3         20.2137   16.7495  -12.9649 H         1 4BE         0.0655
     26 H4         17.9230   17.6608  -13.2159 H         1 4BE         0.0677
     27 H5         13.7952   17.5318  -13.4856 H         1 4BE         0.0658
     28 H6         14.1410   18.4797  -11.9994 H         1 4BE         0.0658
     29 H7         10.9511   17.2008  -11.6708 H         1 4BE         0.0550
     30 H8          9.1287   21.3837  -14.3164 H         1 4BE         0.2485
     31 H9         14.2882   19.5673  -13.5220 H         1 4BE         0.2481
@<TRIPOS>BOND
     1    1    2 ar 
     2    1    7 ar 
     3    2    3 ar 
     4    3    4 1  
     5    3    5 ar 
     6    5    6 ar 
     7    6    7 ar 
     8    7    8 1  
     9    8    9 2  
    10    8   10 1  
    11   10   11 2  
    12   11   12 1  
    13   12   13 1  
    14   13   14 ar 
    15   13   21 ar 
    16   14   15 ar 
    17   15   16 1  
    18   15   17 ar 
    19   17   18 1  
    20   17   19 ar 
    21   19   20 1  
    22   19   21 ar 
    23   21   22 1  
    24    1   23 1  
    25    2   24 1  
    26    5   25 1  
    27    6   26 1  
    28   12   27 1  
    29   12   28 1  
    30   14   29 1  
    31   18   30 1  
    32   22   31 1  
@<TRIPOS>SUBSTRUCTURE
     1 4BE         1

