### 
### Created by X-TOOL on Mon Sep 10 21:13:01 2018
### 

@<TRIPOS>MOLECULE
3dp3_ligand
   43    44     1     0     0
SMALL
GAST_HUCK


@<TRIPOS>ATOM
      1 CAA       -21.4840   15.4610   11.9790 C.3       1 4BB        -0.0831
      2 CAY       -20.3780   14.5230   11.5300 C.3       1 4BB        -0.0434
      3 CAB       -20.5190   14.2380   10.0410 C.3       1 4BB        -0.0831
      4 CAC       -20.3990   13.2470   12.3480 C.3       1 4BB        -0.0831
      5 CAW       -19.0340   15.1800   11.7590 C.ar      1 4BB        -0.0449
      6 CAM       -17.8800   14.4220   11.6830 C.ar      1 4BB        -0.0354
      7 CAK       -16.6400   14.9980   11.8880 C.ar      1 4BB        -0.0139
      8 CAL       -18.9650   16.5280   12.0410 C.ar      1 4BB        -0.0354
      9 CAJ       -17.7190   17.1060   12.2510 C.ar      1 4BB        -0.0139
     10 CAS       -16.5620   16.3460   12.1740 C.ar      1 4BB         0.0836
     11 CAQ       -15.2230   17.0320   12.4160 C.2       1 4BB         0.2897
     12 OAD       -15.1730   17.9280   13.2530 O.2       1 4BB        -0.3198
     13 NAP       -14.1810   16.6030   11.6920 N.2       1 4BB        -0.0880
     14 NAO       -13.0750   17.1240   11.8340 N.2       1 4BB        -0.1631
     15 CAI       -12.9560   18.1170   12.6960 C.3       1 4BB         0.0933
     16 CAT       -11.7680   18.7680   13.0040 C.ar      1 4BB         0.0051
     17 CAN       -10.5460   18.3060   12.5310 C.ar      1 4BB        -0.0630
     18 CAR        -9.3770   18.9640   12.8760 C.ar      1 4BB         0.0249
     19 BRAG       -7.7320   18.3260   12.2260 Br        1 4BB        -0.0688
     20 CAU        -9.4280   20.0830   13.6930 C.ar      1 4BB         0.0921
     21 OAE        -8.2870   20.7310   14.0320 O.3       1 4BB        -0.3359
     22 CAX       -10.6530   20.5480   14.1680 C.ar      1 4BB         0.0640
     23 BRAH      -10.7640   22.0730   15.2830 Br        1 4BB        -0.0674
     24 CAV       -11.8180   19.8850   13.8230 C.ar      1 4BB         0.0965
     25 OAF       -13.0080   20.3430   14.2880 O.3       1 4BB        -0.3351
     26 H1        -22.4605   14.9828   11.8123 H         1 4BB         0.0140
     27 H2        -21.4298   16.3952   11.4008 H         1 4BB         0.0140
     28 H3        -21.3632   15.6846   13.0492 H         1 4BB         0.0140
     29 H4        -19.7159   13.5582    9.7202 H         1 4BB         0.0140
     30 H5        -20.4477   15.1808    9.4788 H         1 4BB         0.0140
     31 H6        -21.4951   13.7690    9.8482 H         1 4BB         0.0140
     32 H7        -20.2950   13.4937   13.4149 H         1 4BB         0.0140
     33 H8        -19.5655   12.5993   12.0386 H         1 4BB         0.0140
     34 H9        -21.3517   12.7221   12.1842 H         1 4BB         0.0140
     35 H10       -17.9484   13.3634   11.4600 H         1 4BB         0.0855
     36 H11       -15.7395   14.3979   11.8248 H         1 4BB         0.0742
     37 H12       -19.8671   17.1264   12.0979 H         1 4BB         0.0855
     38 H13       -17.6507   18.1638   12.4778 H         1 4BB         0.0742
     39 H14       -13.3298   17.7216   13.6520 H         1 4BB         0.0658
     40 H15       -13.6352   18.9027   12.3335 H         1 4BB         0.0658
     41 H16       -10.5075   17.4310   11.8923 H         1 4BB         0.0550
     42 H17        -8.4977   21.4694   14.5914 H         1 4BB         0.2485
     43 H18       -13.7076   19.7864   13.9668 H         1 4BB         0.2481
@<TRIPOS>BOND
     1    1    2 1  
     2    2    3 1  
     3    2    4 1  
     4    2    5 1  
     5    5    6 ar 
     6    5    8 ar 
     7    6    7 ar 
     8    7   10 ar 
     9    8    9 ar 
    10    9   10 ar 
    11   10   11 1  
    12   11   12 2  
    13   11   13 1  
    14   13   14 2  
    15   14   15 1  
    16   15   16 1  
    17   16   17 ar 
    18   16   24 ar 
    19   17   18 ar 
    20   18   19 1  
    21   18   20 ar 
    22   20   21 1  
    23   20   22 ar 
    24   22   23 1  
    25   22   24 ar 
    26   24   25 1  
    27    1   26 1  
    28    1   27 1  
    29    1   28 1  
    30    3   29 1  
    31    3   30 1  
    32    3   31 1  
    33    4   32 1  
    34    4   33 1  
    35    4   34 1  
    36    6   35 1  
    37    7   36 1  
    38    8   37 1  
    39    9   38 1  
    40   15   39 1  
    41   15   40 1  
    42   17   41 1  
    43   21   42 1  
    44   25   43 1  
@<TRIPOS>SUBSTRUCTURE
     1 4BB         1

