### 
### Created by X-TOOL on Mon Sep 10 21:12:58 2018
### 

@<TRIPOS>MOLECULE
3dp4_ligand
   23    23     1     0     0
SMALL
GAST_HUCK


@<TRIPOS>ATOM
      1 N          20.9390   20.7800   13.3460 N.4       1 AMQ         0.2333
      2 CA         20.7560   19.5320   14.1660 C.3       1 AMQ         0.0299
      3 C          19.2250   19.1940   14.2990 C.2       1 AMQ         0.0853
      4 OT1        18.4180   19.9480   13.7350 O.co2     1 AMQ        -0.5642
      5 OT2        18.9040   18.1840   14.9600 O.co2     1 AMQ        -0.5642
      6 CB         21.4330   19.7320   15.5520 C.3       1 AMQ         0.0201
      7 CG         22.9190   20.0230   15.4450 C.2       1 AMQ         0.0355
      8 CD1        23.9770   19.0770   15.3030 C.2       1 AMQ         0.1867
      9 CD2        23.6270   21.1880   15.4500 C.2       1 AMQ         0.1229
     10 CE2        23.2810   22.6370   15.5590 C.3       1 AMQ         0.0048
     11 OE1        23.6400   17.7970   15.2600 O.2       1 AMQ        -0.4259
     12 NE1        25.2040   19.5110   15.2210 N.am      1 AMQ        -0.1399
     13 OE2        24.9800   20.9330   15.3200 O.3       1 AMQ        -0.1759
     14 H1         21.9220   20.9885   13.2663 H         1 AMQ         0.2011
     15 H2         20.4677   21.5494   13.7954 H         1 AMQ         0.2011
     16 H3         20.5500   20.6383   12.4270 H         1 AMQ         0.2011
     17 H4         21.2511   18.6938   13.6540 H         1 AMQ         0.1035
     18 H5         21.2963   18.8159   16.1453 H         1 AMQ         0.0385
     19 H6         20.9457   20.5757   16.0626 H         1 AMQ         0.0385
     20 H7         24.2013   23.2380   15.5151 H         1 AMQ         0.0455
     21 H8         22.7684   22.8207   16.5148 H         1 AMQ         0.0455
     22 H9         22.6186   22.9194   14.7274 H         1 AMQ         0.0455
     23 H10        26.0587   19.0021   15.1185 H         1 AMQ         0.2313
@<TRIPOS>BOND
     1    1    2 1  
     2    2    3 1  
     3    2    6 1  
     4    3    4 ar 
     5    3    5 ar 
     6    6    7 1  
     7    7    8 1  
     8    7    9 2  
     9    8   11 2  
    10    8   12 am 
    11    9   10 1  
    12    9   13 1  
    13   12   13 1  
    14    1   14 1  
    15    1   15 1  
    16    1   16 1  
    17    2   17 1  
    18    6   18 1  
    19    6   19 1  
    20   10   20 1  
    21   10   21 1  
    22   10   22 1  
    23   12   23 1  
@<TRIPOS>SUBSTRUCTURE
     1 AMQ         1

