### 
### Created by X-TOOL on Mon Sep 10 21:13:01 2018
### 

@<TRIPOS>MOLECULE
3dp9_ligand
   49    51     1     0     0
SMALL
GAST_HUCK


@<TRIPOS>ATOM
      1 C2         -1.3210   -4.1280    5.2950 C.ar      1 BIG         0.0439
      2 C5         -3.9340   -3.4640    4.5930 C.ar      1 BIG         0.1304
      3 C4         -3.2350   -2.9140    5.7560 C.ar      1 BIG         0.0483
      4 C8         -5.3260   -2.0460    5.6130 C.2       1 BIG         0.0326
      5 O3'        -1.2630    2.0820    8.2140 O.3       1 BIG        -0.3860
      6 C3'        -1.2190    1.1140    7.1580 C.3       1 BIG         0.1032
      7 C4'        -2.1170    1.5100    5.9920 C.3       1 BIG         0.0391
      8 C5'        -1.6440    0.8960    4.6760 C.3       1 BIG         0.0039
      9 S5'        -0.3930    1.8620    3.8830 S.3       1 BIG        -0.1602
     10 C20        -1.3380    3.1080    3.0540 C.3       1 BIG        -0.0063
     11 C21        -0.4020    4.1510    2.4530 C.3       1 BIG        -0.0442
     12 C22        -1.1350    5.4570    2.1610 C.3       1 BIG        -0.0552
     13 C23        -0.9770    5.8260    0.7040 C.3       1 BIG        -0.0653
     14 C1'        -3.4590    0.8790    6.3220 C.3       1 BIG        -0.0248
     15 N1'        -3.2550    0.1140    7.5710 N.4       1 BIG         0.2442
     16 C2'        -1.8250   -0.1550    7.7090 C.3       1 BIG        -0.0040
     17 C10        -3.9750   -1.1760    7.6470 C.3       1 BIG        -0.0117
     18 N7         -5.1580   -2.9030    4.5550 N.pl3     1 BIG        -0.2768
     19 C6         -3.1590   -4.4310    3.7900 C.ar      1 BIG         0.1459
     20 N6         -3.6840   -5.0230    2.6890 N.pl3     1 BIG        -0.3157
     21 N3         -1.9620   -3.2580    6.0820 N.ar      1 BIG        -0.3132
     22 C9         -4.1760   -1.9810    6.3960 C.2       1 BIG         0.0166
     23 N1         -1.8920   -4.6950    4.2040 N.ar      1 BIG        -0.2741
     24 H1         -0.2986   -4.3920    5.5403 H         1 BIG         0.0956
     25 H2         -6.2398   -1.4889    5.8144 H         1 BIG         0.0886
     26 H3         -0.6934    1.8034    8.9214 H         1 BIG         0.2100
     27 H4         -0.1839    0.9600    6.8192 H         1 BIG         0.0652
     28 H5         -2.1872    2.6041    5.9023 H         1 BIG         0.0388
     29 H6         -2.5057    0.8109    3.9976 H         1 BIG         0.0382
     30 H7         -1.2381   -0.1056    4.8808 H         1 BIG         0.0382
     31 H8         -2.0126    3.5943    3.7740 H         1 BIG         0.0376
     32 H9         -1.9307    2.6438    2.2520 H         1 BIG         0.0376
     33 H10         0.0159    3.7580    1.5144 H         1 BIG         0.0273
     34 H11         0.4144    4.3502    3.1628 H         1 BIG         0.0273
     35 H12        -0.7147    6.2580    2.7869 H         1 BIG         0.0263
     36 H13        -2.2035    5.3340    2.3914 H         1 BIG         0.0263
     37 H14        -1.5087    6.7681    0.5046 H         1 BIG         0.0230
     38 H15        -1.3981    5.0273    0.0757 H         1 BIG         0.0230
     39 H16         0.0907    5.9513    0.4712 H         1 BIG         0.0230
     40 H17        -3.7754    0.2075    5.5102 H         1 BIG         0.0818
     41 H18        -4.2210    1.6581    6.4714 H         1 BIG         0.0818
     42 H19        -3.5636    0.6875    8.3404 H         1 BIG         0.2042
     43 H20        -1.5458   -0.3082    8.7619 H         1 BIG         0.0840
     44 H21        -1.5235   -1.0325    7.1183 H         1 BIG         0.0840
     45 H22        -4.9740   -0.9622    8.0547 H         1 BIG         0.0901
     46 H23        -3.4197   -1.8122    8.3519 H         1 BIG         0.0901
     47 H24        -5.8681   -3.0910    3.8330 H         1 BIG         0.2266
     48 H25        -3.1210   -5.6940    2.1471 H         1 BIG         0.1805
     49 H26        -4.6459   -4.8017    2.3944 H         1 BIG         0.1805
@<TRIPOS>BOND
     1   21    1 ar 
     2    1   23 ar 
     3    3    2 ar 
     4   18    2 1  
     5    2   19 ar 
     6    3   21 ar 
     7   22    3 1  
     8    4   18 1  
     9   22    4 2  
    10    6    5 1  
    11    6    7 1  
    12   16    6 1  
    13    7    8 1  
    14   14    7 1  
    15    8    9 1  
    16    9   10 1  
    17   10   11 1  
    18   11   12 1  
    19   12   13 1  
    20   15   14 1  
    21   15   16 1  
    22   17   15 1  
    23   17   22 1  
    24   19   20 1  
    25   19   23 ar 
    26    1   24 1  
    27    4   25 1  
    28    5   26 1  
    29    6   27 1  
    30    7   28 1  
    31    8   29 1  
    32    8   30 1  
    33   10   31 1  
    34   10   32 1  
    35   11   33 1  
    36   11   34 1  
    37   12   35 1  
    38   12   36 1  
    39   13   37 1  
    40   13   38 1  
    41   13   39 1  
    42   14   40 1  
    43   14   41 1  
    44   15   42 1  
    45   16   43 1  
    46   16   44 1  
    47   17   45 1  
    48   17   46 1  
    49   18   47 1  
    50   20   48 1  
    51   20   49 1  
@<TRIPOS>SUBSTRUCTURE
     1 BIG         1

