### 
### Created by X-TOOL on Mon Sep 10 21:12:59 2018
### 

@<TRIPOS>MOLECULE
3dpd_ligand
   36    38     1     0     0
SMALL
GAST_HUCK


@<TRIPOS>ATOM
      1 C01        24.1900   63.5150   17.3780 C.3       1 41A        -0.0559
      2 C02        24.1550   63.1820   18.8730 C.3       1 41A        -0.0104
      3 C03        24.5710   64.4310   19.6530 C.3       1 41A        -0.0559
      4 C04        22.6950   62.7410   19.2510 C.3       1 41A        -0.0080
      5 C05        22.5850   61.9090   20.5080 C.2       1 41A         0.0035
      6 C06        23.6610   61.2170   21.0160 C.2       1 41A         0.0805
      7 C07        24.9960   61.2130   20.4380 C.2       1 41A         0.1136
      8 C08        25.1700   62.0270   19.1610 C.3       1 41A         0.0225
      9 O09        25.9150   60.5800   20.9300 O.2       1 41A        -0.4029
     10 S10        23.2060   60.3710   22.4610 S.3       1 41A         0.0158
     11 C11        21.5800   61.0030   22.2570 C.2       1 41A         0.1884
     12 N12        20.5900   60.6840   23.1420 N.pl3     1 41A        -0.2618
     13 C13        20.4760   59.2650   23.4940 C.3       1 41A         0.0612
     14 C14        19.3790   59.0630   24.5280 C.3       1 41A         0.0691
     15 O15        18.1390   59.6190   24.1170 O.3       1 41A        -0.3756
     16 C16        18.2640   61.0130   23.8510 C.3       1 41A         0.0691
     17 C17        19.2750   61.2880   22.7640 C.3       1 41A         0.0612
     18 N18        21.4160   61.7760   21.2090 N.2       1 41A        -0.2973
     19 H1         23.4786   64.3269   17.1665 H         1 41A         0.0238
     20 H2         23.9119   62.6233   16.7971 H         1 41A         0.0238
     21 H3         25.2045   63.8340   17.0970 H         1 41A         0.0238
     22 H4         24.5525   64.2131   20.7310 H         1 41A         0.0238
     23 H5         23.8715   65.2508   19.4327 H         1 41A         0.0238
     24 H6         25.5880   64.7269   19.3561 H         1 41A         0.0238
     25 H7         22.2891   62.1521   18.4153 H         1 41A         0.0443
     26 H8         22.0890   63.6487   19.3884 H         1 41A         0.0443
     27 H9         26.1734   62.4764   19.1956 H         1 41A         0.0480
     28 H10        25.1119   61.3244   18.3167 H         1 41A         0.0480
     29 H11        21.4334   58.9160   23.9082 H         1 41A         0.0558
     30 H12        20.2342   58.6856   22.5908 H         1 41A         0.0558
     31 H13        19.6871   59.5433   25.4684 H         1 41A         0.0581
     32 H14        19.2445   57.9840   24.6942 H         1 41A         0.0581
     33 H15        18.5830   61.5239   24.7714 H         1 41A         0.0581
     34 H16        17.2858   61.4042   23.5346 H         1 41A         0.0581
     35 H17        18.9266   60.8460   21.8189 H         1 41A         0.0558
     36 H18        19.3928   62.3745   22.6392 H         1 41A         0.0558
@<TRIPOS>BOND
     1    1    2 1  
     2    2    3 1  
     3    2    4 1  
     4    2    8 1  
     5    4    5 1  
     6    5    6 2  
     7    5   18 1  
     8    6    7 1  
     9    6   10 1  
    10    7    8 1  
    11    7    9 2  
    12   10   11 1  
    13   11   12 1  
    14   11   18 2  
    15   12   13 1  
    16   12   17 1  
    17   13   14 1  
    18   14   15 1  
    19   15   16 1  
    20   16   17 1  
    21    1   19 1  
    22    1   20 1  
    23    1   21 1  
    24    3   22 1  
    25    3   23 1  
    26    3   24 1  
    27    4   25 1  
    28    4   26 1  
    29    8   27 1  
    30    8   28 1  
    31   13   29 1  
    32   13   30 1  
    33   14   31 1  
    34   14   32 1  
    35   16   33 1  
    36   16   34 1  
    37   17   35 1  
    38   17   36 1  
@<TRIPOS>SUBSTRUCTURE
     1 41A         1

