### 
### Created by X-TOOL on Mon Sep 10 21:13:00 2018
### 

@<TRIPOS>MOLECULE
3dpk_ligand
   71    75     1     0     0
SMALL
GAST_HUCK


@<TRIPOS>ATOM
      1 C01        10.5750   20.2780    3.8290 C.3       1 8C5         0.0680
      2 O02         9.1840   20.5580    4.0830 O.3       1 8C5        -0.2612
      3 N03         8.9300   21.7140    4.8030 N.am      1 8C5        -0.1671
      4 C04         8.1400   22.7880    4.3020 C.2       1 8C5         0.2085
      5 O05         7.5770   22.7950    3.2110 O.2       1 8C5        -0.4053
      6 C06         7.6990   23.8810    5.2840 C.2       1 8C5         0.1092
      7 C07         6.7760   24.8060    4.8920 C.2       1 8C5         0.0832
      8 N08         6.4820   25.9810    5.5640 N.pl3     1 8C5        -0.2138
      9 C09         6.9230   26.1680    6.8980 C.ar      1 8C5         0.1702
     10 N10         6.5840   27.2810    7.6170 N.ar      1 8C5        -0.2243
     11 C11         7.0810   27.3670    8.9570 C.ar      1 8C5         0.2018
     12 N12         7.8780   26.4280    9.5120 N.ar      1 8C5        -0.2575
     13 C13         8.1700   25.3910    8.7230 C.ar      1 8C5         0.0238
     14 C14         7.7440   25.1650    7.4200 C.ar      1 8C5         0.0892
     15 C15         8.1500   23.9510    6.6790 C.2       1 8C5         0.1305
     16 O16         8.8680   23.0950    7.2350 O.2       1 8C5        -0.4157
     17 N17         6.6640   28.5620    9.5580 N.pl3     1 8C5        -0.2453
     18 C18         5.6360   29.5710    9.1820 C.ar      1 8C5         0.0600
     19 C19         5.3710   29.9530    7.8660 C.ar      1 8C5        -0.0440
     20 C20         4.3530   30.8810    7.5520 C.ar      1 8C5        -0.0689
     21 C21         3.5530   31.5060    8.4990 C.ar      1 8C5        -0.0487
     22 C22         3.8150   31.1030    9.8170 C.ar      1 8C5        -0.0689
     23 C23         4.8140   30.1950   10.1520 C.ar      1 8C5        -0.0440
     24 C24         2.3450   32.3680    8.1220 C.3       1 8C5         0.0162
     25 C25         0.9960   31.5910    8.3420 C.3       1 8C5        -0.0237
     26 N26        -0.2520   32.2860    7.8520 N.4       1 8C5         0.2365
     27 C27        -0.0410   33.1120    6.6340 C.3       1 8C5        -0.0316
     28 C28        -1.4500   33.5850    6.2310 C.3       1 8C5        -0.0077
     29 C29        -2.3920   32.5620    6.8390 C.3       1 8C5        -0.0077
     30 C30        -1.4960   31.5320    7.5440 C.3       1 8C5        -0.0316
     31 C31         5.8230   27.1630    4.8020 C.3       1 8C5         0.0733
     32 C32         6.7760   27.8110    3.7830 C.3       1 8C5        -0.0226
     33 C33         6.1580   29.0520    3.1280 C.3       1 8C5        -0.0503
     34 C34         4.9640   28.7180    2.2910 C.3       1 8C5        -0.0529
     35 C35         3.9710   27.9820    3.1610 C.3       1 8C5        -0.0503
     36 C36         4.5330   26.8310    4.0590 C.3       1 8C5        -0.0226
     37 H1         10.6620   19.3441    3.2544 H         1 8C5         0.0553
     38 H2         11.1081   20.1712    4.7852 H         1 8C5         0.0553
     39 H3         11.0164   21.1050    3.2535 H         1 8C5         0.0553
     40 H4          9.3206   21.7985    5.7197 H         1 8C5         0.2198
     41 H5          6.2247   24.6039    3.9748 H         1 8C5         0.1328
     42 H6          8.8176   24.6342    9.1507 H         1 8C5         0.0921
     43 H7          7.1662   28.7858   10.4290 H         1 8C5         0.2175
     44 H8          5.9619   29.5264    7.0636 H         1 8C5         0.0522
     45 H9          4.1864   31.1196    6.5078 H         1 8C5         0.0530
     46 H10         3.2091   31.5197   10.6134 H         1 8C5         0.0530
     47 H11         4.9697   29.9553   11.1976 H         1 8C5         0.0522
     48 H12         2.4252   32.6532    7.0627 H         1 8C5         0.0457
     49 H13         2.3425   33.2736    8.7464 H         1 8C5         0.0457
     50 H14         0.8813   31.4135    9.4215 H         1 8C5         0.0836
     51 H15         1.0728   30.6269    7.8180 H         1 8C5         0.0836
     52 H16        -0.4904   32.9130    8.6043 H         1 8C5         0.2035
     53 H17         0.4102   32.5105    5.8312 H         1 8C5         0.0814
     54 H18         0.6076   33.9721    6.8566 H         1 8C5         0.0814
     55 H19        -1.5537   33.6043    5.1361 H         1 8C5         0.0319
     56 H20        -1.6528   34.5873    6.6363 H         1 8C5         0.0319
     57 H21        -2.9883   32.0760    6.0528 H         1 8C5         0.0319
     58 H22        -3.0643   33.0441    7.5639 H         1 8C5         0.0319
     59 H23        -1.9709   31.1679    8.4670 H         1 8C5         0.0814
     60 H24        -1.2829   30.6807    6.8808 H         1 8C5         0.0814
     61 H25         5.5764   27.9189    5.5621 H         1 8C5         0.0647
     62 H26         7.0115   27.0758    2.9994 H         1 8C5         0.0294
     63 H27         7.7014   28.1056    4.2995 H         1 8C5         0.0294
     64 H28         6.9156   29.5288    2.4888 H         1 8C5         0.0266
     65 H29         5.8510   29.7530    3.9181 H         1 8C5         0.0266
     66 H30         5.2665   28.0791    1.4482 H         1 8C5         0.0265
     67 H31         4.5086   29.6422    1.9056 H         1 8C5         0.0265
     68 H32         3.2091   27.5449    2.4989 H         1 8C5         0.0266
     69 H33         3.4992   28.7212    3.8251 H         1 8C5         0.0266
     70 H34         3.7661   26.5750    4.8048 H         1 8C5         0.0294
     71 H35         4.7245   25.9594    3.4159 H         1 8C5         0.0294
@<TRIPOS>BOND
     1    1    2 1  
     2    2    3 1  
     3    3    4 am 
     4    4    5 2  
     5    4    6 1  
     6    6    7 2  
     7    6   15 1  
     8    7    8 1  
     9    8    9 1  
    10    8   31 1  
    11    9   10 ar 
    12    9   14 ar 
    13   10   11 ar 
    14   11   12 ar 
    15   11   17 1  
    16   12   13 ar 
    17   13   14 ar 
    18   14   15 1  
    19   15   16 2  
    20   17   18 1  
    21   18   19 ar 
    22   18   23 ar 
    23   19   20 ar 
    24   20   21 ar 
    25   21   22 ar 
    26   21   24 1  
    27   22   23 ar 
    28   24   25 1  
    29   25   26 1  
    30   26   27 1  
    31   26   30 1  
    32   27   28 1  
    33   28   29 1  
    34   29   30 1  
    35   31   32 1  
    36   31   36 1  
    37   32   33 1  
    38   33   34 1  
    39   34   35 1  
    40   35   36 1  
    41    1   37 1  
    42    1   38 1  
    43    1   39 1  
    44    3   40 1  
    45    7   41 1  
    46   13   42 1  
    47   17   43 1  
    48   19   44 1  
    49   20   45 1  
    50   22   46 1  
    51   23   47 1  
    52   24   48 1  
    53   24   49 1  
    54   25   50 1  
    55   25   51 1  
    56   26   52 1  
    57   27   53 1  
    58   27   54 1  
    59   28   55 1  
    60   28   56 1  
    61   29   57 1  
    62   29   58 1  
    63   30   59 1  
    64   30   60 1  
    65   31   61 1  
    66   32   62 1  
    67   32   63 1  
    68   33   64 1  
    69   33   65 1  
    70   34   66 1  
    71   34   67 1  
    72   35   68 1  
    73   35   69 1  
    74   36   70 1  
    75   36   71 1  
@<TRIPOS>SUBSTRUCTURE
     1 8C5         1

