### 
### Created by X-TOOL on Mon Sep 10 21:12:59 2018
### 

@<TRIPOS>MOLECULE
3drf_ligand
   96    95     1     0     0
SMALL
GAST_HUCK


@<TRIPOS>ATOM
      1 N          19.3070   45.7990   20.8730 N.4       1 ALA         0.2377
      2 CA         18.1080   45.5290   21.6420 C.3       1 ALA         0.0621
      3 C          18.1600   46.3540   22.9600 C.2       1 ALA         0.2265
      4 O          19.1420   46.3510   23.6510 O.2       1 ALA        -0.3907
      5 CB         17.9970   43.9620   21.8380 C.3       1 ALA        -0.0040
      6 N          17.0640   47.0250   23.2710 N.am      1 SER        -0.2589
      7 CA         17.0630   47.9510   24.3930 C.3       1 SER         0.1540
      8 C          15.6560   48.0240   25.0170 C.2       1 SER         0.2063
      9 O          14.7150   47.6050   24.4720 O.2       1 SER        -0.3943
     10 CB         17.5560   49.3200   23.9460 C.3       1 SER         0.0843
     11 OG         16.6370   49.8240   23.0160 O.3       1 SER        -0.3903
     12 N          15.6010   48.5680   26.2020 N.am      1 ASN        -0.2615
     13 CA         14.3260   48.8350   26.8910 C.3       1 ASN         0.1476
     14 C          13.6730   50.0630   26.2760 C.2       1 ASN         0.2063
     15 O          14.3260   51.0180   26.0560 O.2       1 ASN        -0.3942
     16 CB         14.5150   49.0830   28.4100 C.3       1 ASN         0.0773
     17 CG         15.0990   47.8890   29.1540 C.2       1 ASN         0.1780
     18 OD1        14.4820   46.8760   29.2880 O.2       1 ASN        -0.3970
     19 ND2        16.3250   48.0330   29.6040 N.am      1 ASN        -0.3007
     20 N          12.3680   49.9650   26.0100 N.am      1 SER        -0.2614
     21 CA         11.5750   51.0650   25.4310 C.3       1 SER         0.1539
     22 C          10.2780   51.2400   26.2230 C.2       1 SER         0.2062
     23 O           9.6740   50.3170   26.6070 O.2       1 SER        -0.3943
     24 CB         11.3010   50.8280   23.9280 C.3       1 SER         0.0843
     25 OG         12.5380   50.9600   23.1540 O.3       1 SER        -0.3903
     26 N           9.9130   52.4850   26.4270 N.am      1 ILE        -0.2634
     27 CA          8.6790   52.8420   27.1130 C.3       1 ILE         0.1335
     28 C           7.4700   52.5930   26.2220 C.2       1 ILE         0.2041
     29 O           7.3910   53.0890   25.1220 O.2       1 ILE        -0.3944
     30 CB          8.6820   54.3440   27.4010 C.3       1 ILE        -0.0037
     31 CG1         9.8940   54.7700   28.2560 C.3       1 ILE        -0.0491
     32 CG2         7.4270   54.7520   28.0670 C.3       1 ILE        -0.0582
     33 CD1         9.9940   56.3340   28.4150 C.3       1 ILE        -0.0648
     34 N           6.5500   51.8030   26.7130 N.am      1 ALA        -0.2640
     35 CA          5.3650   51.4160   25.9590 C.3       1 ALA         0.1282
     36 C           4.1590   52.2530   26.4190 C.2       1 ALA         0.2037
     37 O           4.0760   52.6160   27.4990 O.2       1 ALA        -0.3944
     38 CB          5.0800   49.8860   26.1400 C.3       1 ALA        -0.0244
     39 N           3.2610   52.5340   25.4900 N.am      1 SER        -0.2616
     40 CA          2.0820   53.3590   25.7960 C.3       1 SER         0.1539
     41 C           0.9810   52.6430   26.5560 C.2       1 SER         0.2054
     42 O           0.2770   53.2900   27.2750 O.2       1 SER        -0.3943
     43 CB          1.5580   53.9880   24.5400 C.3       1 SER         0.0843
     44 OG          1.1640   53.0100   23.6040 O.3       1 SER        -0.3903
     45 N           0.8950   51.3360   26.4520 N.am      1 GLY        -0.2721
     46 CA         -0.1770   50.6380   27.1320 C.3       1 GLY         0.0833
     47 C           0.3210   50.1770   28.4570 C.2       1 GLY         0.0570
     48 O           1.0881   49.1775   28.4403 O.co2     1 GLY        -0.5669
     49 O48        -0.0048   50.7515   29.5300 O.co2     1 GLY        -0.5669
     50 H1         19.2831   45.2687   20.0161 H         1 ALA         0.2015
     51 H2         20.1176   45.5333   21.4100 H         1 ALA         0.2015
     52 H3         19.3540   46.7827   20.6581 H         1 ALA         0.2015
     53 H4         17.2290   45.8626   21.0710 H         1 ALA         0.1095
     54 H5         17.0933   43.7284   22.4200 H         1 ALA         0.0310
     55 H6         18.8841   43.5959   22.3756 H         1 ALA         0.0310
     56 H7         17.9364   43.4728   20.8546 H         1 ALA         0.0310
     57 H8         16.2316   46.8953   22.7323 H         1 SER         0.1885
     58 H9         17.7568   47.5715   25.1576 H         1 SER         0.0823
     59 H10        18.5476   49.2265   23.4791 H         1 SER         0.0606
     60 H11        17.6206   49.9954   24.8118 H         1 SER         0.0606
     61 H12        16.9238   50.6804   22.7213 H         1 SER         0.2097
     62 H13        16.4559   48.8128   26.6595 H         1 ASN         0.1885
     63 H14        13.6660   47.9655   26.7556 H         1 ASN         0.0826
     64 H15        13.5345   49.3204   28.8484 H         1 ASN         0.0551
     65 H16        15.1924   49.9397   28.5410 H         1 ASN         0.0551
     66 H17        16.7661   47.2858   30.1011 H         1 ASN         0.1814
     67 H18        16.8170   48.8898   29.4494 H         1 ASN         0.1814
     68 H19        11.9053   49.1022   26.2137 H         1 SER         0.1884
     69 H20        12.1583   51.9930   25.5231 H         1 SER         0.0823
     70 H21        10.5704   51.5692   23.5719 H         1 SER         0.0606
     71 H22        10.8936   49.8157   23.7895 H         1 SER         0.0606
     72 H23        12.8909   51.8343   23.2698 H         1 SER         0.2097
     73 H24        10.5074   53.2186   26.0975 H         1 ILE         0.1883
     74 H25         8.5927   52.2661   28.0462 H         1 ILE         0.0803
     75 H26         8.7461   54.8703   26.4372 H         1 ILE         0.0345
     76 H27        10.8127   54.4041   27.7743 H         1 ILE         0.0267
     77 H28         9.7986   54.3185   29.2545 H         1 ILE         0.0267
     78 H29         6.5687   54.4448   27.4515 H         1 ILE         0.0235
     79 H30         7.4165   55.8449   28.1915 H         1 ILE         0.0235
     80 H31         7.3619   54.2699   29.0536 H         1 ILE         0.0235
     81 H32        10.8708   56.5847   29.0302 H         1 ILE         0.0230
     82 H33         9.0835   56.7119   28.9031 H         1 ILE         0.0230
     83 H34        10.0976   56.7976   27.4229 H         1 ILE         0.0230
     84 H35         6.6646   51.4511   27.6420 H         1 ALA         0.1883
     85 H36         5.5446   51.6145   24.8921 H         1 ALA         0.0797
     86 H37         4.1836   49.6096   25.5655 H         1 ALA         0.0277
     87 H38         4.9146   49.6673   27.2053 H         1 ALA         0.0277
     88 H39         5.9416   49.3070   25.7762 H         1 ALA         0.0277
     89 H40         3.3854   52.1795   24.5632 H         1 SER         0.1884
     90 H41         2.4293   54.1731   26.4491 H         1 SER         0.0823
     91 H42         2.3471   54.6122   24.0955 H         1 SER         0.0606
     92 H43         0.6900   54.6162   24.7888 H         1 SER         0.0606
     93 H44         1.9109   52.4667   23.3820 H         1 SER         0.2097
     94 H45         1.5632   50.8279   25.9086 H         1 GLY         0.1873
     95 H46        -0.4932   49.7712   26.5331 H         1 GLY         0.0689
     96 H47        -1.0306   51.3173   27.2730 H         1 GLY         0.0689
@<TRIPOS>BOND
     1    1    2 1  
     2    2    3 1  
     3    2    5 1  
     4    3    4 2  
     5    3    6 am 
     6    6    7 1  
     7    7    8 1  
     8    7   10 1  
     9    8    9 2  
    10    8   12 am 
    11   10   11 1  
    12   12   13 1  
    13   13   14 1  
    14   13   16 1  
    15   14   15 2  
    16   14   20 am 
    17   16   17 1  
    18   17   18 2  
    19   17   19 am 
    20   20   21 1  
    21   21   22 1  
    22   21   24 1  
    23   22   23 2  
    24   22   26 am 
    25   24   25 1  
    26   26   27 1  
    27   27   28 1  
    28   27   30 1  
    29   28   29 2  
    30   28   34 am 
    31   30   31 1  
    32   30   32 1  
    33   31   33 1  
    34   34   35 1  
    35   35   36 1  
    36   35   38 1  
    37   36   37 2  
    38   36   39 am 
    39   39   40 1  
    40   40   41 1  
    41   40   43 1  
    42   41   42 2  
    43   41   45 am 
    44   43   44 1  
    45   45   46 1  
    46   46   47 1  
    47   47   48 ar 
    48   47   49 ar 
    49    1   50 1  
    50    1   51 1  
    51    1   52 1  
    52    2   53 1  
    53    5   54 1  
    54    5   55 1  
    55    5   56 1  
    56    6   57 1  
    57    7   58 1  
    58   10   59 1  
    59   10   60 1  
    60   11   61 1  
    61   12   62 1  
    62   13   63 1  
    63   16   64 1  
    64   16   65 1  
    65   19   66 1  
    66   19   67 1  
    67   20   68 1  
    68   21   69 1  
    69   24   70 1  
    70   24   71 1  
    71   25   72 1  
    72   26   73 1  
    73   27   74 1  
    74   30   75 1  
    75   31   76 1  
    76   31   77 1  
    77   32   78 1  
    78   32   79 1  
    79   32   80 1  
    80   33   81 1  
    81   33   82 1  
    82   33   83 1  
    83   34   84 1  
    84   35   85 1  
    85   38   86 1  
    86   38   87 1  
    87   38   88 1  
    88   39   89 1  
    89   40   90 1  
    90   43   91 1  
    91   43   92 1  
    92   44   93 1  
    93   45   94 1  
    94   46   95 1  
    95   46   96 1  
@<TRIPOS>SUBSTRUCTURE
     1 ALA         1

