### 
### Created by X-TOOL on Mon Sep 10 21:13:01 2018
### 

@<TRIPOS>MOLECULE
3drg_ligand
  137   141     1     0     0
SMALL
GAST_HUCK


@<TRIPOS>ATOM
      1 N         -15.2920   -4.4520   24.6480 N.4       1 ARG         0.2379
      2 CA        -15.6150   -3.4110   23.6270 C.3       1 ARG         0.0653
      3 C         -15.0980   -3.7860   22.2270 C.2       1 ARG         0.2292
      4 O         -15.9050   -4.1050   21.3590 O.2       1 ARG        -0.3905
      5 CB        -15.1210   -2.0230   24.0750 C.3       1 ARG         0.0110
      6 CG        -15.0830   -0.9510   22.9770 C.3       1 ARG        -0.0125
      7 CD        -14.0650    0.1490   23.2800 C.3       1 ARG         0.0629
      8 NE        -12.6900   -0.3410   23.3860 N.pl3     1 ARG        -0.2723
      9 CZ        -11.9850   -0.3980   24.5160 C.cat     1 ARG         0.2882
     10 NH1       -10.7440   -0.8690   24.4970 N.pl3     1 ARG        -0.2849
     11 NH2       -12.5100    0.0160   25.6630 N.pl3     1 ARG        -0.2849
     12 N         -13.7630   -3.7600   22.0020 N.am      1 PRO        -0.2471
     13 CA        -13.2960   -3.9720   20.6340 C.3       1 PRO         0.1341
     14 C         -13.0990   -5.4580   20.3120 C.2       1 PRO         0.2066
     15 O         -13.0210   -6.2750   21.2340 O.2       1 PRO        -0.3942
     16 CB        -11.9530   -3.2340   20.6140 C.3       1 PRO        -0.0104
     17 CG        -11.4700   -3.2560   22.0450 C.3       1 PRO        -0.0281
     18 CD        -12.6260   -3.6540   22.9390 C.3       1 PRO         0.0371
     19 N         -13.0300   -5.8150   19.0130 N.am      1 PRO        -0.2498
     20 CA        -12.7300   -7.2080   18.6740 C.3       1 PRO         0.1338
     21 C         -11.3410   -7.6230   19.1690 C.2       1 PRO         0.2039
     22 O         -10.4200   -6.8040   19.1910 O.2       1 PRO        -0.3944
     23 CB        -12.7870   -7.2230   17.1410 C.3       1 PRO        -0.0104
     24 CG        -12.6200   -5.8010   16.7290 C.3       1 PRO        -0.0281
     25 CD        -13.2620   -4.9960   17.8090 C.3       1 PRO         0.0369
     26 N         -11.2090   -8.8810   19.5810 N.am      1 GLY        -0.2664
     27 CA         -9.9350   -9.4080   20.0650 C.3       1 GLY         0.1201
     28 C          -9.7360  -10.8730   19.7310 C.2       1 GLY         0.2009
     29 O         -10.6910  -11.6520   19.7310 O.2       1 GLY        -0.3947
     30 N          -8.4920  -11.2440   19.4380 N.am      1 PHE        -0.2622
     31 CA         -8.1320  -12.6390   19.1960 C.3       1 PHE         0.1404
     32 C          -8.2160  -13.4360   20.4970 C.2       1 PHE         0.2060
     33 O          -7.6260  -13.0540   21.5090 O.2       1 PHE        -0.3942
     34 CB         -6.7210  -12.7450   18.6070 C.3       1 PHE         0.0214
     35 CG         -6.6040  -12.2360   17.1940 C.ar      1 PHE        -0.0386
     36 CD1        -6.7680  -13.1000   16.1160 C.ar      1 PHE        -0.0601
     37 CD2        -6.3160  -10.8990   16.9400 C.ar      1 PHE        -0.0601
     38 CE1        -6.6560  -12.6400   14.8080 C.ar      1 PHE        -0.0686
     39 CE2        -6.2060  -10.4300   15.6370 C.ar      1 PHE        -0.0686
     40 CZ         -6.3740  -11.3030   14.5680 C.ar      1 PHE        -0.0687
     41 N          -8.9670  -14.5330   20.4650 N.am      1 SER        -0.2614
     42 CA         -9.1120  -15.4060   21.6240 C.3       1 SER         0.1541
     43 C          -8.4080  -16.7380   21.3620 C.2       1 SER         0.2087
     44 O          -8.2520  -17.1250   20.2020 O.2       1 SER        -0.3941
     45 CB        -10.5930  -15.6250   21.9500 C.3       1 SER         0.0843
     46 OG        -11.2820  -16.2050   20.8560 O.3       1 SER        -0.3903
     47 N          -7.9640  -17.4290   22.4350 N.am      1 PRO        -0.2498
     48 CA         -7.2730  -18.7250   22.3290 C.3       1 PRO         0.1338
     49 C          -8.0390  -19.8250   21.5730 C.2       1 PRO         0.2042
     50 O          -7.4210  -20.5630   20.8030 O.2       1 PRO        -0.3944
     51 CB         -7.0410  -19.1320   23.7950 C.3       1 PRO        -0.0104
     52 CG         -7.8630  -18.1860   24.6160 C.3       1 PRO        -0.0281
     53 CD         -7.9550  -16.9320   23.8210 C.3       1 PRO         0.0369
     54 N          -9.3530  -19.9300   21.7980 N.am      1 PHE        -0.2619
     55 CA        -10.2380  -20.9010   21.1130 C.3       1 PHE         0.1404
     56 C         -11.3230  -21.4380   22.0610 C.2       1 PHE         0.2054
     57 O         -11.6480  -22.6300   22.0440 O.2       1 PHE        -0.3942
     58 CB         -9.4420  -22.0670   20.4970 C.3       1 PHE         0.0214
     59 CG        -10.0270  -22.6020   19.2120 C.ar      1 PHE        -0.0386
     60 CD1        -9.7590  -21.9770   17.9960 C.ar      1 PHE        -0.0601
     61 CD2       -10.8290  -23.7450   19.2140 C.ar      1 PHE        -0.0601
     62 CE1       -10.2910  -22.4710   16.8040 C.ar      1 PHE        -0.0686
     63 CE2       -11.3660  -24.2480   18.0260 C.ar      1 PHE        -0.0686
     64 CZ        -11.0950  -23.6090   16.8190 C.ar      1 PHE        -0.0687
     65 N         -11.8750  -20.5460   22.8840 N.am      1 ALA        -0.2696
     66 CA        -12.9000  -20.9030   23.8700 C.3       1 ALA         0.0916
     67 C         -13.7880  -19.7040   24.2210 C.2       1 ALA         0.0598
     68 O         -13.5880  -19.0182   25.2589 O.co2     1 ALA        -0.5666
     69 CB        -12.2550  -21.4910   25.1280 C.3       1 ALA        -0.0300
     70 O65       -14.7396  -19.3972   23.4543 O.co2     1 ALA        -0.5666
     71 H1        -15.6487   -4.1642   25.5458 H         1 ARG         0.2015
     72 H2        -14.2923   -4.5678   24.7052 H         1 ARG         0.2015
     73 H3        -15.7170   -5.3265   24.3823 H         1 ARG         0.2015
     74 H4        -16.7115   -3.3567   23.5578 H         1 ARG         0.1098
     75 H5        -14.1018   -2.1377   24.4725 H         1 ARG         0.0347
     76 H6        -15.7882   -1.6669   24.8737 H         1 ARG         0.0347
     77 H7        -16.0809   -0.4963   22.8908 H         1 ARG         0.0302
     78 H8        -14.8145   -1.4295   22.0236 H         1 ARG         0.0302
     79 H9        -14.3395    0.6245   24.2332 H         1 ARG         0.0689
     80 H10       -14.1075    0.8947   22.4725 H         1 ARG         0.0689
     81 H11       -12.2325   -0.6663   22.5224 H         1 ARG         0.2642
     82 H12       -10.1969   -0.9142   25.3685 H         1 ARG         0.2615
     83 H13       -10.3282   -1.1892   23.6107 H         1 ARG         0.2615
     84 H14       -13.4722    0.3828   25.6863 H         1 ARG         0.2615
     85 H15       -11.9551   -0.0296   26.5296 H         1 ARG         0.2615
     86 H16       -13.9990   -3.5344   19.9100 H         1 PRO         0.0802
     87 H17       -12.0865   -2.1986   20.2675 H         1 PRO         0.0313
     88 H18       -11.2380   -3.7511   19.9572 H         1 PRO         0.0313
     89 H19       -11.1085   -2.2568   22.3295 H         1 PRO         0.0287
     90 H20       -10.6529   -3.9850   22.1492 H         1 PRO         0.0287
     91 H21       -12.4296   -4.6184   23.4303 H         1 PRO         0.0524
     92 H22       -12.8157   -2.8853   23.7027 H         1 PRO         0.0524
     93 H23       -13.4852   -7.8840   19.1015 H         1 PRO         0.0802
     94 H24       -13.7554   -7.6134   16.7950 H         1 PRO         0.0313
     95 H25       -11.9747   -7.8411   16.7310 H         1 PRO         0.0313
     96 H26       -13.1184   -5.6186   15.7655 H         1 PRO         0.0287
     97 H27       -11.5529   -5.5481   16.6435 H         1 PRO         0.0287
     98 H28       -12.7851   -4.0093   17.9037 H         1 PRO         0.0524
     99 H29       -14.3378   -4.8666   17.6197 H         1 PRO         0.0524
    100 H30       -12.0061   -9.4845   19.5588 H         1 GLY         0.1881
    101 H31        -9.8989   -9.2895   21.1580 H         1 GLY         0.0763
    102 H32        -9.1193   -8.8298   19.6063 H         1 GLY         0.0763
    103 H33        -7.7797  -10.5444   19.3816 H         1 PHE         0.1885
    104 H34        -8.8453  -13.0643   18.4747 H         1 PHE         0.0823
    105 H35        -6.4204  -13.8030   18.6189 H         1 PHE         0.0474
    106 H36        -6.0371  -12.1623   19.2417 H         1 PHE         0.0474
    107 H37        -6.9861  -14.1462   16.2979 H         1 PHE         0.0557
    108 H38        -6.1757  -10.2147   17.7689 H         1 PHE         0.0557
    109 H39        -6.7888  -13.3247   13.9781 H         1 PHE         0.0599
    110 H40        -5.9893   -9.3838   15.4538 H         1 PHE         0.0599
    111 H41        -6.2849  -10.9402   13.5504 H         1 PHE         0.0559
    112 H42        -9.4474  -14.7666   19.6196 H         1 SER         0.1884
    113 H43        -8.6343  -14.9227   22.4890 H         1 SER         0.0823
    114 H44       -11.0540  -14.6556   22.1901 H         1 SER         0.0606
    115 H45       -10.6732  -16.2944   22.8191 H         1 SER         0.0606
    116 H46       -11.2201  -15.6291   20.1030 H         1 SER         0.2097
    117 H47        -6.3088  -18.5782   21.8204 H         1 PRO         0.0802
    118 H48        -5.9762  -19.0387   24.0546 H         1 PRO         0.0313
    119 H49        -7.3695  -20.1685   23.9614 H         1 PRO         0.0313
    120 H50        -7.3731  -17.9920   25.5816 H         1 PRO         0.0287
    121 H51        -8.8658  -18.6028   24.7908 H         1 PRO         0.0287
    122 H52        -8.8797  -16.3828   24.0517 H         1 PRO         0.0524
    123 H53        -7.0869  -16.2816   24.0038 H         1 PRO         0.0524
    124 H54        -9.7640  -19.3147   22.4707 H         1 PHE         0.1885
    125 H55       -10.7413  -20.3686   20.2925 H         1 PHE         0.0823
    126 H56        -9.4086  -22.8873   21.2291 H         1 PHE         0.0474
    127 H57        -8.4196  -21.7169   20.2916 H         1 PHE         0.0474
    128 H58        -9.1288  -21.0952   17.9754 H         1 PHE         0.0557
    129 H59       -11.0380  -24.2494   20.1505 H         1 PHE         0.0557
    130 H60       -10.0788  -21.9695   15.8667 H         1 PHE         0.0599
    131 H61       -11.9917  -25.1330   18.0441 H         1 PHE         0.0599
    132 H62       -11.5080  -23.9954   15.8942 H         1 PHE         0.0559
    133 H63       -11.5774  -19.5931   22.8264 H         1 ALA         0.1875
    134 H64       -13.5417  -21.6771   23.4238 H         1 ALA         0.0723
    135 H65       -13.0389  -21.7520   25.8542 H         1 ALA         0.0270
    136 H66       -11.5756  -20.7490   25.5728 H         1 ALA         0.0270
    137 H67       -11.6872  -22.3945   24.8609 H         1 ALA         0.0270
@<TRIPOS>BOND
     1    1    2 1  
     2    2    3 1  
     3    2    5 1  
     4    3    4 2  
     5    3   12 am 
     6    5    6 1  
     7    6    7 1  
     8    7    8 1  
     9    8    9 ar 
    10    9   10 ar 
    11    9   11 ar 
    12   12   13 1  
    13   12   18 1  
    14   13   14 1  
    15   13   16 1  
    16   14   15 2  
    17   14   19 am 
    18   16   17 1  
    19   17   18 1  
    20   19   20 1  
    21   19   25 1  
    22   20   21 1  
    23   20   23 1  
    24   21   22 2  
    25   21   26 am 
    26   23   24 1  
    27   24   25 1  
    28   26   27 1  
    29   27   28 1  
    30   28   29 2  
    31   28   30 am 
    32   30   31 1  
    33   31   32 1  
    34   31   34 1  
    35   32   33 2  
    36   32   41 am 
    37   34   35 1  
    38   35   36 ar 
    39   35   37 ar 
    40   36   38 ar 
    41   37   39 ar 
    42   38   40 ar 
    43   39   40 ar 
    44   41   42 1  
    45   42   43 1  
    46   42   45 1  
    47   43   44 2  
    48   43   47 am 
    49   45   46 1  
    50   47   48 1  
    51   47   53 1  
    52   48   49 1  
    53   48   51 1  
    54   49   50 2  
    55   49   54 am 
    56   51   52 1  
    57   52   53 1  
    58   54   55 1  
    59   55   56 1  
    60   55   58 1  
    61   56   57 2  
    62   56   65 am 
    63   58   59 1  
    64   59   60 ar 
    65   59   61 ar 
    66   60   62 ar 
    67   61   63 ar 
    68   62   64 ar 
    69   63   64 ar 
    70   65   66 1  
    71   66   67 1  
    72   66   69 1  
    73   67   68 ar 
    74   67   70 ar 
    75    1   71 1  
    76    1   72 1  
    77    1   73 1  
    78    2   74 1  
    79    5   75 1  
    80    5   76 1  
    81    6   77 1  
    82    6   78 1  
    83    7   79 1  
    84    7   80 1  
    85    8   81 1  
    86   10   82 1  
    87   10   83 1  
    88   11   84 1  
    89   11   85 1  
    90   13   86 1  
    91   16   87 1  
    92   16   88 1  
    93   17   89 1  
    94   17   90 1  
    95   18   91 1  
    96   18   92 1  
    97   20   93 1  
    98   23   94 1  
    99   23   95 1  
   100   24   96 1  
   101   24   97 1  
   102   25   98 1  
   103   25   99 1  
   104   26  100 1  
   105   27  101 1  
   106   27  102 1  
   107   30  103 1  
   108   31  104 1  
   109   34  105 1  
   110   34  106 1  
   111   36  107 1  
   112   37  108 1  
   113   38  109 1  
   114   39  110 1  
   115   40  111 1  
   116   41  112 1  
   117   42  113 1  
   118   45  114 1  
   119   45  115 1  
   120   46  116 1  
   121   48  117 1  
   122   51  118 1  
   123   51  119 1  
   124   52  120 1  
   125   52  121 1  
   126   53  122 1  
   127   53  123 1  
   128   54  124 1  
   129   55  125 1  
   130   58  126 1  
   131   58  127 1  
   132   60  128 1  
   133   61  129 1  
   134   62  130 1  
   135   63  131 1  
   136   64  132 1  
   137   65  133 1  
   138   66  134 1  
   139   69  135 1  
   140   69  136 1  
   141   69  137 1  
@<TRIPOS>SUBSTRUCTURE
     1 ARG         1

