### 
### Created by X-TOOL on Mon Sep 10 21:12:59 2018
### 

@<TRIPOS>MOLECULE
3dri_ligand
   65    64     1     0     0
SMALL
GAST_HUCK


@<TRIPOS>ATOM
      1 N          -3.6910   21.7610   -1.4650 N.4       1 ALA         0.2377
      2 CA         -3.8750   20.5110   -2.2770 C.3       1 ALA         0.0621
      3 C          -2.6900   19.5610   -2.1860 C.2       1 ALA         0.2264
      4 O          -2.7690   18.4180   -2.6540 O.2       1 ALA        -0.3907
      5 CB         -4.1530   20.8610   -3.7160 C.3       1 ALA        -0.0040
      6 N          -1.5920   20.0460   -1.6110 N.am      1 ALA        -0.2613
      7 CA         -0.4270   19.2250   -1.3090 C.3       1 ALA         0.1283
      8 C          -0.4580   18.8200    0.1610 C.2       1 ALA         0.2037
      9 O          -0.2540   17.6610    0.5050 O.2       1 ALA        -0.3944
     10 CB          0.8390   20.0180   -1.5960 C.3       1 ALA        -0.0244
     11 N          -0.7070   19.7970    1.0250 N.am      1 SER        -0.2616
     12 CA         -0.5960   19.6010    2.4550 C.3       1 SER         0.1539
     13 C          -1.9790   19.3680    3.0590 C.2       1 SER         0.2062
     14 O          -2.9850   19.8330    2.5180 O.2       1 SER        -0.3943
     15 CB          0.0980   20.8110    3.0860 C.3       1 SER         0.0843
     16 OG          1.3620   21.0450    2.4550 O.3       1 SER        -0.3903
     17 N          -2.0080   18.6420    4.1750 N.am      1 ALA        -0.2639
     18 CA         -3.2520   18.2770    4.8540 C.3       1 ALA         0.1282
     19 C          -3.2120   18.7060    6.3060 C.2       1 ALA         0.2037
     20 O          -2.1570   18.6860    6.9390 O.2       1 ALA        -0.3944
     21 CB         -3.4660   16.7620    4.7870 C.3       1 ALA        -0.0244
     22 N          -4.3800   19.0650    6.8310 N.am      1 SER        -0.2616
     23 CA         -4.5800   19.1550    8.2730 C.3       1 SER         0.1539
     24 C          -4.1130   17.8430    8.9170 C.2       1 SER         0.2056
     25 O          -4.5140   16.7560    8.4950 O.2       1 SER        -0.3943
     26 CB         -6.0640   19.4040    8.5970 C.3       1 SER         0.0843
     27 OG         -6.5120   20.6850    8.1420 O.3       1 SER        -0.3903
     28 N          -3.2410   17.9380    9.9110 N.am      1 ALA        -0.2697
     29 CA         -2.7820   16.7600   10.6310 C.3       1 ALA         0.0916
     30 C          -1.5020   17.0280   11.3810 C.2       1 ALA         0.0598
     31 O          -0.9947   16.1115   12.0812 O.co2     1 ALA        -0.5666
     32 CB         -2.5940   15.5570    9.6820 C.3       1 ALA        -0.0300
     33 O30        -0.9456   18.1561   11.3085 O.co2     1 ALA        -0.5666
     34 H1         -4.5040   22.3487   -1.5640 H         1 ALA         0.2015
     35 H2         -2.8763   22.2568   -1.7913 H         1 ALA         0.2015
     36 H3         -3.5693   21.5165   -0.4947 H         1 ALA         0.2015
     37 H4         -4.7538   19.9833   -1.8781 H         1 ALA         0.1095
     38 H5         -4.2856   19.9376   -4.2989 H         1 ALA         0.0310
     39 H6         -3.3073   21.4339   -4.1240 H         1 ALA         0.0310
     40 H7         -5.0691   21.4669   -3.7756 H         1 ALA         0.0310
     41 H8         -1.5655   21.0176   -1.3757 H         1 ALA         0.1884
     42 H9         -0.4426   18.3220   -1.9370 H         1 ALA         0.0797
     43 H10         1.7191   19.3987   -1.3682 H         1 ALA         0.0277
     44 H11         0.8551   20.9223   -0.9700 H         1 ALA         0.0277
     45 H12         0.8584   20.3063   -2.6573 H         1 ALA         0.0277
     46 H13        -0.9792   20.6944    0.6777 H         1 SER         0.1884
     47 H14         0.0195   18.7090    2.6435 H         1 SER         0.0823
     48 H15         0.2574   20.6198    4.1574 H         1 SER         0.0606
     49 H16        -0.5388   21.6994    2.9628 H         1 SER         0.0606
     50 H17         1.7805   21.7976    2.8563 H         1 SER         0.2097
     51 H18        -1.1414   18.3325    4.5664 H         1 ALA         0.1883
     52 H19        -4.0911   18.7821    4.3532 H         1 ALA         0.0797
     53 H20        -4.4032   16.5011    5.3003 H         1 ALA         0.0277
     54 H21        -2.6246   16.2508    5.2776 H         1 ALA         0.0277
     55 H22        -3.5239   16.4460    3.7350 H         1 ALA         0.0277
     56 H23        -5.1423   19.2792    6.2202 H         1 SER         0.1884
     57 H24        -3.9825   19.9886    8.6706 H         1 SER         0.0823
     58 H25        -6.2024   19.3475    9.6868 H         1 SER         0.0606
     59 H26        -6.6681   18.6245    8.1097 H         1 SER         0.0606
     60 H27        -7.4295   20.7950    8.3625 H         1 SER         0.2097
     61 H28        -2.8915   18.8380   10.1713 H         1 ALA         0.1875
     62 H29        -3.5564   16.4954   11.3660 H         1 ALA         0.0723
     63 H30        -2.2474   14.6863   10.2580 H         1 ALA         0.0270
     64 H31        -1.8480   15.8090    8.9139 H         1 ALA         0.0270
     65 H32        -3.5525   15.3185    9.1980 H         1 ALA         0.0270
@<TRIPOS>BOND
     1    1    2 1  
     2    2    3 1  
     3    2    5 1  
     4    3    4 2  
     5    3    6 am 
     6    6    7 1  
     7    7    8 1  
     8    7   10 1  
     9    8    9 2  
    10    8   11 am 
    11   11   12 1  
    12   12   13 1  
    13   12   15 1  
    14   13   14 2  
    15   13   17 am 
    16   15   16 1  
    17   17   18 1  
    18   18   19 1  
    19   18   21 1  
    20   19   20 2  
    21   19   22 am 
    22   22   23 1  
    23   23   24 1  
    24   23   26 1  
    25   24   25 2  
    26   24   28 am 
    27   26   27 1  
    28   28   29 1  
    29   29   30 1  
    30   29   32 1  
    31   30   31 ar 
    32   30   33 ar 
    33    1   34 1  
    34    1   35 1  
    35    1   36 1  
    36    2   37 1  
    37    5   38 1  
    38    5   39 1  
    39    5   40 1  
    40    6   41 1  
    41    7   42 1  
    42   10   43 1  
    43   10   44 1  
    44   10   45 1  
    45   11   46 1  
    46   12   47 1  
    47   15   48 1  
    48   15   49 1  
    49   16   50 1  
    50   17   51 1  
    51   18   52 1  
    52   21   53 1  
    53   21   54 1  
    54   21   55 1  
    55   22   56 1  
    56   23   57 1  
    57   26   58 1  
    58   26   59 1  
    59   27   60 1  
    60   28   61 1  
    61   29   62 1  
    62   32   63 1  
    63   32   64 1  
    64   32   65 1  
@<TRIPOS>SUBSTRUCTURE
     1 ALA         1

