### 
### Created by X-TOOL on Mon Sep 10 21:12:57 2018
### 

@<TRIPOS>MOLECULE
3drp_ligand
   42    45     1     0     0
SMALL
GAST_HUCK


@<TRIPOS>ATOM
      1 CL29       13.0190   11.9830   15.4960 Cl        1 R8E        -0.0876
      2 C13        11.3250   12.3690   15.1180 C.ar      1 R8E         0.0607
      3 C8         10.5430   12.2520   16.1620 C.ar      1 R8E         0.1219
      4 O7         11.2340   11.9040   17.2670 O.3       1 R8E        -0.2578
      5 C4         10.8940   12.5120   18.4920 C.ar      1 R8E         0.1271
      6 C3         10.4590   11.6940   19.5590 C.ar      1 R8E         0.0063
      7 C2         10.1010   12.2370   20.7920 C.ar      1 R8E         0.0886
      8 C26         9.7680   11.4910   21.7840 C.1       1 R8E         0.0979
      9 N27         9.4830   10.8500   22.6380 N.1       1 R8E        -0.3283
     10 C5         10.9420   13.9140   18.6470 C.ar      1 R8E        -0.0058
     11 C6         10.5810   14.4390   19.9220 C.ar      1 R8E         0.0439
     12 CL28       10.6090   16.1840   20.2970 Cl        1 R8E        -0.0711
     13 C1         10.1750   13.6450   20.9950 C.ar      1 R8E        -0.0234
     14 C12        10.8900   12.7720   13.8970 C.ar      1 R8E        -0.0640
     15 C11         9.5550   13.0510   13.8650 C.ar      1 R8E        -0.0423
     16 C10         8.7310   12.9360   14.9050 C.ar      1 R8E         0.0895
     17 C9          9.1780   12.5060   16.0970 C.ar      1 R8E         0.0004
     18 O14         7.4210   13.2700   14.7690 O.3       1 R8E        -0.2911
     19 C15         6.6560   13.1210   13.6150 C.3       1 R8E         0.1669
     20 C16         6.6020   11.6260   13.5530 C.2       1 R8E         0.1724
     21 N20         6.8550   10.9040   12.4500 N.pl3     1 R8E        -0.2539
     22 N19         6.7180    9.5560   12.8370 N.2       1 R8E        -0.3833
     23 C18         6.3820    9.3850   14.0850 C.ar      1 R8E         0.0217
     24 N24         6.1500    8.2880   14.8010 N.ar      1 R8E        -0.2872
     25 C23         5.8060    8.3490   16.1080 C.ar      1 R8E         0.1083
     26 N25         5.6010    7.0530   16.7920 N.pl3     1 R8E        -0.3221
     27 C22         5.6760    9.5640   16.7650 C.ar      1 R8E        -0.0150
     28 C21         5.9270   10.7390   16.0250 C.ar      1 R8E        -0.0346
     29 C17         6.2770   10.6300   14.6620 C.ar      1 R8E         0.0655
     30 H1         10.4025   10.6210   19.4156 H         1 R8E         0.0652
     31 H2         11.2404   14.5633   17.8319 H         1 R8E         0.0629
     32 H3          9.9238   14.0857   21.9530 H         1 R8E         0.0637
     33 H4         11.5388   12.8631   13.0334 H         1 R8E         0.0570
     34 H5          9.1346   13.3908   12.9254 H         1 R8E         0.0458
     35 H6          8.5206   12.3670   16.9477 H         1 R8E         0.0473
     36 H7          7.1533   13.5515   12.7333 H         1 R8E         0.0984
     37 H8          5.6554   13.5645   13.7247 H         1 R8E         0.0984
     38 H9          7.0986   11.2611   11.5151 H         1 R8E         0.2721
     39 H10         5.3377    7.0321   17.7876 H         1 R8E         0.1766
     40 H11         5.7216    6.1718   16.2726 H         1 R8E         0.1766
     41 H12         5.3916    9.6091   17.8101 H         1 R8E         0.0611
     42 H13         5.8520   11.7120   16.4969 H         1 R8E         0.0714
@<TRIPOS>BOND
     1    1    2 1  
     2    2    3 ar 
     3    2   14 ar 
     4    3    4 1  
     5    3   17 ar 
     6    4    5 1  
     7    5    6 ar 
     8    5   10 ar 
     9    6    7 ar 
    10    7    8 1  
    11    7   13 ar 
    12    8    9 3  
    13   10   11 ar 
    14   11   12 1  
    15   11   13 ar 
    16   14   15 ar 
    17   15   16 ar 
    18   16   17 ar 
    19   16   18 1  
    20   18   19 1  
    21   19   20 1  
    22   20   21 1  
    23   20   29 2  
    24   21   22 1  
    25   22   23 2  
    26   23   24 ar 
    27   23   29 ar 
    28   24   25 ar 
    29   25   26 1  
    30   25   27 ar 
    31   27   28 ar 
    32   28   29 ar 
    33    6   30 1  
    34   10   31 1  
    35   13   32 1  
    36   14   33 1  
    37   15   34 1  
    38   17   35 1  
    39   19   36 1  
    40   19   37 1  
    41   21   38 1  
    42   26   39 1  
    43   26   40 1  
    44   27   41 1  
    45   28   42 1  
@<TRIPOS>SUBSTRUCTURE
     1 R8E         1

