### 
### Created by X-TOOL on Mon Sep 10 21:12:57 2018
### 

@<TRIPOS>MOLECULE
3drr_ligand
   42    45     1     0     0
SMALL
GAST_HUCK


@<TRIPOS>ATOM
      1 CL29       13.0100   12.0850   15.4700 Cl        1 R8E        -0.0876
      2 C13        11.3280   12.4730   15.0580 C.ar      1 R8E         0.0607
      3 C8         10.4920   12.4030   16.1240 C.ar      1 R8E         0.1219
      4 O7         11.0970   12.0340   17.3620 O.3       1 R8E        -0.2578
      5 C4         10.8090   12.4970   18.6100 C.ar      1 R8E         0.1271
      6 C3         10.5220   11.6790   19.6610 C.ar      1 R8E         0.0063
      7 C2         10.1980   12.2470   20.9090 C.ar      1 R8E         0.0886
      8 C26         9.9950   11.4250   21.7820 C.1       1 R8E         0.0979
      9 N27         9.8160   10.6890   22.5610 N.1       1 R8E        -0.3283
     10 C5         10.8160   13.8130   18.8230 C.ar      1 R8E        -0.0058
     11 C6         10.5120   14.3770   20.0560 C.ar      1 R8E         0.0439
     12 CL28       10.5630   16.1340   19.9710 Cl        1 R8E        -0.0711
     13 C1         10.1790   13.6430   21.1860 C.ar      1 R8E        -0.0234
     14 C12        10.9100   12.8050   13.7610 C.ar      1 R8E        -0.0640
     15 C11         9.5590   13.0700   13.5820 C.ar      1 R8E        -0.0423
     16 C10         8.6630   12.9970   14.6390 C.ar      1 R8E         0.0895
     17 C9          9.1270   12.6530   15.9120 C.ar      1 R8E         0.0004
     18 O14         7.3170   13.2470   14.4890 O.3       1 R8E        -0.2911
     19 C15         6.5500   12.8610   13.4190 C.3       1 R8E         0.1669
     20 C16         6.5460   11.3600   13.4680 C.2       1 R8E         0.1724
     21 N20         6.8270   10.4970   12.4500 N.pl3     1 R8E        -0.2539
     22 N19         6.6640    9.1960   12.9070 N.2       1 R8E        -0.3833
     23 C18         6.2990    9.2130   14.1750 C.ar      1 R8E         0.0217
     24 N24         6.0480    8.2270   15.0050 N.ar      1 R8E        -0.2872
     25 C23         5.7130    8.4670   16.2640 C.ar      1 R8E         0.1083
     26 N25         5.4530    7.2800   17.0600 N.pl3     1 R8E        -0.3221
     27 C22         5.6540    9.7390   16.8220 C.ar      1 R8E        -0.0150
     28 C21         5.8610   10.8100   15.9480 C.ar      1 R8E        -0.0346
     29 C17         6.2140   10.5020   14.6270 C.ar      1 R8E         0.0655
     30 H1         10.5427   10.6022   19.5383 H         1 R8E         0.0652
     31 H2         11.0695   14.4708   17.9996 H         1 R8E         0.0629
     32 H3          9.9369   14.0750   22.1503 H         1 R8E         0.0637
     33 H4         11.6106   12.8526   12.9352 H         1 R8E         0.0570
     34 H5          9.1968   13.3394   12.5965 H         1 R8E         0.0458
     35 H6          8.4299   12.5790   16.7388 H         1 R8E         0.0473
     36 H7          6.9931   13.2162   12.4770 H         1 R8E         0.0984
     37 H8          5.5270   13.2540   13.5142 H         1 R8E         0.0984
     38 H9          7.1133   10.7663   11.4979 H         1 R8E         0.2721
     39 H10         5.1860    7.3724   18.0505 H         1 R8E         0.1766
     40 H11         5.5357    6.3459   16.6339 H         1 R8E         0.1766
     41 H12         5.4582    9.8918   17.8772 H         1 R8E         0.0611
     42 H13         5.7529   11.8368   16.2783 H         1 R8E         0.0714
@<TRIPOS>BOND
     1    1    2 1  
     2    2    3 ar 
     3    2   14 ar 
     4    3    4 1  
     5    3   17 ar 
     6    4    5 1  
     7    5    6 ar 
     8    5   10 ar 
     9    6    7 ar 
    10    7    8 1  
    11    7   13 ar 
    12    8    9 3  
    13   10   11 ar 
    14   11   12 1  
    15   11   13 ar 
    16   14   15 ar 
    17   15   16 ar 
    18   16   17 ar 
    19   16   18 1  
    20   18   19 1  
    21   19   20 1  
    22   20   21 1  
    23   20   29 2  
    24   21   22 1  
    25   22   23 2  
    26   23   24 ar 
    27   23   29 ar 
    28   24   25 ar 
    29   25   26 1  
    30   25   27 ar 
    31   27   28 ar 
    32   28   29 ar 
    33    6   30 1  
    34   10   31 1  
    35   13   32 1  
    36   14   33 1  
    37   15   34 1  
    38   17   35 1  
    39   19   36 1  
    40   19   37 1  
    41   21   38 1  
    42   26   39 1  
    43   26   40 1  
    44   27   41 1  
    45   28   42 1  
@<TRIPOS>SUBSTRUCTURE
     1 R8E         1

