### 
### Created by X-TOOL on Mon Sep 10 21:12:59 2018
### 

@<TRIPOS>MOLECULE
3ds6_ligand
   53    57     1     0     0
SMALL
GAST_HUCK


@<TRIPOS>ATOM
      1 C1         32.8580   28.2820   61.5970 C.ar      1 A17         0.0277
      2 C2         31.5310   28.7610   61.2360 C.ar      1 A17         0.0293
      3 C3         30.4450   27.9900   61.8540 C.ar      1 A17        -0.0362
      4 C4         30.6030   26.8550   62.7570 C.ar      1 A17        -0.0407
      5 C10        34.0770   28.9360   61.1690 C.ar      1 A17         0.0375
      6 C12        32.2720   24.0930   63.7260 C.ar      1 A17        -0.0379
      7 C13        32.7600   23.0250   64.5770 C.ar      1 A17         0.0449
      8 C16        32.8610   25.8060   65.4580 C.ar      1 A17        -0.0301
      9 O19        32.3220   21.5960   62.7420 O.2       1 A17        -0.3876
     10 C15        33.3300   24.7020   66.3000 C.ar      1 A17        -0.0522
     11 C5         31.9360   26.4200   63.1110 C.ar      1 A17        -0.0047
     12 C6         33.0140   27.1600   62.4970 C.ar      1 A17        -0.0288
     13 N7         33.9520   30.1050   60.3850 N.ar      1 A17        -0.2496
     14 N8         32.6230   30.6290   60.0000 N.ar      1 A17        -0.2546
     15 C9         31.4440   29.9580   60.4070 C.ar      1 A17         0.0663
     16 C11        32.3110   25.4840   64.1410 C.ar      1 A17        -0.0032
     17 C14        33.3050   23.2960   65.8960 C.ar      1 A17        -0.0471
     18 C17        33.1050   27.1580   65.9490 C.3       1 A17        -0.0269
     19 C18        32.5390   21.6710   63.9480 C.2       1 A17         0.2007
     20 C20        32.3990   19.2150   64.3420 C.3       1 A17         0.0416
     21 C21        33.2340   18.3170   65.1090 C.3       1 A17        -0.0279
     22 C22        33.6340   18.7220   63.7760 C.3       1 A17        -0.0279
     23 C23        30.1920   30.4980   59.8930 C.ar      1 A17         0.0161
     24 C24        29.8290   31.8340   60.3520 C.ar      1 A17        -0.0501
     25 C25        28.5960   32.4750   59.9190 C.ar      1 A17        -0.0614
     26 C26        27.6810   31.8220   59.0080 C.ar      1 A17        -0.0625
     27 C27        28.0610   30.4970   58.5590 C.ar      1 A17        -0.0527
     28 C28        29.2810   29.8160   58.9750 C.ar      1 A17        -0.0265
     29 C29        29.5000   28.4730   58.4490 C.3       1 A17        -0.0264
     30 N30        32.5630   20.5710   64.7070 N.am      1 A17        -0.2840
     31 H1         29.4313   28.2923   61.6173 H         1 A17         0.0707
     32 H2         29.7339   26.3452   63.1568 H         1 A17         0.0689
     33 H3         35.0502   28.5431   61.4402 H         1 A17         0.1059
     34 H4         31.8663   23.8457   62.7517 H         1 A17         0.0670
     35 H5         33.7195   24.9419   67.2828 H         1 A17         0.0572
     36 H6         34.0256   26.8482   62.7304 H         1 A17         0.0715
     37 H7         33.6706   22.5053   66.5411 H         1 A17         0.0662
     38 H8         33.5205   27.1092   66.9664 H         1 A17         0.0409
     39 H9         32.1586   27.7183   65.9660 H         1 A17         0.0409
     40 H10        33.8200   27.6658   65.2850 H         1 A17         0.0409
     41 H11        31.3931   18.9531   63.9819 H         1 A17         0.0555
     42 H12        32.9054   17.2838   65.2949 H         1 A17         0.0288
     43 H13        33.7835   18.6904   65.9857 H         1 A17         0.0288
     44 H14        34.4875   19.4026   63.6408 H         1 A17         0.0288
     45 H15        33.6094   17.9961   62.9499 H         1 A17         0.0288
     46 H16        30.4912   32.3605   61.0297 H         1 A17         0.0659
     47 H17        28.3574   33.4659   60.2881 H         1 A17         0.0578
     48 H18        26.7634   32.2966   58.6798 H         1 A17         0.0649
     49 H19        27.3984   29.9819   57.8730 H         1 A17         0.0573
     50 H20        30.4494   28.0770   58.8386 H         1 A17         0.0411
     51 H21        29.5422   28.5118   57.3505 H         1 A17         0.0411
     52 H22        28.6736   27.8176   58.7613 H         1 A17         0.0411
     53 H23        32.7210   20.7316   65.6813 H         1 A17         0.1846
@<TRIPOS>BOND
     1    1    2 ar 
     2    1    5 ar 
     3   12    1 ar 
     4    3    2 ar 
     5    2   15 ar 
     6    4    3 ar 
     7   11    4 ar 
     8    5   13 ar 
     9    7    6 ar 
    10    6   16 ar 
    11    7   17 ar 
    12   19    7 1  
    13   10    8 ar 
    14   16    8 ar 
    15    8   18 1  
    16   19    9 2  
    17   17   10 ar 
    18   11   12 ar 
    19   16   11 1  
    20   13   14 ar 
    21   15   14 ar 
    22   15   23 1  
    23   30   19 am 
    24   20   21 1  
    25   20   22 1  
    26   20   30 1  
    27   21   22 1  
    28   23   24 ar 
    29   23   28 ar 
    30   24   25 ar 
    31   25   26 ar 
    32   26   27 ar 
    33   27   28 ar 
    34   28   29 1  
    35    3   31 1  
    36    4   32 1  
    37    5   33 1  
    38    6   34 1  
    39   10   35 1  
    40   12   36 1  
    41   17   37 1  
    42   18   38 1  
    43   18   39 1  
    44   18   40 1  
    45   20   41 1  
    46   21   42 1  
    47   21   43 1  
    48   22   44 1  
    49   22   45 1  
    50   24   46 1  
    51   25   47 1  
    52   26   48 1  
    53   27   49 1  
    54   29   50 1  
    55   29   51 1  
    56   29   52 1  
    57   30   53 1  
@<TRIPOS>SUBSTRUCTURE
     1 A17         1

