### 
### Created by X-TOOL on Mon Sep 10 21:13:01 2018
### 

@<TRIPOS>MOLECULE
3dsz_ligand
   92    93     1     0     0
SMALL
GAST_HUCK


@<TRIPOS>ATOM
      1 N1         -1.1940   57.3830   68.6820 N.4       1 LIZ         0.2655
      2 N3          0.5960   61.6400   67.4580 N.4       1 LIZ         0.2644
      3 C4         -0.4540   57.1230   69.9240 C.3       1 LIZ         0.0231
      4 C5         -1.5890   58.5140   65.2810 C.2       1 LIZ         0.0813
      5 C6         -0.0880   58.7930   65.3010 C.3       1 LIZ         0.0219
      6 C7          0.1460   62.2210   69.7970 C.2       1 LIZ         0.0813
      7 C8          1.2260   62.0240   68.7310 C.3       1 LIZ         0.0230
      8 C10        -0.0290   62.8220   66.8510 C.3       1 LIZ         0.0230
      9 C13         1.7460   59.5670   66.6930 C.3       1 LIZ         0.0245
     10 C15         2.6860   59.0460   65.6040 C.3       1 LIZ        -0.0044
     11 C17         3.8840   61.2720   65.5710 C.3       1 LIZ        -0.0476
     12 C20        -0.5750   54.3430   65.4220 C.ar      1 LIZ        -0.0687
     13 C21        -0.0840   53.6380   64.3330 C.ar      1 LIZ        -0.0433
     14 C22         1.1600   52.9980   64.4100 C.ar      1 LIZ         0.0640
     15 C24         1.3760   53.7840   66.6900 C.ar      1 LIZ        -0.0687
     16 C26         1.3550   52.1310   62.1570 C.2       1 LIZ         0.1723
     17 C28         1.9310   51.0710   59.9800 C.3       1 LIZ         0.0696
     18 O7         -1.0140   61.8640   69.5030 O.co2     1 LIZ        -0.5645
     19 O8          0.5010   62.7090   70.8910 O.co2     1 LIZ        -0.5645
     20 C9         -1.0250   62.3860   65.7730 C.2       1 LIZ         0.0813
     21 O10        -1.2070   63.1670   64.8160 O.co2     1 LIZ        -0.5645
     22 O9         -1.5870   61.2820   65.9370 O.co2     1 LIZ        -0.5645
     23 C14         1.5610   61.0710   66.5060 C.3       1 LIZ         0.0256
     24 C18         2.9110   61.7820   66.6330 C.3       1 LIZ        -0.0043
     25 C16         4.0410   59.7530   65.6680 C.3       1 LIZ        -0.0476
     26 N2          0.4690   58.8310   66.6630 N.4       1 LIZ         0.2570
     27 O6         -2.0710   58.0300   64.2340 O.co2     1 LIZ        -0.5645
     28 O5         -2.2520   58.8010   66.3030 O.co2     1 LIZ        -0.5645
     29 C12         0.7200   57.4570   67.1340 C.3       1 LIZ         0.0157
     30 C11        -0.5720   56.7350   67.5150 C.3       1 LIZ         0.0308
     31 C3          0.5480   58.2510   70.1940 C.2       1 LIZ         0.0813
     32 O4          1.4440   58.0320   71.0360 O.co2     1 LIZ        -0.5645
     33 O3          0.3960   59.3100   69.5490 O.co2     1 LIZ        -0.5645
     34 C2         -2.5900   56.9380   68.8260 C.3       1 LIZ         0.0231
     35 C1         -3.3910   58.0080   69.5690 C.2       1 LIZ         0.0813
     36 O2         -4.5020   57.6650   70.0300 O.co2     1 LIZ        -0.5645
     37 O1         -2.8800   59.1450   69.6640 O.co2     1 LIZ        -0.5645
     38 C25        -0.3230   55.2490   67.8090 C.3       1 LIZ         0.0242
     39 C19         0.1580   54.4360   66.6080 C.ar      1 LIZ        -0.0480
     40 C23         1.8650   53.0640   65.6010 C.ar      1 LIZ        -0.0433
     41 N4          1.7400   52.3220   63.4250 N.pl3     1 LIZ        -0.2364
     42 S1          0.0470   53.0500   61.4440 S.3       1 LIZ        -0.0459
     43 N5          2.1410   51.3630   61.4050 N.2       1 LIZ        -0.3466
     44 C29         2.2350   52.3110   59.1360 C.3       1 LIZ         0.0575
     45 O11         3.6250   52.6330   59.2170 O.3       1 LIZ        -0.3941
     46 C30         0.4990   50.6180   59.6960 C.3       1 LIZ         0.0575
     47 O12         0.4750   49.2140   59.4300 O.3       1 LIZ        -0.3941
     48 C27         2.8920   49.9510   59.5820 C.3       1 LIZ         0.0575
     49 O13         4.2360   50.3130   59.9140 O.3       1 LIZ        -0.3941
     50 H1         -1.1925   58.3782   68.5217 H         1 LIZ         0.2069
     51 H2         -0.1138   60.9498   67.6474 H         1 LIZ         0.2067
     52 H3          0.0886   56.1708   69.8302 H         1 LIZ         0.0989
     53 H4         -1.1634   57.0598   70.7623 H         1 LIZ         0.0989
     54 H5          0.0949   59.7651   64.8197 H         1 LIZ         0.0989
     55 H6          0.4239   58.0012   64.7344 H         1 LIZ         0.0989
     56 H7          1.7829   62.9629   68.5957 H         1 LIZ         0.0989
     57 H8          1.9171   61.2307   69.0519 H         1 LIZ         0.0989
     58 H9          0.7485   63.4531   66.3959 H         1 LIZ         0.0989
     59 H10        -0.5582   63.3944   67.6271 H         1 LIZ         0.0989
     60 H11         2.2132   59.3963   67.6741 H         1 LIZ         0.0908
     61 H12         2.2314   59.2274   64.6189 H         1 LIZ         0.0322
     62 H13         2.8366   57.9655   65.7450 H         1 LIZ         0.0322
     63 H14         4.8647   61.7469   65.7216 H         1 LIZ         0.0267
     64 H15         3.4996   61.5325   64.5738 H         1 LIZ         0.0267
     65 H16        -1.5415   54.8289   65.3520 H         1 LIZ         0.0530
     66 H17        -0.6647   53.5820   63.4194 H         1 LIZ         0.0524
     67 H18         1.9531   53.8335   67.6063 H         1 LIZ         0.0530
     68 H19         1.1738   61.2410   65.4905 H         1 LIZ         0.0908
     69 H20         2.7645   62.8641   66.5005 H         1 LIZ         0.0322
     70 H21         3.3301   61.5882   67.6314 H         1 LIZ         0.0322
     71 H22         4.6665   59.4040   64.8332 H         1 LIZ         0.0267
     72 H23         4.5298   59.5041   66.6215 H         1 LIZ         0.0267
     73 H24        -0.1913   59.2834   67.2757 H         1 LIZ         0.2055
     74 H25         1.3763   57.4986   68.0158 H         1 LIZ         0.0873
     75 H26         1.2185   56.8926   66.3321 H         1 LIZ         0.0873
     76 H27        -1.2674   56.8054   66.6656 H         1 LIZ         0.0927
     77 H28        -2.6183   55.9972   69.3954 H         1 LIZ         0.0989
     78 H29        -3.0284   56.7772   67.8300 H         1 LIZ         0.0989
     79 H30        -1.2645   54.8075   68.1675 H         1 LIZ         0.0463
     80 H31         0.4393   55.1783   68.5989 H         1 LIZ         0.0463
     81 H32         2.8136   52.5466   65.6875 H         1 LIZ         0.0524
     82 H33         2.6310   51.8713   63.6776 H         1 LIZ         0.2231
     83 H34        -0.0855   52.7578   60.4884 H         1 LIZ         0.1373
     84 H35         1.6429   53.1594   59.5098 H         1 LIZ         0.0566
     85 H36         1.9685   52.1115   58.0876 H         1 LIZ         0.0566
     86 H37         4.1377   51.9018   58.8930 H         1 LIZ         0.2094
     87 H38         0.1116   51.1612   58.8215 H         1 LIZ         0.0566
     88 H39        -0.1318   50.8339   60.5709 H         1 LIZ         0.0566
     89 H40        -0.4179   48.9413   59.2547 H         1 LIZ         0.2094
     90 H41         2.8194   49.7777   58.4982 H         1 LIZ         0.0566
     91 H42         2.6201   49.0306   60.1195 H         1 LIZ         0.0566
     92 H43         4.4729   51.1070   59.4492 H         1 LIZ         0.2094
@<TRIPOS>BOND
     1    1    3 1  
     2   30    1 1  
     3    1   34 1  
     4    2    7 1  
     5    2    8 1  
     6   23    2 1  
     7    3   31 1  
     8    5    4 1  
     9    4   27 ar 
    10    4   28 ar 
    11   26    5 1  
    12    7    6 1  
    13    6   18 ar 
    14    6   19 ar 
    15    8   20 1  
    16    9   10 1  
    17    9   23 1  
    18   26    9 1  
    19   10   25 1  
    20   24   11 1  
    21   25   11 1  
    22   12   13 ar 
    23   39   12 ar 
    24   13   14 ar 
    25   40   14 ar 
    26   14   41 1  
    27   39   15 ar 
    28   15   40 ar 
    29   41   16 1  
    30   16   42 1  
    31   16   43 2  
    32   43   17 1  
    33   17   44 1  
    34   17   46 1  
    35   17   48 1  
    36   20   21 ar 
    37   20   22 ar 
    38   23   24 1  
    39   29   26 1  
    40   30   29 1  
    41   38   30 1  
    42   31   32 ar 
    43   31   33 ar 
    44   34   35 1  
    45   35   36 ar 
    46   35   37 ar 
    47   38   39 1  
    48   44   45 1  
    49   46   47 1  
    50   48   49 1  
    51    1   50 1  
    52    2   51 1  
    53    3   52 1  
    54    3   53 1  
    55    5   54 1  
    56    5   55 1  
    57    7   56 1  
    58    7   57 1  
    59    8   58 1  
    60    8   59 1  
    61    9   60 1  
    62   10   61 1  
    63   10   62 1  
    64   11   63 1  
    65   11   64 1  
    66   12   65 1  
    67   13   66 1  
    68   15   67 1  
    69   23   68 1  
    70   24   69 1  
    71   24   70 1  
    72   25   71 1  
    73   25   72 1  
    74   26   73 1  
    75   29   74 1  
    76   29   75 1  
    77   30   76 1  
    78   34   77 1  
    79   34   78 1  
    80   38   79 1  
    81   38   80 1  
    82   40   81 1  
    83   41   82 1  
    84   42   83 1  
    85   44   84 1  
    86   44   85 1  
    87   45   86 1  
    88   46   87 1  
    89   46   88 1  
    90   47   89 1  
    91   48   90 1  
    92   48   91 1  
    93   49   92 1  
@<TRIPOS>SUBSTRUCTURE
     1 LIZ         1

