### 
### Created by X-TOOL on Mon Sep 10 21:12:58 2018
### 

@<TRIPOS>MOLECULE
3dt1_ligand
   62    66     1     0     0
SMALL
GAST_HUCK


@<TRIPOS>ATOM
      1 C1         26.1570    7.6530   31.8850 C.3       1 P40         0.0711
      2 C2         27.4880    7.1130   32.1160 C.3       1 P40        -0.0107
      3 C7         29.5840   10.0780   32.4770 C.3       1 P40         0.0878
      4 C8         29.0720    8.9170   31.7600 C.3       1 P40        -0.0078
      5 C9         20.6310    9.8700   28.8660 C.ar      1 P40        -0.0380
      6 C10        20.0940   11.1780   29.2480 C.ar      1 P40        -0.0137
      7 C11        20.9400   11.9650   30.1370 C.ar      1 P40        -0.0495
      8 C12        22.2380   11.4550   30.5750 C.ar      1 P40        -0.0408
      9 C13        18.8730   11.8230   28.8090 C.ar      1 P40        -0.0089
     10 C14        18.9440   12.8120   27.7450 C.ar      1 P40        -0.0402
     11 C15        17.8160   13.6310   27.3090 C.ar      1 P40         0.0434
     12 C16        16.5310   13.4800   27.9630 C.ar      1 P40        -0.0485
     13 C19        17.9290   14.5910   26.1380 C.2       1 P40         0.2004
     14 C20        17.0720   16.3140   24.7570 C.3       1 P40         0.0416
     15 C21        17.0930   15.6900   23.4470 C.3       1 P40        -0.0279
     16 C22        15.9370   16.4620   23.8560 C.3       1 P40        -0.0279
     17 N29        23.7880    7.6480   29.3340 N.ar      1 P40        -0.2426
     18 C30        22.5040    8.0740   28.9130 C.ar      1 P40         0.0324
     19 N3         28.3710    8.0740   32.6630 N.4       1 P40         0.2399
     20 C4         28.7940    7.8140   33.9930 C.3       1 P40        -0.0078
     21 C5         29.3840    9.0050   34.5860 C.3       1 P40         0.0878
     22 O6         30.0920    9.6850   33.6650 O.3       1 P40        -0.3693
     23 C17        16.4470   12.4960   29.0310 C.ar      1 P40        -0.0537
     24 C18        17.5750   11.6840   29.4490 C.ar      1 P40        -0.0324
     25 C23        17.2820   10.7900   30.5520 C.3       1 P40        -0.0276
     26 O24        18.9130   14.5550   25.4100 O.2       1 P40        -0.3877
     27 C25        21.9270    9.3490   29.3120 C.ar      1 P40         0.0219
     28 C26        22.7870   10.1500   30.1940 C.ar      1 P40         0.0407
     29 N27        24.0660    9.6970   30.6010 N.ar      1 P40        -0.2671
     30 C28        24.5920    8.4530   30.1790 C.ar      1 P40         0.1879
     31 N31        25.9130    8.1290   30.5740 N.pl3     1 P40        -0.2838
     32 N32        16.9630   15.4730   25.8940 N.am      1 P40        -0.2840
     33 H1         26.0042    8.4891   32.5833 H         1 P40         0.0579
     34 H2         25.4268    6.8586   32.0988 H         1 P40         0.0579
     35 H3         27.8980    6.7611   31.1578 H         1 P40         0.0835
     36 H4         27.4099    6.2667   32.8144 H         1 P40         0.0835
     37 H5         28.7665   10.7942   32.6466 H         1 P40         0.0613
     38 H6         30.3742   10.5580   31.8810 H         1 P40         0.0613
     39 H7         29.9108    8.3612   31.3157 H         1 P40         0.0837
     40 H8         28.3896    9.2493   30.9639 H         1 P40         0.0837
     41 H9         20.0319    9.2472   28.2116 H         1 P40         0.0669
     42 H10        20.6032   12.9378   30.4765 H         1 P40         0.0676
     43 H11        22.8349   12.0841   31.2254 H         1 P40         0.0618
     44 H12        19.8950   12.9501   27.2434 H         1 P40         0.0657
     45 H13        15.6723   14.0731   27.6696 H         1 P40         0.0651
     46 H14        17.7181   17.1751   24.9828 H         1 P40         0.0555
     47 H15        17.0194   14.5960   23.3586 H         1 P40         0.0288
     48 H16        17.7630   16.0769   22.6651 H         1 P40         0.0288
     49 H17        15.7308   17.4349   23.3860 H         1 P40         0.0288
     50 H18        14.9872   15.9541   24.0794 H         1 P40         0.0288
     51 H19        21.9271    7.4227   28.2664 H         1 P40         0.1001
     52 H20        27.6731    8.7586   32.9087 H         1 P40         0.2036
     53 H21        29.5415    7.0071   33.9832 H         1 P40         0.0837
     54 H22        27.9266    7.5031   34.5938 H         1 P40         0.0837
     55 H23        30.0505    8.7082   35.4092 H         1 P40         0.0613
     56 H24        28.5834    9.6502   34.9769 H         1 P40         0.0613
     57 H25        15.4982   12.3631   29.5381 H         1 P40         0.0569
     58 H26        18.1838   10.2137   30.8063 H         1 P40         0.0406
     59 H27        16.4761   10.1003   30.2609 H         1 P40         0.0406
     60 H28        16.9639   11.3776   31.4258 H         1 P40         0.0406
     61 H29        26.6929    8.2392   29.9103 H         1 P40         0.1873
     62 H30        16.1726   15.5418   26.5027 H         1 P40         0.1846
@<TRIPOS>BOND
     1    1    2 1  
     2   31    1 1  
     3    2   19 1  
     4    4    3 1  
     5    3   22 1  
     6   19    4 1  
     7    5    6 ar 
     8   27    5 ar 
     9    7    6 ar 
    10    6    9 1  
    11    8    7 ar 
    12   28    8 ar 
    13    9   10 ar 
    14    9   24 ar 
    15   10   11 ar 
    16   11   12 ar 
    17   11   13 1  
    18   23   12 ar 
    19   13   26 2  
    20   13   32 am 
    21   14   15 1  
    22   14   16 1  
    23   32   14 1  
    24   16   15 1  
    25   17   18 ar 
    26   30   17 ar 
    27   18   27 ar 
    28   19   20 1  
    29   20   21 1  
    30   21   22 1  
    31   24   23 ar 
    32   24   25 1  
    33   28   27 ar 
    34   29   28 ar 
    35   30   29 ar 
    36   30   31 1  
    37    1   33 1  
    38    1   34 1  
    39    2   35 1  
    40    2   36 1  
    41    3   37 1  
    42    3   38 1  
    43    4   39 1  
    44    4   40 1  
    45    5   41 1  
    46    7   42 1  
    47    8   43 1  
    48   10   44 1  
    49   12   45 1  
    50   14   46 1  
    51   15   47 1  
    52   15   48 1  
    53   16   49 1  
    54   16   50 1  
    55   18   51 1  
    56   19   52 1  
    57   20   53 1  
    58   20   54 1  
    59   21   55 1  
    60   21   56 1  
    61   23   57 1  
    62   25   58 1  
    63   25   59 1  
    64   25   60 1  
    65   31   61 1  
    66   32   62 1  
@<TRIPOS>SUBSTRUCTURE
     1 P40         1

