### 
### Created by X-TOOL on Mon Sep 10 21:13:01 2018
### 

@<TRIPOS>MOLECULE
3du8_ligand
   34    36     1     0     0
SMALL
GAST_HUCK


@<TRIPOS>ATOM
      1 O19        24.2990  -14.5920   -9.9540 O.2       1 553        -0.4036
      2 C15        23.2560  -14.9040  -10.5350 C.2       1 553         0.1768
      3 N14        22.8830  -14.4080  -11.7280 N.am      1 553        -0.2893
      4 C13        21.6350  -14.7380  -12.4400 C.3       1 553         0.0470
      5 C12        20.4430  -15.1650  -11.5560 C.3       1 553         0.0471
      6 C16        19.7720  -13.9640  -10.8680 C.3       1 553        -0.0051
      7 C17        19.6750  -12.7300  -11.7730 C.3       1 553         0.0928
      8 F18        18.6550  -12.8840  -12.6980 F         1 553        -0.2489
      9 C11        20.9570  -15.9750  -10.4300 C.2       1 553         0.0788
     10 N8         20.3140  -16.8800   -9.6860 N.pl3     1 553        -0.2672
     11 C10        22.3240  -15.8580   -9.8900 C.2       1 553         0.0464
     12 C9         22.4550  -16.7350   -8.8250 C.2       1 553        -0.0508
     13 C7         21.1950  -17.3350   -8.7570 C.2       1 553         0.0771
     14 C5         20.6080  -18.3080   -7.8070 C.ar      1 553         0.0573
     15 C6         21.2650  -18.5590   -6.5900 C.ar      1 553        -0.0262
     16 C1         20.6580  -19.4550   -5.7100 C.ar      1 553         0.0034
     17 N4         19.3790  -18.8690   -8.0540 N.ar      1 553        -0.2642
     18 C3         18.8190  -19.7340   -7.1690 C.ar      1 553         0.1752
     19 N2         19.4580  -20.0110   -5.9990 N.ar      1 553        -0.2669
     20 N20        17.6320  -20.3200   -7.4860 N.pl3     1 553        -0.3052
     21 H1         23.5045  -13.7608  -12.1694 H         1 553         0.1835
     22 H2         21.8518  -15.5635  -13.1340 H         1 553         0.0550
     23 H3         21.3286  -13.8494  -13.0114 H         1 553         0.0550
     24 H4         19.7141  -15.7274  -12.1580 H         1 553         0.0550
     25 H5         20.3585  -13.6988   -9.9760 H         1 553         0.0322
     26 H6         18.7559  -14.2567  -10.5650 H         1 553         0.0322
     27 H7         20.6284  -12.5956  -12.3049 H         1 553         0.0617
     28 H8         19.4718  -11.8431  -11.1548 H         1 553         0.0617
     29 H9         19.3339  -17.1770   -9.7962 H         1 553         0.2356
     30 H10        23.3259  -16.9128   -8.1958 H         1 553         0.0422
     31 H11        22.2043  -18.0763   -6.3455 H         1 553         0.0611
     32 H12        21.1546  -19.7099   -4.7808 H         1 553         0.0857
     33 H13        17.1680  -20.0941   -8.3774 H         1 553         0.1823
     34 H14        17.1979  -20.9893   -6.8345 H         1 553         0.1823
@<TRIPOS>BOND
     1    1    2 2  
     2    2    3 am 
     3    2   11 1  
     4    3    4 1  
     5    4    5 1  
     6    5    6 1  
     7    5    9 1  
     8    6    7 1  
     9    7    8 1  
    10    9   10 1  
    11    9   11 2  
    12   10   13 1  
    13   11   12 1  
    14   12   13 2  
    15   13   14 1  
    16   14   15 ar 
    17   14   17 ar 
    18   15   16 ar 
    19   16   19 ar 
    20   17   18 ar 
    21   18   19 ar 
    22   18   20 1  
    23    3   21 1  
    24    4   22 1  
    25    4   23 1  
    26    5   24 1  
    27    6   25 1  
    28    6   26 1  
    29    7   27 1  
    30    7   28 1  
    31   10   29 1  
    32   12   30 1  
    33   15   31 1  
    34   16   32 1  
    35   20   33 1  
    36   20   34 1  
@<TRIPOS>SUBSTRUCTURE
     1 553         1

