### 
### Created by X-TOOL on Mon Sep 10 21:13:01 2018
### 

@<TRIPOS>MOLECULE
3dux_ligand
   58    60     1     0     0
SMALL
GAST_HUCK


@<TRIPOS>ATOM
      1 C1         17.9320  -14.9390   24.5340 C.3       1 64U         0.0107
      2 N          16.1710  -15.9180   23.2080 N.4       1 64U         0.2379
      3 C15        17.3660  -15.0440   23.0940 C.3       1 64U         0.0655
      4 C14        17.0830  -13.6790   22.5060 C.2       1 64U         0.2292
      5 O32        16.1630  -13.0030   22.9900 O.2       1 64U        -0.3905
      6 N1         17.7750  -13.1570   21.4440 N.am      1 64U        -0.2471
      7 C4         18.8890  -13.8440   20.7900 C.3       1 64U         0.0371
      8 C3         19.3320  -12.8270   19.7330 C.3       1 64U        -0.0281
      9 C2         18.3990  -11.6260   19.7770 C.3       1 64U        -0.0104
     10 C5         17.4290  -11.8450   20.9360 C.3       1 64U         0.1339
     11 C7         15.9810  -11.7680   20.4910 C.2       1 64U         0.2037
     12 N23        15.3670  -10.6120   20.8330 N.am      1 64U        -0.2737
     13 C24        14.0480  -10.3120   20.2910 C.3       1 64U         0.0645
     14 C25        13.0700  -10.3010   21.4780 C.ar      1 64U        -0.0205
     15 C30        13.0740   -9.2230   22.3770 C.ar      1 64U        -0.0446
     16 C29        12.1770   -9.2260   23.4530 C.ar      1 64U         0.0338
     17 C28        11.2870  -10.2800   23.6420 C.ar      1 64U        -0.0548
     18 C27        11.2970  -11.3430   22.7390 C.ar      1 64U        -0.0680
     19 C26        12.1820  -11.3530   21.6650 C.ar      1 64U        -0.0583
     20 O22        15.4240  -12.6860   19.9010 O.2       1 64U        -0.3944
     21 C11        19.2230  -14.1140   24.5550 C.3       1 64U        -0.0338
     22 C12        19.4910  -13.7480   26.0370 C.3       1 64U        -0.0499
     23 C13        20.8000  -12.9330   26.1570 C.3       1 64U        -0.0528
     24 C16        21.9860  -13.7640   25.5820 C.3       1 64U        -0.0530
     25 C17        21.7380  -14.0550   24.0710 C.3       1 64U        -0.0528
     26 C18        20.4160  -14.8770   23.9260 C.3       1 64U        -0.0499
     27 CL21       12.1650   -7.9020   24.5830 Cl        1 64U        -0.0725
     28 H1         18.1444  -15.9499   24.9121 H         1 64U         0.0348
     29 H2         17.1849  -14.4552   25.1803 H         1 64U         0.0348
     30 H3         15.7491  -16.0304   22.2995 H         1 64U         0.2015
     31 H4         15.5058  -15.4972   23.8376 H         1 64U         0.2015
     32 H5         16.4469  -16.8197   23.5642 H         1 64U         0.2015
     33 H6         18.1058  -15.5375   22.4467 H         1 64U         0.1098
     34 H7         18.5577  -14.7834   20.3233 H         1 64U         0.0524
     35 H8         19.6996  -14.0547   21.5030 H         1 64U         0.0524
     36 H9         19.2901  -13.2898   18.7360 H         1 64U         0.0287
     37 H10        20.3615  -12.5017   19.9433 H         1 64U         0.0287
     38 H11        17.8431  -11.5466   18.8311 H         1 64U         0.0313
     39 H12        18.9784  -10.7053   19.9402 H         1 64U         0.0313
     40 H13        17.5945  -11.0849   21.7137 H         1 64U         0.0802
     41 H14        15.8150   -9.9681   21.4532 H         1 64U         0.1878
     42 H15        13.7529  -11.0836   19.5647 H         1 64U         0.0683
     43 H16        14.0561   -9.3286   19.7983 H         1 64U         0.0683
     44 H17        13.7633   -8.3976   22.2402 H         1 64U         0.0562
     45 H18        10.5970  -10.2745   24.4780 H         1 64U         0.0565
     46 H19        10.6088  -12.1694   22.8751 H         1 64U         0.0599
     47 H20        12.1785  -12.1857   20.9710 H         1 64U         0.0559
     48 H21        19.0679  -13.1903   23.9782 H         1 64U         0.0304
     49 H22        19.5820  -14.6709   26.6286 H         1 64U         0.0268
     50 H23        18.6528  -13.1478   26.4205 H         1 64U         0.0268
     51 H24        20.9928  -12.7033   27.2153 H         1 64U         0.0265
     52 H25        20.7010  -11.9954   25.5904 H         1 64U         0.0265
     53 H26        22.0659  -14.7148   26.1294 H         1 64U         0.0265
     54 H27        22.9206  -13.1954   25.6964 H         1 64U         0.0265
     55 H28        22.5797  -14.6339   23.6631 H         1 64U         0.0265
     56 H29        21.6453  -13.1062   23.5222 H         1 64U         0.0265
     57 H30        20.2126  -15.0478   22.8586 H         1 64U         0.0268
     58 H31        20.5349  -15.8443   24.4360 H         1 64U         0.0268
@<TRIPOS>BOND
     1    1    3 1  
     2    1   21 1  
     3    3    2 1  
     4    3    4 1  
     5    4    5 2  
     6    4    6 am 
     7    6    7 1  
     8    6   10 1  
     9    7    8 1  
    10    8    9 1  
    11    9   10 1  
    12   10   11 1  
    13   11   12 am 
    14   11   20 2  
    15   12   13 1  
    16   13   14 1  
    17   14   15 ar 
    18   14   19 ar 
    19   15   16 ar 
    20   16   17 ar 
    21   16   27 1  
    22   17   18 ar 
    23   18   19 ar 
    24   21   22 1  
    25   21   26 1  
    26   22   23 1  
    27   23   24 1  
    28   24   25 1  
    29   25   26 1  
    30    1   28 1  
    31    1   29 1  
    32    2   30 1  
    33    2   31 1  
    34    2   32 1  
    35    3   33 1  
    36    7   34 1  
    37    7   35 1  
    38    8   36 1  
    39    8   37 1  
    40    9   38 1  
    41    9   39 1  
    42   10   40 1  
    43   12   41 1  
    44   13   42 1  
    45   13   43 1  
    46   15   44 1  
    47   17   45 1  
    48   18   46 1  
    49   19   47 1  
    50   21   48 1  
    51   22   49 1  
    52   22   50 1  
    53   23   51 1  
    54   23   52 1  
    55   24   53 1  
    56   24   54 1  
    57   25   55 1  
    58   25   56 1  
    59   26   57 1  
    60   26   58 1  
@<TRIPOS>SUBSTRUCTURE
     1 64U         1

