### 
### Created by X-TOOL on Mon Sep 10 21:13:01 2018
### 

@<TRIPOS>MOLECULE
3duy_ligand
   82    81     1     0     0
SMALL
GAST_HUCK


@<TRIPOS>ATOM
      1 S1         23.9040    4.8680   16.1720 S.3       1 AFJ        -0.1639
      2 C2         25.4990    5.0830   17.0310 C.3       1 AFJ        -0.0024
      3 C5         26.5190    5.8000   16.1070 C.3       1 AFJ        -0.0034
      4 C8         27.9370    5.9450   16.7470 C.3       1 AFJ         0.1315
      5 N10        27.9500    7.0180   17.7500 N.am      1 AFJ        -0.2656
      6 C12        27.7520    6.8110   19.0820 C.2       1 AFJ         0.1782
      7 O13        27.5450    5.7110   19.5890 O.2       1 AFJ        -0.3969
      8 C14        27.7930    8.0430   19.9580 C.3       1 AFJ         0.0376
      9 C17        29.0150    8.0950   20.9190 C.3       1 AFJ        -0.0337
     10 C20        30.3870    8.4210   20.2540 C.3       1 AFJ        -0.0447
     11 C22        31.5580    7.8190   21.0780 C.3       1 AFJ        -0.0625
     12 C26        30.5880    9.9570   20.1720 C.3       1 AFJ        -0.0625
     13 C30        29.0190    6.2190   15.7180 C.2       1 AFJ         0.2020
     14 O31        28.7180    6.5750   14.5780 O.2       1 AFJ        -0.3945
     15 N32        30.3100    6.0520   16.1160 N.am      1 AFJ        -0.2795
     16 C34        31.4620    6.2870   15.2300 C.3       1 AFJ         0.0683
     17 C36        32.0930    4.9250   14.8010 C.3       1 AFJ         0.0804
     18 O38        32.7860    4.3010   15.8980 O.3       1 AFJ        -0.3894
     19 C40        31.1290    3.9220   14.0810 C.3       1 AFJ        -0.0052
     20 C43        31.7960    2.9880   13.0270 C.3       1 AFJ         0.0482
     21 C45        30.9660    1.6830   12.9020 C.3       1 AFJ        -0.0452
     22 C49        31.8860    3.6190   11.6490 C.2       1 AFJ         0.1789
     23 O50        30.9540    4.2930   11.2260 O.2       1 AFJ        -0.3968
     24 N51        33.0170    3.3960   10.9450 N.am      1 AFJ        -0.2867
     25 C53        33.2180    3.9330    9.6050 C.3       1 AFJ         0.0309
     26 C56        34.4680    3.3380    8.9220 C.3       1 AFJ        -0.0330
     27 C59        34.4180    3.5570    7.3930 C.3       1 AFJ        -0.0541
     28 C62        34.7520    5.0090    6.9950 C.3       1 AFJ        -0.0652
     29 C66        32.4500    7.3220   15.8550 C.3       1 AFJ        -0.0251
     30 C69        31.8260    8.7150   16.2030 C.3       1 AFJ        -0.0446
     31 C71        31.4770    9.5620   14.9450 C.3       1 AFJ        -0.0626
     32 C75        32.8010    9.5140   17.1150 C.3       1 AFJ        -0.0626
     33 C79        22.7940    4.7770   17.6100 C.3       1 AFJ        -0.0181
     34 H1         25.8955    4.0960   17.3114 H         1 AFJ         0.0378
     35 H2         25.3441    5.6870   17.9372 H         1 AFJ         0.0378
     36 H3         26.1354    6.8049   15.8769 H         1 AFJ         0.0320
     37 H4         26.6136    5.2216   15.1762 H         1 AFJ         0.0320
     38 H5         28.1761    4.9960   17.2492 H         1 AFJ         0.0800
     39 H6         28.1135    7.9537   17.4374 H         1 AFJ         0.1883
     40 H7         26.8752    8.0675   20.5638 H         1 AFJ         0.0502
     41 H8         27.8267    8.9293   19.3073 H         1 AFJ         0.0502
     42 H9         29.1017    7.1137   21.4083 H         1 AFJ         0.0292
     43 H10        28.8156    8.8665   21.6773 H         1 AFJ         0.0292
     44 H11        30.4012    7.9959   19.2396 H         1 AFJ         0.0297
     45 H12        32.5131    8.0621   20.5895 H         1 AFJ         0.0232
     46 H13        31.4429    6.7265   21.1347 H         1 AFJ         0.0232
     47 H14        31.5474    8.2420   22.0933 H         1 AFJ         0.0232
     48 H15        29.7675   10.4036   19.5912 H         1 AFJ         0.0232
     49 H16        31.5470   10.1756   19.6796 H         1 AFJ         0.0232
     50 H17        30.5919   10.3810   21.1870 H         1 AFJ         0.0232
     51 H18        30.4842    5.7555   17.0550 H         1 AFJ         0.1855
     52 H19        31.0757    6.7513   14.3107 H         1 AFJ         0.0582
     53 H20        32.8606    5.1790   14.0552 H         1 AFJ         0.0618
     54 H21        33.4805    4.8747   16.1998 H         1 AFJ         0.2099
     55 H22        30.3508    4.5078   13.5700 H         1 AFJ         0.0318
     56 H23        30.6646    3.2874   14.8501 H         1 AFJ         0.0318
     57 H24        32.8122    2.7446   13.3707 H         1 AFJ         0.0536
     58 H25        31.4338    1.0208   12.1586 H         1 AFJ         0.0257
     59 H26        29.9427    1.9285   12.5818 H         1 AFJ         0.0257
     60 H27        30.9332    1.1745   13.8768 H         1 AFJ         0.0257
     61 H28        33.7413    2.8435   11.3574 H         1 AFJ         0.1851
     62 H29        33.3375    5.0243    9.6745 H         1 AFJ         0.0520
     63 H30        32.3344    3.6991    8.9930 H         1 AFJ         0.0520
     64 H31        34.5126    2.2588    9.1299 H         1 AFJ         0.0285
     65 H32        35.3665    3.8268    9.3266 H         1 AFJ         0.0285
     66 H33        33.4062    3.3166    7.0347 H         1 AFJ         0.0263
     67 H34        35.1455    2.8839    6.9159 H         1 AFJ         0.0263
     68 H35        34.7023    5.1099    5.9008 H         1 AFJ         0.0230
     69 H36        35.7656    5.2601    7.3407 H         1 AFJ         0.0230
     70 H37        34.0263    5.6927    7.4595 H         1 AFJ         0.0230
     71 H38        33.2690    7.4856   15.1391 H         1 AFJ         0.0291
     72 H39        32.8542    6.8894   16.7820 H         1 AFJ         0.0291
     73 H40        30.8937    8.5369   16.7589 H         1 AFJ         0.0296
     74 H41        31.0447   10.5236   15.2588 H         1 AFJ         0.0232
     75 H42        30.7487    9.0170   14.3265 H         1 AFJ         0.0232
     76 H43        32.3909    9.7442   14.3605 H         1 AFJ         0.0232
     77 H44        33.0466    8.9139   18.0036 H         1 AFJ         0.0232
     78 H45        32.3231   10.4540   17.4280 H         1 AFJ         0.0232
     79 H46        33.7227    9.7389   16.5583 H         1 AFJ         0.0232
     80 H47        21.7579    4.6435   17.2655 H         1 AFJ         0.0340
     81 H48        22.8700    5.7077   18.1914 H         1 AFJ         0.0340
     82 H49        23.0827    3.9248   18.2427 H         1 AFJ         0.0340
@<TRIPOS>BOND
     1    1    2 1  
     2    1   33 1  
     3    2    3 1  
     4    3    4 1  
     5    4    5 1  
     6    4   13 1  
     7    5    6 am 
     8    6    7 2  
     9    6    8 1  
    10    8    9 1  
    11    9   10 1  
    12   10   11 1  
    13   10   12 1  
    14   13   14 2  
    15   13   15 am 
    16   15   16 1  
    17   16   17 1  
    18   16   29 1  
    19   17   18 1  
    20   17   19 1  
    21   19   20 1  
    22   20   21 1  
    23   20   22 1  
    24   22   23 2  
    25   22   24 am 
    26   24   25 1  
    27   25   26 1  
    28   26   27 1  
    29   27   28 1  
    30   29   30 1  
    31   30   31 1  
    32   30   32 1  
    33    2   34 1  
    34    2   35 1  
    35    3   36 1  
    36    3   37 1  
    37    4   38 1  
    38    5   39 1  
    39    8   40 1  
    40    8   41 1  
    41    9   42 1  
    42    9   43 1  
    43   10   44 1  
    44   11   45 1  
    45   11   46 1  
    46   11   47 1  
    47   12   48 1  
    48   12   49 1  
    49   12   50 1  
    50   15   51 1  
    51   16   52 1  
    52   17   53 1  
    53   18   54 1  
    54   19   55 1  
    55   19   56 1  
    56   20   57 1  
    57   21   58 1  
    58   21   59 1  
    59   21   60 1  
    60   24   61 1  
    61   25   62 1  
    62   25   63 1  
    63   26   64 1  
    64   26   65 1  
    65   27   66 1  
    66   27   67 1  
    67   28   68 1  
    68   28   69 1  
    69   28   70 1  
    70   29   71 1  
    71   29   72 1  
    72   30   73 1  
    73   31   74 1  
    74   31   75 1  
    75   31   76 1  
    76   32   77 1  
    77   32   78 1  
    78   32   79 1  
    79   33   80 1  
    80   33   81 1  
    81   33   82 1  
@<TRIPOS>SUBSTRUCTURE
     1 AFJ         1

