### 
### Created by X-TOOL on Mon Sep 10 21:13:01 2018
### 

@<TRIPOS>MOLECULE
3dv1_ligand
   76    76     1     0     0
SMALL
GAST_HUCK


@<TRIPOS>ATOM
      1 N1         30.2780    6.1680   16.1530 N.am      1 AR9        -0.2795
      2 C3         31.3230    6.4560   15.1800 C.3       1 AR9         0.0683
      3 C5         32.3640    7.3660   15.9020 C.3       1 AR9        -0.0249
      4 C8         31.7050    8.7570   16.1610 C.3       1 AR9        -0.0417
      5 C10        32.5680    9.5910   17.1470 C.3       1 AR9        -0.0504
      6 C13        32.3670    9.0960   18.5910 C.3       1 AR9        -0.0528
      7 C16        31.2010    9.8610   19.2110 C.3       1 AR9        -0.0530
      8 C19        30.9680    9.4240   20.6960 C.3       1 AR9        -0.0529
      9 C22        29.8610    8.3500   20.7720 C.3       1 AR9        -0.0510
     10 C25        28.6230    8.9690   20.1150 C.3       1 AR9        -0.0361
     11 C28        27.4380    8.0290   20.1090 C.3       1 AR9         0.0374
     12 C31        27.5710    6.8730   19.1500 C.2       1 AR9         0.1782
     13 N32        27.9460    7.1350   17.8630 N.am      1 AR9        -0.2659
     14 C34        28.0080    6.0150   16.9000 C.3       1 AR9         0.1280
     15 C36        28.9810    6.3180   15.8050 C.2       1 AR9         0.2017
     16 O37        28.6100    6.6670   14.6830 O.2       1 AR9        -0.3945
     17 C38        26.5760    5.8380   16.3420 C.3       1 AR9        -0.0244
     18 O42        27.3280    5.7550   19.5810 O.2       1 AR9        -0.3969
     19 C43        31.6520    9.5150   14.8030 C.3       1 AR9        -0.0623
     20 C47        31.9740    5.1550   14.6640 C.3       1 AR9         0.0804
     21 O49        32.6100    4.4580   15.7470 O.3       1 AR9        -0.3894
     22 C51        30.9060    4.2010   14.0630 C.3       1 AR9        -0.0052
     23 C54        31.6250    3.2060   13.1350 C.3       1 AR9         0.0482
     24 C56        30.8100    1.8980   13.0480 C.3       1 AR9        -0.0452
     25 C60        31.6660    3.7310   11.7080 C.2       1 AR9         0.1789
     26 O61        30.7560    4.4310   11.2930 O.2       1 AR9        -0.3968
     27 N62        32.7300    3.3850   10.9810 N.am      1 AR9        -0.2867
     28 C64        32.8420    3.8090    9.5900 C.3       1 AR9         0.0309
     29 C67        34.2010    3.2980    9.0660 C.3       1 AR9        -0.0330
     30 C70        34.3310    3.4770    7.5290 C.3       1 AR9        -0.0541
     31 C73        34.4690    4.9720    7.1620 C.3       1 AR9        -0.0652
     32 H1         30.5192    5.8609   17.0736 H         1 AR9         0.1855
     33 H2         30.8921    6.9970   14.3246 H         1 AR9         0.0582
     34 H3         33.2539    7.4888   15.2672 H         1 AR9         0.0291
     35 H4         32.6564    6.9093   16.8590 H         1 AR9         0.0291
     36 H5         30.6918    8.6244   16.5683 H         1 AR9         0.0299
     37 H6         32.2717   10.6483   17.0823 H         1 AR9         0.0268
     38 H7         33.6288    9.4901   16.8741 H         1 AR9         0.0268
     39 H8         33.2812    9.2770   19.1753 H         1 AR9         0.0265
     40 H9         32.1424    8.0192   18.5856 H         1 AR9         0.0265
     41 H10        30.2891    9.6595   18.6297 H         1 AR9         0.0265
     42 H11        31.4227   10.9381   19.1838 H         1 AR9         0.0265
     43 H12        30.6650   10.2998   21.2886 H         1 AR9         0.0265
     44 H13        31.9026    9.0111   21.1035 H         1 AR9         0.0265
     45 H14        29.6489    8.0938   21.8205 H         1 AR9         0.0267
     46 H15        30.1693    7.4448   20.2284 H         1 AR9         0.0267
     47 H16        28.8696    9.2319   19.0758 H         1 AR9         0.0290
     48 H17        28.3482    9.8792   20.6682 H         1 AR9         0.0290
     49 H18        26.5423    8.6048   19.8331 H         1 AR9         0.0502
     50 H19        27.3146    7.6229   21.1238 H         1 AR9         0.0502
     51 H20        28.1741    8.0659   17.5778 H         1 AR9         0.1882
     52 H21        28.3234    5.0953   17.4145 H         1 AR9         0.0797
     53 H22        26.5650    5.0119   15.6157 H         1 AR9         0.0277
     54 H23        26.2585    6.7668   15.8456 H         1 AR9         0.0277
     55 H24        25.8863    5.6093   17.1678 H         1 AR9         0.0277
     56 H25        31.0447    8.9421   14.0868 H         1 AR9         0.0232
     57 H26        32.6720    9.6315   14.4080 H         1 AR9         0.0232
     58 H27        31.2018   10.5072   14.9542 H         1 AR9         0.0232
     59 H28        32.7190    5.4065   13.8947 H         1 AR9         0.0618
     60 H29        33.2803    5.0125   16.1288 H         1 AR9         0.2099
     61 H30        30.1685    4.7808   13.4887 H         1 AR9         0.0318
     62 H31        30.3955    3.6560   14.8707 H         1 AR9         0.0318
     63 H32        32.6412    3.0140   13.5096 H         1 AR9         0.0536
     64 H33        31.3255    1.1882   12.3843 H         1 AR9         0.0257
     65 H34        29.8095    2.1154   12.6459 H         1 AR9         0.0257
     66 H35        30.7143    1.4582   14.0517 H         1 AR9         0.0257
     67 H36        33.4546    2.8319   11.3921 H         1 AR9         0.1851
     68 H37        32.8018    4.9064    9.5259 H         1 AR9         0.0520
     69 H38        32.0226    3.3767    8.9969 H         1 AR9         0.0520
     70 H39        34.2975    2.2296    9.3094 H         1 AR9         0.0285
     71 H40        35.0072    3.8607    9.5593 H         1 AR9         0.0285
     72 H41        33.4347    3.0668    7.0407 H         1 AR9         0.0263
     73 H42        35.2211    2.9352    7.1765 H         1 AR9         0.0263
     74 H43        34.5595    5.0747    6.0706 H         1 AR9         0.0230
     75 H44        35.3660    5.3869    7.6449 H         1 AR9         0.0230
     76 H45        33.5797    5.5184    7.5092 H         1 AR9         0.0230
@<TRIPOS>BOND
     1    1    2 1  
     2    1   15 am 
     3    2    3 1  
     4    2   20 1  
     5    3    4 1  
     6    4    5 1  
     7    4   19 1  
     8    5    6 1  
     9    6    7 1  
    10    7    8 1  
    11    8    9 1  
    12    9   10 1  
    13   10   11 1  
    14   11   12 1  
    15   12   13 am 
    16   12   18 2  
    17   13   14 1  
    18   14   15 1  
    19   14   17 1  
    20   15   16 2  
    21   20   21 1  
    22   20   22 1  
    23   22   23 1  
    24   23   24 1  
    25   23   25 1  
    26   25   26 2  
    27   25   27 am 
    28   27   28 1  
    29   28   29 1  
    30   29   30 1  
    31   30   31 1  
    32    1   32 1  
    33    2   33 1  
    34    3   34 1  
    35    3   35 1  
    36    4   36 1  
    37    5   37 1  
    38    5   38 1  
    39    6   39 1  
    40    6   40 1  
    41    7   41 1  
    42    7   42 1  
    43    8   43 1  
    44    8   44 1  
    45    9   45 1  
    46    9   46 1  
    47   10   47 1  
    48   10   48 1  
    49   11   49 1  
    50   11   50 1  
    51   13   51 1  
    52   14   52 1  
    53   17   53 1  
    54   17   54 1  
    55   17   55 1  
    56   19   56 1  
    57   19   57 1  
    58   19   58 1  
    59   20   59 1  
    60   21   60 1  
    61   22   61 1  
    62   22   62 1  
    63   23   63 1  
    64   24   64 1  
    65   24   65 1  
    66   24   66 1  
    67   27   67 1  
    68   28   68 1  
    69   28   69 1  
    70   29   70 1  
    71   29   71 1  
    72   30   72 1  
    73   30   73 1  
    74   31   74 1  
    75   31   75 1  
    76   31   76 1  
@<TRIPOS>SUBSTRUCTURE
     1 AR9         1

