### 
### Created by X-TOOL on Mon Sep 10 21:13:01 2018
### 

@<TRIPOS>MOLECULE
3dv5_ligand
   85    86     1     0     0
SMALL
GAST_HUCK


@<TRIPOS>ATOM
      1 N1         27.3080    6.5180   16.8590 N.am      1 BAV        -0.2551
      2 C2         27.3450    5.4120   15.9210 C.3       1 BAV         0.1304
      3 C4         28.4650    5.6510   14.9550 C.2       1 BAV         0.2019
      4 N5         29.7200    5.7230   15.4620 N.am      1 BAV        -0.2793
      5 C7         30.8710    5.9170   14.5620 C.3       1 BAV         0.0732
      6 C9         31.8550    6.8270   15.3360 C.3       1 BAV        -0.0247
      7 C12        31.1400    8.1530   15.8080 C.3       1 BAV        -0.0417
      8 C14        32.2520    9.0140   16.4350 C.3       1 BAV        -0.0504
      9 C17        31.7310   10.3030   17.1290 C.3       1 BAV        -0.0528
     10 C20        30.7020   10.0510   18.2430 C.3       1 BAV        -0.0530
     11 C23        31.2710    9.1130   19.3320 C.3       1 BAV        -0.0531
     12 C26        30.3860    9.1930   20.6230 C.3       1 BAV        -0.0529
     13 C29        28.8680    8.9940   20.3280 C.3       1 BAV        -0.0510
     14 C32        28.6300    7.6050   19.6310 C.3       1 BAV        -0.0361
     15 C35        27.1080    7.3890   19.2320 C.3       1 BAV         0.0376
     16 C38        27.0930    6.2370   18.1990 C.2       1 BAV         0.1805
     17 O39        26.8830    5.0960   18.6070 O.2       1 BAV        -0.3967
     18 C40        30.4730    8.9090   14.5690 C.3       1 BAV        -0.0623
     19 C44        31.5880    4.5730   14.2720 C.3       1 BAV         0.1175
     20 O46        32.8220    4.8200   13.5960 O.3       1 BAV        -0.3842
     21 C48        30.7210    3.6020   13.4430 C.3       1 BAV        -0.0035
     22 N51        31.4290    2.3110   13.1910 N.4       1 BAV         0.2409
     23 C53        30.7960    1.5220   12.0900 C.3       1 BAV        -0.0014
     24 C56        30.7310    2.2940   10.7270 C.ar      1 BAV        -0.0054
     25 C57        31.8930    2.8580   10.1620 C.ar      1 BAV        -0.0539
     26 C59        31.8330    3.5250    8.9150 C.ar      1 BAV        -0.0471
     27 C60        30.6090    3.6510    8.2380 C.ar      1 BAV        -0.0670
     28 C62        29.4550    3.0950    8.8070 C.ar      1 BAV        -0.0750
     29 C64        29.4990    2.4210   10.0530 C.ar      1 BAV        -0.0622
     30 C66        33.0540    4.1100    8.2650 C.3       1 BAV        -0.0146
     31 C68        34.0950    2.9830    8.0840 C.3       1 BAV        -0.0529
     32 C72        33.6620    5.2340    9.1090 C.3       1 BAV        -0.0529
     33 O76        28.2100    5.7650   13.7730 O.2       1 BAV        -0.3945
     34 C77        25.9740    5.2100   15.1840 C.3       1 BAV        -0.0242
     35 C81        27.4650    7.9260   16.4010 C.3       1 BAV         0.0253
     36 H1         27.5606    4.4906   16.4818 H         1 BAV         0.0799
     37 H2         29.8652    5.6444   16.4483 H         1 BAV         0.1855
     38 H3         30.5510    6.3861   13.6199 H         1 BAV         0.0584
     39 H4         32.6986    7.0864   14.6795 H         1 BAV         0.0291
     40 H5         32.2292    6.2858   16.2175 H         1 BAV         0.0291
     41 H6         30.3651    7.9250   16.5547 H         1 BAV         0.0299
     42 H7         32.9533    9.3075   15.6400 H         1 BAV         0.0268
     43 H8         32.7804    8.4062   17.1842 H         1 BAV         0.0268
     44 H9         31.2619   10.9400   16.3647 H         1 BAV         0.0265
     45 H10        32.5913   10.8297   17.5677 H         1 BAV         0.0265
     46 H11        29.8054    9.5885   17.8046 H         1 BAV         0.0265
     47 H12        30.4306   11.0121   18.7042 H         1 BAV         0.0265
     48 H13        32.2992    9.4188   19.5755 H         1 BAV         0.0265
     49 H14        31.2752    8.0791   18.9566 H         1 BAV         0.0265
     50 H15        30.5276   10.1809   21.0855 H         1 BAV         0.0265
     51 H16        30.7136    8.4101   21.3228 H         1 BAV         0.0265
     52 H17        28.5179    9.7985   19.6646 H         1 BAV         0.0267
     53 H18        28.3063    9.0276   21.2732 H         1 BAV         0.0267
     54 H19        28.9322    6.8048   20.3226 H         1 BAV         0.0290
     55 H20        29.2457    7.5549   18.7208 H         1 BAV         0.0290
     56 H21        26.6965    8.3065   18.7861 H         1 BAV         0.0502
     57 H22        26.5166    7.1147   20.1179 H         1 BAV         0.0502
     58 H23        29.6827    8.2777   14.1366 H         1 BAV         0.0232
     59 H24        31.2397    9.1104   13.8064 H         1 BAV         0.0232
     60 H25        30.0371    9.8594   14.9108 H         1 BAV         0.0232
     61 H26        31.8082    4.0913   15.2361 H         1 BAV         0.0670
     62 H27        33.3784    5.3623   14.1429 H         1 BAV         0.2101
     63 H28        30.4818    4.0722   12.4778 H         1 BAV         0.0840
     64 H29        29.7900    3.3973   13.9919 H         1 BAV         0.0840
     65 H30        31.4108    1.7611   14.0356 H         1 BAV         0.2029
     66 H31        32.3848    2.5092   12.9395 H         1 BAV         0.2029
     67 H32        29.7708    1.2621   12.3924 H         1 BAV         0.0979
     68 H33        31.3791    0.6012   11.9414 H         1 BAV         0.0979
     69 H34        32.8387    2.7803   10.6861 H         1 BAV         0.0496
     70 H35        30.5574    4.1712    7.2883 H         1 BAV         0.0500
     71 H36        28.5098    3.1823    8.2835 H         1 BAV         0.0582
     72 H37        28.5944    2.0072   10.4836 H         1 BAV         0.0501
     73 H38        32.7770    4.5155    7.2807 H         1 BAV         0.0455
     74 H39        34.9988    3.3916    7.6085 H         1 BAV         0.0254
     75 H40        33.6719    2.1917    7.4478 H         1 BAV         0.0254
     76 H41        34.3557    2.5633    9.0668 H         1 BAV         0.0254
     77 H42        32.9214    6.0370    9.2384 H         1 BAV         0.0254
     78 H43        34.5516    5.6342    8.6006 H         1 BAV         0.0254
     79 H44        33.9496    4.8383   10.0942 H         1 BAV         0.0254
     80 H45        26.0539    4.3629   14.4868 H         1 BAV         0.0277
     81 H46        25.7204    6.1226   14.6247 H         1 BAV         0.0277
     82 H47        25.1869    5.0028   15.9240 H         1 BAV         0.0277
     83 H48        27.4062    8.6019   17.2669 H         1 BAV         0.0488
     84 H49        26.6632    8.1716   15.6891 H         1 BAV         0.0488
     85 H50        28.4415    8.0448   15.9088 H         1 BAV         0.0488
@<TRIPOS>BOND
     1    1    2 1  
     2    1   16 am 
     3    1   35 1  
     4    2    3 1  
     5    2   34 1  
     6    3    4 am 
     7    3   33 2  
     8    4    5 1  
     9    5    6 1  
    10    5   19 1  
    11    6    7 1  
    12    7    8 1  
    13    7   18 1  
    14    8    9 1  
    15    9   10 1  
    16   10   11 1  
    17   11   12 1  
    18   12   13 1  
    19   13   14 1  
    20   14   15 1  
    21   15   16 1  
    22   16   17 2  
    23   19   20 1  
    24   19   21 1  
    25   21   22 1  
    26   22   23 1  
    27   23   24 1  
    28   24   25 ar 
    29   24   29 ar 
    30   25   26 ar 
    31   26   27 ar 
    32   26   30 1  
    33   27   28 ar 
    34   28   29 ar 
    35   30   31 1  
    36   30   32 1  
    37    2   36 1  
    38    4   37 1  
    39    5   38 1  
    40    6   39 1  
    41    6   40 1  
    42    7   41 1  
    43    8   42 1  
    44    8   43 1  
    45    9   44 1  
    46    9   45 1  
    47   10   46 1  
    48   10   47 1  
    49   11   48 1  
    50   11   49 1  
    51   12   50 1  
    52   12   51 1  
    53   13   52 1  
    54   13   53 1  
    55   14   54 1  
    56   14   55 1  
    57   15   56 1  
    58   15   57 1  
    59   18   58 1  
    60   18   59 1  
    61   18   60 1  
    62   19   61 1  
    63   20   62 1  
    64   21   63 1  
    65   21   64 1  
    66   22   65 1  
    67   22   66 1  
    68   23   67 1  
    69   23   68 1  
    70   25   69 1  
    71   27   70 1  
    72   28   71 1  
    73   29   72 1  
    74   30   73 1  
    75   31   74 1  
    76   31   75 1  
    77   31   76 1  
    78   32   77 1  
    79   32   78 1  
    80   32   79 1  
    81   34   80 1  
    82   34   81 1  
    83   34   82 1  
    84   35   83 1  
    85   35   84 1  
    86   35   85 1  
@<TRIPOS>SUBSTRUCTURE
     1 BAV         1

