### 
### Created by X-TOOL on Mon Sep 10 21:12:59 2018
### 

@<TRIPOS>MOLECULE
3dx0_ligand
   25    25     1     0     0
SMALL
GAST_HUCK


@<TRIPOS>ATOM
      1 C5         31.2740   66.3160    9.1220 C.3       1 MSN         0.0192
      2 N5         31.0470   65.0000    9.7410 N.4       1 MSN         0.2235
      3 C4         32.7780   66.6710    9.1140 C.3       1 MSN         0.1267
      4 O4         33.5810   65.5740    9.5140 O.3       1 MSN        -0.3835
      5 C3         33.0980   67.1920    7.6930 C.3       1 MSN         0.1133
      6 O3         33.7070   66.1980    6.9090 O.3       1 MSN        -0.3864
      7 C2         31.7070   67.5200    7.1120 C.3       1 MSN         0.1007
      8 O2         31.7170   67.5830    5.6890 O.3       1 MSN        -0.3878
      9 C1         30.8920   66.3500    7.6650 C.3       1 MSN         0.0784
     10 S6         29.0740   66.5930    7.5690 S.3       1 MSN        -0.1524
     11 C7         28.9250   66.0320    5.8850 C.3       1 MSN        -0.0176
     12 H1         30.7026   67.0719    9.6807 H         1 MSN         0.0888
     13 H2         31.3183   65.0338   10.7112 H         1 MSN         0.1998
     14 H3         31.5972   64.3041    9.2624 H         1 MSN         0.1998
     15 H4         30.0701   64.7609    9.6734 H         1 MSN         0.1998
     16 H5         32.9541   67.4862    9.8312 H         1 MSN         0.0677
     17 H6         34.4958   65.8297    9.4966 H         1 MSN         0.2102
     18 H7         33.7399   68.0844    7.7329 H         1 MSN         0.0647
     19 H8         33.8910   66.5465    6.0446 H         1 MSN         0.2100
     20 H9         31.3309   68.4774    7.5018 H         1 MSN         0.0633
     21 H10        32.3213   68.2599    5.4073 H         1 MSN         0.2099
     22 H11        31.1656   65.4166    7.1514 H         1 MSN         0.0495
     23 H12        27.8714   66.0840    5.5731 H         1 MSN         0.0341
     24 H13        29.2781   64.9928    5.8121 H         1 MSN         0.0341
     25 H14        29.5334   66.6728    5.2298 H         1 MSN         0.0341
@<TRIPOS>BOND
     1    1    2 1  
     2    1    3 1  
     3    1    9 1  
     4    3    4 1  
     5    3    5 1  
     6    5    6 1  
     7    5    7 1  
     8    7    8 1  
     9    7    9 1  
    10    9   10 1  
    11   10   11 1  
    12    1   12 1  
    13    2   13 1  
    14    2   14 1  
    15    2   15 1  
    16    3   16 1  
    17    4   17 1  
    18    5   18 1  
    19    6   19 1  
    20    7   20 1  
    21    8   21 1  
    22    9   22 1  
    23   11   23 1  
    24   11   24 1  
    25   11   25 1  
@<TRIPOS>SUBSTRUCTURE
     1 MSN         1

