### 
### Created by X-TOOL on Mon Sep 10 21:12:59 2018
### 

@<TRIPOS>MOLECULE
3dx1_ligand
   21    21     1     0     0
SMALL
GAST_HUCK


@<TRIPOS>ATOM
      1 O3         33.6990   65.8280    7.0680 O.3       1 YHO        -0.3865
      2 C3         32.9330   66.8210    7.7990 C.3       1 YHO         0.1123
      3 C2         32.5520   66.2890    9.1930 C.3       1 YHO         0.1257
      4 O2         33.4060   65.2010    9.5940 O.3       1 YHO        -0.3835
      5 C1         31.0710   65.8390    9.0860 C.3       1 YHO         0.0072
      6 N1         30.9530   64.4810    9.6380 N.4       1 YHO         0.2227
      7 C5         30.7420   65.8990    7.5950 C.3       1 YHO         0.0213
      8 C4         31.5570   67.1270    7.1850 C.3       1 YHO         0.0889
      9 O4         31.6230   67.3100    5.7730 O.3       1 YHO        -0.3889
     10 H1         34.4927   65.6249    7.5490 H         1 YHO         0.2100
     11 H2         33.5306   67.7413    7.8761 H         1 YHO         0.0647
     12 H3         32.6412   67.0964    9.9348 H         1 YHO         0.0677
     13 H4         34.3069   65.5008    9.6219 H         1 YHO         0.2102
     14 H5         30.4124   66.5195    9.6456 H         1 YHO         0.0877
     15 H6         29.9947   64.1749    9.5751 H         1 YHO         0.1998
     16 H7         31.2419   64.4845   10.6037 H         1 YHO         0.1998
     17 H8         31.5415   63.8528    9.1135 H         1 YHO         0.1998
     18 H9         29.6661   66.0480    7.4212 H         1 YHO         0.0347
     19 H10        31.0768   64.9937    7.0675 H         1 YHO         0.0347
     20 H11        31.1291   68.0363    7.6322 H         1 YHO         0.0622
     21 H12        32.1391   68.0836    5.5788 H         1 YHO         0.2099
@<TRIPOS>BOND
     1    1    2 1  
     2    2    3 1  
     3    2    8 1  
     4    3    4 1  
     5    3    5 1  
     6    5    6 1  
     7    5    7 1  
     8    7    8 1  
     9    8    9 1  
    10    1   10 1  
    11    2   11 1  
    12    3   12 1  
    13    4   13 1  
    14    5   14 1  
    15    6   15 1  
    16    6   16 1  
    17    6   17 1  
    18    7   18 1  
    19    7   19 1  
    20    8   20 1  
    21    9   21 1  
@<TRIPOS>SUBSTRUCTURE
     1 YHO         1

