### 
### Created by X-TOOL on Mon Sep 10 21:12:59 2018
### 

@<TRIPOS>MOLECULE
3dx2_ligand
   26    26     1     0     0
SMALL
GAST_HUCK


@<TRIPOS>ATOM
      1 O6         28.2600   65.2430    8.8500 O.2       1 MZB        -0.2569
      2 S6         29.0250   66.3980    7.8910 S.o       1 MZB         0.0303
      3 C7         28.5970   65.8650    6.2690 C.3       1 MZB         0.0123
      4 C1         30.7270   65.8680    7.9150 C.3       1 MZB         0.1077
      5 C5         31.1830   65.7400    9.3620 C.3       1 MZB         0.0216
      6 N5         30.9620   64.4100    9.9360 N.4       1 MZB         0.2236
      7 C4         32.6860   66.1090    9.3780 C.3       1 MZB         0.1268
      8 O4         33.4900   64.9800    9.7260 O.3       1 MZB        -0.3835
      9 C3         33.0060   66.6360    7.9750 C.3       1 MZB         0.1134
     10 O3         33.6370   65.6110    7.1770 O.3       1 MZB        -0.3864
     11 C2         31.6320   66.9930    7.4050 C.3       1 MZB         0.1030
     12 O2         31.6310   67.1620    5.9810 O.3       1 MZB        -0.3878
     13 H1         29.0423   66.5469    5.5296 H         1 MZB         0.0365
     14 H2         27.5026   65.8687    6.1587 H         1 MZB         0.0365
     15 H3         28.9787   64.8465    6.1050 H         1 MZB         0.0365
     16 H4         30.8567   64.9354    7.3463 H         1 MZB         0.0520
     17 H5         30.6253   66.4656    9.9724 H         1 MZB         0.0889
     18 H6         31.2856   64.3980   10.8906 H         1 MZB         0.1998
     19 H7         31.4705   63.7241    9.4003 H         1 MZB         0.1998
     20 H8         29.9779   64.1930    9.9121 H         1 MZB         0.1998
     21 H9         32.8640   66.9039   10.1172 H         1 MZB         0.0677
     22 H10        34.4056   65.2334    9.7284 H         1 MZB         0.2102
     23 H11        33.6570   67.5213    8.0234 H         1 MZB         0.0647
     24 H12        34.4453   65.3384    7.5952 H         1 MZB         0.2100
     25 H13        31.2968   67.9453    7.8418 H         1 MZB         0.0634
     26 H14        32.2282   67.8624    5.7459 H         1 MZB         0.2099
@<TRIPOS>BOND
     1    1    2 2  
     2    2    3 1  
     3    2    4 1  
     4    4    5 1  
     5    4   11 1  
     6    5    6 1  
     7    5    7 1  
     8    7    8 1  
     9    7    9 1  
    10    9   10 1  
    11    9   11 1  
    12   11   12 1  
    13    3   13 1  
    14    3   14 1  
    15    3   15 1  
    16    4   16 1  
    17    5   17 1  
    18    6   18 1  
    19    6   19 1  
    20    6   20 1  
    21    7   21 1  
    22    8   22 1  
    23    9   23 1  
    24   10   24 1  
    25   11   25 1  
    26   12   26 1  
@<TRIPOS>SUBSTRUCTURE
     1 MZB         1

