### 
### Created by X-TOOL on Mon Sep 10 21:12:59 2018
### 

@<TRIPOS>MOLECULE
3dx3_ligand
   22    22     1     0     0
SMALL
GAST_HUCK


@<TRIPOS>ATOM
      1 O6         29.4900   66.1080    7.0040 O.3       1 YTB        -0.3834
      2 C5         30.8790   66.0110    7.3610 C.3       1 YTB         0.1282
      3 C4         31.6160   67.2730    6.9750 C.3       1 YTB         0.1148
      4 O4         31.6710   67.5460    5.5680 O.3       1 YTB        -0.3864
      5 C3         32.9770   67.0720    7.6370 C.3       1 YTB         0.1148
      6 O3         33.7270   66.1020    6.8880 O.3       1 YTB        -0.3864
      7 C1         31.1590   65.9730    8.8560 C.3       1 YTB         0.0337
      8 N1         31.0030   64.6330    9.4250 N.4       1 YTB         0.2246
      9 C2         32.5940   66.4880    9.0130 C.3       1 YTB         0.1282
     10 O2         33.4960   65.4580    9.4720 O.3       1 YTB        -0.3834
     11 H1         29.0983   66.8451    7.4577 H         1 YTB         0.2102
     12 H2         31.3074   65.1270    6.8660 H         1 YTB         0.0678
     13 H3         31.1146   68.1341    7.4410 H         1 YTB         0.0648
     14 H4         32.1503   68.3532    5.4216 H         1 YTB         0.2100
     15 H5         33.5387   68.0133    7.7286 H         1 YTB         0.0648
     16 H6         34.5748   65.9742    7.2971 H         1 YTB         0.2100
     17 H7         30.4645   66.6497    9.3754 H         1 YTB         0.0903
     18 H8         31.1990   64.6628   10.4133 H         1 YTB         0.1999
     19 H9         31.6447   63.9997    8.9742 H         1 YTB         0.1999
     20 H10        30.0580   64.3140    9.2793 H         1 YTB         0.1999
     21 H11        32.6069   67.2968    9.7585 H         1 YTB         0.0678
     22 H12        34.3708   65.8188    9.5552 H         1 YTB         0.2102
@<TRIPOS>BOND
     1    1    2 1  
     2    2    3 1  
     3    2    7 1  
     4    3    4 1  
     5    3    5 1  
     6    5    6 1  
     7    5    9 1  
     8    7    8 1  
     9    7    9 1  
    10    9   10 1  
    11    1   11 1  
    12    2   12 1  
    13    3   13 1  
    14    4   14 1  
    15    5   15 1  
    16    6   16 1  
    17    7   17 1  
    18    8   18 1  
    19    8   19 1  
    20    8   20 1  
    21    9   21 1  
    22   10   22 1  
@<TRIPOS>SUBSTRUCTURE
     1 YTB         1

