### 
### Created by X-TOOL on Mon Sep 10 21:13:00 2018
### 

@<TRIPOS>MOLECULE
3dx4_ligand
   25    25     1     0     0
SMALL
GAST_HUCK


@<TRIPOS>ATOM
      1 C7         28.8890   66.0020    6.3060 C.3       1 GOO         0.0372
      2 O6         29.4390   66.1150    7.6310 O.3       1 GOO        -0.3714
      3 C1         30.8670   65.9320    7.6530 C.3       1 GOO         0.1312
      4 C2         31.6140   67.1850    7.1500 C.3       1 GOO         0.1150
      5 O2         31.6440   67.3240    5.7290 O.3       1 GOO        -0.3864
      6 C3         33.0090   66.9450    7.7270 C.3       1 GOO         0.1148
      7 O3         33.7250   65.9500    6.9610 O.3       1 GOO        -0.3864
      8 C4         32.7100   66.4070    9.1490 C.3       1 GOO         0.1282
      9 O4         33.5820   65.3310    9.5280 O.3       1 GOO        -0.3834
     10 C5         31.2290   65.9780    9.1140 C.3       1 GOO         0.0340
     11 N5         31.1470   64.6420    9.7640 N.4       1 GOO         0.2246
     12 H1         27.7997   66.1497    6.3474 H         1 GOO         0.0524
     13 H2         29.1084   65.0027    5.9019 H         1 GOO         0.0524
     14 H3         29.3383   66.7672    5.6560 H         1 GOO         0.0524
     15 H4         31.1746   65.0119    7.1345 H         1 GOO         0.0681
     16 H5         31.1648   68.0944    7.5757 H         1 GOO         0.0648
     17 H6         32.1185   68.1142    5.4992 H         1 GOO         0.2100
     18 H7         33.5909   67.8778    7.7639 H         1 GOO         0.0648
     19 H8         34.5866   65.8201    7.3396 H         1 GOO         0.2100
     20 H9         32.8376   67.2192    9.8798 H         1 GOO         0.0678
     21 H10        34.4821   65.6344    9.5140 H         1 GOO         0.2102
     22 H11        30.5876   66.6961    9.6459 H         1 GOO         0.0903
     23 H12        30.1901   64.3251    9.7611 H         1 GOO         0.1999
     24 H13        31.4755   64.7100   10.7145 H         1 GOO         0.1999
     25 H14        31.7197   63.9858    9.2567 H         1 GOO         0.1999
@<TRIPOS>BOND
     1    1    2 1  
     2    2    3 1  
     3    3    4 1  
     4    3   10 1  
     5    4    5 1  
     6    4    6 1  
     7    6    7 1  
     8    6    8 1  
     9    8    9 1  
    10    8   10 1  
    11   10   11 1  
    12    1   12 1  
    13    1   13 1  
    14    1   14 1  
    15    3   15 1  
    16    4   16 1  
    17    5   17 1  
    18    6   18 1  
    19    7   19 1  
    20    8   20 1  
    21    9   21 1  
    22   10   22 1  
    23   11   23 1  
    24   11   24 1  
    25   11   25 1  
@<TRIPOS>SUBSTRUCTURE
     1 GOO         1

