### 
### Created by X-TOOL on Mon Sep 10 21:12:59 2018
### 

@<TRIPOS>MOLECULE
3dxj_ligand
   61    61     1     0     0
SMALL
GAST_HUCK


@<TRIPOS>ATOM
      1 O1        -10.1180   58.9040    2.4490 O.3       1 NE6        -0.1913
      2 C2        -10.6270   60.1980    2.4510 C.2       1 NE6         0.2541
      3 C3        -12.1180   60.3210    2.5490 C.2       1 NE6         0.0998
      4 O2         -9.8780   61.1750    2.4560 O.2       1 NE6        -0.4014
      5 C4        -12.9040   59.1800    2.5200 C.2       1 NE6         0.0995
      6 C5        -12.3160   57.8530    2.5150 C.2       1 NE6         0.0210
      7 C6        -10.9610   57.7290    2.4480 C.2       1 NE6         0.1505
      8 C7        -10.1730   56.4240    2.4430 C.3       1 NE6         0.0455
      9 C8        -10.7180   55.4170    1.4100 C.3       1 NE6        -0.0417
     10 C9        -10.1980   55.7400    3.8410 C.3       1 NE6        -0.0274
     11 C10        -9.2020   56.3090    4.8220 C.3       1 NE6        -0.0449
     12 C11        -9.2870   55.7540    6.2260 C.2       1 NE6        -0.0936
     13 C12        -8.2090   55.2890    6.8950 C.2       1 NE6         0.0110
     14 C13        -7.3080   54.2960    8.9590 C.2       1 NE6         0.3478
     15 C14        -6.7260   53.6330   11.2450 C.3       1 NE6         0.0667
     16 C15       -12.7590   61.6770    2.5770 C.2       1 NE6         0.1003
     17 C16       -12.3900   62.5940    3.7500 C.2       1 NE6        -0.0258
     18 C17       -11.9990   63.9870    3.2960 C.3       1 NE6        -0.0378
     19 C18       -12.4340   62.1180    5.0390 C.2       1 NE6        -0.0837
     20 C19       -12.1230   62.8430    6.2740 C.2       1 NE6        -0.0778
     21 C20       -12.1500   62.3820    7.5570 C.2       1 NE6        -0.0529
     22 C21       -12.5070   60.9840    7.9940 C.3       1 NE6        -0.0222
     23 C22       -11.7820   63.3310    8.6980 C.3       1 NE6        -0.0109
     24 C23       -12.9990   63.8580    9.4720 C.3       1 NE6        -0.0419
     25 C24       -12.5660   64.7890   10.5690 C.3       1 NE6        -0.0627
     26 N12        -8.3460   54.7810    8.1770 N.am      1 NE6        -0.2259
     27 O14        -7.6800   53.9260   10.2400 O.3       1 NE6        -0.2625
     28 O13        -6.1360   54.2720    8.5970 O.2       1 NE6        -0.3676
     29 O4        -14.2840   59.2040    2.5890 O.3       1 NE6        -0.3215
     30 O15       -13.5710   62.0400    1.7220 O.2       1 NE6        -0.4223
     31 H1        -12.9494   56.9685    2.5641 H         1 NE6         0.0376
     32 H2         -9.1302   56.6603    2.1845 H         1 NE6         0.0607
     33 H3        -10.1185   54.4954    1.4448 H         1 NE6         0.0269
     34 H4        -10.6577   55.8557    0.4031 H         1 NE6         0.0269
     35 H5        -11.7664   55.1815    1.6453 H         1 NE6         0.0269
     36 H6         -9.9784   54.6706    3.7066 H         1 NE6         0.0318
     37 H7        -11.2062   55.8569    4.2651 H         1 NE6         0.0318
     38 H8         -9.3617   57.3960    4.8763 H         1 NE6         0.0335
     39 H9         -8.1919   56.1056    4.4370 H         1 NE6         0.0335
     40 H10       -10.2578   55.7280    6.7187 H         1 NE6         0.0214
     41 H11        -7.2273   55.3136    6.4242 H         1 NE6         0.0798
     42 H12        -7.2456   53.3645   12.1766 H         1 NE6         0.0575
     43 H13        -6.0939   54.5162   11.4192 H         1 NE6         0.0575
     44 H14        -6.0977   52.7907   10.9198 H         1 NE6         0.0575
     45 H15       -11.7451   64.6006    4.1729 H         1 NE6         0.0353
     46 H16       -12.8409   64.4471    2.7579 H         1 NE6         0.0353
     47 H17       -11.1274   63.9238    2.6280 H         1 NE6         0.0353
     48 H18       -12.7359   61.0783    5.1563 H         1 NE6         0.0511
     49 H19       -11.8326   63.8854    6.1511 H         1 NE6         0.0295
     50 H20       -12.4394   60.9139    9.0897 H         1 NE6         0.0459
     51 H21       -11.8088   60.2674    7.5370 H         1 NE6         0.0459
     52 H22       -13.5333   60.7507    7.6743 H         1 NE6         0.0459
     53 H23       -11.2394   64.1896    8.2757 H         1 NE6         0.0494
     54 H24       -11.1283   62.7937    9.4008 H         1 NE6         0.0494
     55 H25       -13.5428   63.0091    9.9121 H         1 NE6         0.0294
     56 H26       -13.6613   64.3985    8.7797 H         1 NE6         0.0294
     57 H27       -13.4511   65.1546   11.1102 H         1 NE6         0.0232
     58 H28       -12.0243   65.6417   10.1338 H         1 NE6         0.0232
     59 H29       -11.9057   64.2523   11.2661 H         1 NE6         0.0232
     60 H30        -9.2657   54.7626    8.5693 H         1 NE6         0.2255
     61 H31       -14.5844   60.1053    2.5874 H         1 NE6         0.2590
@<TRIPOS>BOND
     1    1    2 1  
     2    1    7 1  
     3    2    3 1  
     4    2    4 2  
     5    3    5 2  
     6    3   16 1  
     7    5    6 1  
     8    5   29 1  
     9    6    7 2  
    10    7    8 1  
    11    8    9 1  
    12    8   10 1  
    13   10   11 1  
    14   11   12 1  
    15   12   13 2  
    16   13   26 1  
    17   26   14 am 
    18   14   27 1  
    19   14   28 2  
    20   27   15 1  
    21   16   17 1  
    22   16   30 2  
    23   17   18 1  
    24   17   19 2  
    25   19   20 1  
    26   20   21 2  
    27   21   22 1  
    28   21   23 1  
    29   23   24 1  
    30   24   25 1  
    31    6   31 1  
    32    8   32 1  
    33    9   33 1  
    34    9   34 1  
    35    9   35 1  
    36   10   36 1  
    37   10   37 1  
    38   11   38 1  
    39   11   39 1  
    40   12   40 1  
    41   13   41 1  
    42   15   42 1  
    43   15   43 1  
    44   15   44 1  
    45   18   45 1  
    46   18   46 1  
    47   18   47 1  
    48   19   48 1  
    49   20   49 1  
    50   22   50 1  
    51   22   51 1  
    52   22   52 1  
    53   23   53 1  
    54   23   54 1  
    55   24   55 1  
    56   24   56 1  
    57   25   57 1  
    58   25   58 1  
    59   25   59 1  
    60   26   60 1  
    61   29   61 1  
@<TRIPOS>SUBSTRUCTURE
     1 NE6         1

