### 
### Created by X-TOOL on Mon Sep 10 21:13:02 2018
### 

@<TRIPOS>MOLECULE
3dxk_ligand
   36    38     1     0     0
SMALL
GAST_HUCK


@<TRIPOS>ATOM
      1 CAO         2.0170   15.5410   38.1230 C.3       1 N23        -0.0124
      2 CAB         0.8470   15.6960   37.1510 C.2       1 N23         0.0349
      3 NAA         0.2830   14.7030   36.4600 N.pl3     1 N23        -0.2818
      4 CAE        -0.7580   15.1930   35.7940 C.ar      1 N23         0.0558
      5 CAR        -1.6630   14.5680   34.9400 C.ar      1 N23        -0.0483
      6 CAT        -2.6870   15.3020   34.3570 C.ar      1 N23        -0.0802
      7 CAS        -2.8180   16.6590   34.6550 C.ar      1 N23        -0.0830
      8 CAQ        -1.9280   17.2890   35.5130 C.ar      1 N23        -0.0799
      9 CAD        -0.8870   16.5520   36.0720 C.ar      1 N23        -0.0319
     10 CAC         0.1460   16.8760   36.9440 C.2       1 N23        -0.0468
     11 CAN         0.5060   18.2740   37.4520 C.3       1 N23        -0.0221
     12 CAP        -0.2480   18.5770   38.7470 C.3       1 N23         0.0321
     13 NAM         0.0990   17.5440   39.7360 N.am      1 N23        -0.2869
     14 CAG         0.9630   17.7870   40.7100 C.2       1 N23         0.2074
     15 OAK         1.5260   18.8720   40.8850 O.2       1 N23        -0.3912
     16 CAF         1.2040   16.5970   41.6400 C.2       1 N23         0.0996
     17 CAI         0.5270   15.4550   41.5750 C.2       1 N23        -0.0550
     18 CAL         0.7970   14.5920   42.5620 C.2       1 N23        -0.0664
     19 CAJ         1.7040   14.9660   43.4650 C.2       1 N23         0.0010
     20 SAH         2.2280   16.5250   43.0090 S.3       1 N23        -0.0259
     21 H1          2.2734   16.5228   38.5476 H         1 N23         0.0408
     22 H2          2.8875   15.1346   37.5872 H         1 N23         0.0408
     23 H3          1.7319   14.8542   38.9335 H         1 N23         0.0408
     24 H4          0.6005   13.7233   36.4453 H         1 N23         0.2216
     25 H5         -1.5680   13.5087   34.7305 H         1 N23         0.0531
     26 H6         -3.3805   14.8240   33.6746 H         1 N23         0.0502
     27 H7         -3.6260   17.2286   34.2102 H         1 N23         0.0500
     28 H8         -2.0416   18.3417   35.7453 H         1 N23         0.0510
     29 H9          0.2327   19.0188   36.6900 H         1 N23         0.0340
     30 H10         1.5883   18.3238   37.6419 H         1 N23         0.0340
     31 H11        -1.3316   18.5625   38.5586 H         1 N23         0.0529
     32 H12         0.0452   19.5674   39.1252 H         1 N23         0.0529
     33 H13        -0.3258   16.6410   39.6714 H         1 N23         0.1837
     34 H14        -0.1889   15.2391   40.7833 H         1 N23         0.0515
     35 H15         0.2975   13.6263   42.6248 H         1 N23         0.0437
     36 H16         2.0437   14.3900   44.3245 H         1 N23         0.0801
@<TRIPOS>BOND
     1    1    2 1  
     2    2    3 1  
     3    2   10 2  
     4    3    4 1  
     5    4    5 ar 
     6    4    9 ar 
     7    5    6 ar 
     8    6    7 ar 
     9    7    8 ar 
    10    8    9 ar 
    11    9   10 1  
    12   10   11 1  
    13   11   12 1  
    14   12   13 1  
    15   13   14 am 
    16   14   15 2  
    17   14   16 1  
    18   16   17 2  
    19   16   20 1  
    20   17   18 1  
    21   18   19 2  
    22   19   20 1  
    23    1   21 1  
    24    1   22 1  
    25    1   23 1  
    26    3   24 1  
    27    5   25 1  
    28    6   26 1  
    29    7   27 1  
    30    8   28 1  
    31   11   29 1  
    32   11   30 1  
    33   12   31 1  
    34   12   32 1  
    35   13   33 1  
    36   17   34 1  
    37   18   35 1  
    38   19   36 1  
@<TRIPOS>SUBSTRUCTURE
     1 N23         1

