### 
### Created by X-TOOL on Mon Sep 10 21:13:02 2018
### 

@<TRIPOS>MOLECULE
3dxm_ligand
   32    34     1     0     0
SMALL
GAST_HUCK


@<TRIPOS>ATOM
      1 CAJ        13.6090   19.5040   53.8090 C.ar      1 N24        -0.0472
      2 CAN        14.4080   19.6880   54.9510 C.ar      1 N24         0.0065
      3 BRAR       13.6160   19.6040   56.6880 Br        1 N24        -0.0517
      4 CAU        15.7760   19.9450   54.7870 C.ar      1 N24        -0.0591
      5 CAT        16.3300   20.0120   53.5050 C.ar      1 N24        -0.0656
      6 CAS        15.5330   19.8220   52.3770 C.ar      1 N24        -0.0540
      7 CAF        14.1540   19.5710   52.5160 C.ar      1 N24         0.0003
      8 CAB        13.2900   19.3800   51.2920 C.3       1 N24         0.1467
      9 SAD        12.2160   20.7540   50.8830 S.3       1 N24        -0.0916
     10 CAH        10.6910   19.8820   51.0300 C.3       1 N24         0.0936
     11 CAE        11.1030   18.4390   51.1700 C.2       1 N24         0.2163
     12 OAK        10.2540   17.5700   51.0640 O.2       1 N24        -0.3850
     13 NAA        12.4170   18.2290   51.4040 N.am      1 N24        -0.1977
     14 CAC        12.9380   16.9740   51.4790 C.ar      1 N24         0.1029
     15 CAG        12.4960   16.1430   52.5120 C.ar      1 N24        -0.0351
     16 CAM        12.9560   14.8410   52.6400 C.ar      1 N24         0.0150
     17 CAO        13.8830   14.3710   51.7250 C.ar      1 N24        -0.0722
     18 CAL        14.3400   15.1960   50.6890 C.ar      1 N24        -0.0455
     19 CAI        13.8720   16.4980   50.5550 C.ar      1 N24         0.1099
     20 OAQ        14.3560   17.2490   49.5250 O.3       1 N24        -0.3390
     21 CL         12.3860   13.7860   53.9760 Cl        1 N24        -0.0850
     22 H1         12.5499   19.3062   53.9287 H         1 N24         0.0584
     23 H2         16.4063   20.0922   55.6565 H         1 N24         0.0585
     24 H3         17.3886   20.2135   53.3871 H         1 N24         0.0606
     25 H4         15.9764   19.8676   51.3889 H         1 N24         0.0582
     26 H5         13.9742   19.2203   50.4457 H         1 N24         0.0903
     27 H6         10.0713   20.0255   50.1326 H         1 N24         0.0623
     28 H7         10.1341   20.2166   51.9176 H         1 N24         0.0623
     29 H8         11.7779   16.5245   53.2289 H         1 N24         0.0472
     30 H9         14.2578   13.3575   51.8109 H         1 N24         0.0467
     31 H10        15.0681   14.8140   49.9826 H         1 N24         0.0496
     32 H11        13.9574   18.1110   49.5485 H         1 N24         0.2436
@<TRIPOS>BOND
     1    1    2 ar 
     2    1    7 ar 
     3    2    3 1  
     4    2    4 ar 
     5    4    5 ar 
     6    5    6 ar 
     7    6    7 ar 
     8    7    8 1  
     9    8    9 1  
    10    8   13 1  
    11    9   10 1  
    12   10   11 1  
    13   11   12 2  
    14   11   13 am 
    15   13   14 1  
    16   14   15 ar 
    17   14   19 ar 
    18   15   16 ar 
    19   16   17 ar 
    20   16   21 1  
    21   17   18 ar 
    22   18   19 ar 
    23   19   20 1  
    24    1   22 1  
    25    4   23 1  
    26    5   24 1  
    27    6   25 1  
    28    8   26 1  
    29   10   27 1  
    30   10   28 1  
    31   15   29 1  
    32   17   30 1  
    33   18   31 1  
    34   20   32 1  
@<TRIPOS>SUBSTRUCTURE
     1 N24         1

