### 
### Created by X-TOOL on Mon Sep 10 21:12:58 2018
### 

@<TRIPOS>MOLECULE
3dya_ligand
   38    41     1     0     0
SMALL
GAST_HUCK


@<TRIPOS>ATOM
      1 N19        49.3940   66.2110   23.5460 N.1       1 PZL        -0.3283
      2 C16        49.1770   65.7480   22.5070 C.1       1 PZL         0.0979
      3 C13        48.9540   65.0650   21.4540 C.ar      1 PZL         0.0886
      4 C12        48.8890   63.6860   21.5910 C.ar      1 PZL        -0.0234
      5 C11        48.6160   62.9020   20.4850 C.ar      1 PZL         0.0438
      6 CL15       48.5710   61.1260   20.6250 Cl        1 PZL        -0.0711
      7 C10        48.4050   63.4700   19.2490 C.ar      1 PZL        -0.0059
      8 C14        48.7370   65.6520   20.2090 C.ar      1 PZL         0.0063
      9 C9         48.4650   64.8410   19.1070 C.ar      1 PZL         0.1270
     10 O8         48.2110   65.3760   17.8640 O.3       1 PZL        -0.2554
     11 C3         48.8460   64.9760   16.7290 C.ar      1 PZL         0.1534
     12 C4         48.0450   64.5980   15.7080 C.ar      1 PZL         0.0368
     13 BR17       46.2140   64.6820   16.0970 Br        1 PZL        -0.0638
     14 C2         50.2190   64.9580   16.5960 C.ar      1 PZL         0.1690
     15 F5         50.9460   65.3450   17.6410 F         1 PZL        -0.1941
     16 C6         50.7820   64.5170   15.3960 C.ar      1 PZL        -0.0023
     17 C7         49.9530   64.1460   14.3460 C.ar      1 PZL        -0.0674
     18 C1         48.5730   64.1710   14.4940 C.ar      1 PZL        -0.0702
     19 C18        52.2760   64.5170   15.1590 C.3       1 PZL         0.0282
     20 C26        52.4850   65.8990   14.5660 C.2       1 PZL         0.0753
     21 N27        52.3700   66.2410   13.2610 N.2       1 PZL        -0.1943
     22 N28        52.5870   67.6250   13.1120 N.pl3     1 PZL        -0.1955
     23 C24        52.7980   68.0940   14.3400 C.ar      1 PZL         0.1688
     24 N20        53.0480   69.3770   14.7070 N.ar      1 PZL        -0.2391
     25 C25        52.7360   67.0680   15.2530 C.ar      1 PZL         0.0773
     26 C23        52.9380   67.3310   16.5990 C.ar      1 PZL         0.0036
     27 C22        53.2020   68.6400   17.0060 C.ar      1 PZL         0.0387
     28 N21        53.2500   69.6300   16.0920 N.ar      1 PZL        -0.2500
     29 H1         49.0512   63.2259   22.5590 H         1 PZL         0.0636
     30 H2         48.1926   62.8427   18.3908 H         1 PZL         0.0629
     31 H3         48.7792   66.7295   20.0977 H         1 PZL         0.0652
     32 H4         50.3869   63.8342   13.4028 H         1 PZL         0.0472
     33 H5         47.9223   63.8650   13.6828 H         1 PZL         0.0568
     34 H6         52.5714   63.7272   14.4526 H         1 PZL         0.0583
     35 H7         52.8327   64.3945   16.0998 H         1 PZL         0.0583
     36 H8         52.5832   68.1632   12.2338 H         1 PZL         0.2410
     37 H9         52.8915   66.5294   17.3272 H         1 PZL         0.0902
     38 H10        53.3680   68.8600   18.0544 H         1 PZL         0.1026
@<TRIPOS>BOND
     1    1    2 3  
     2    2    3 1  
     3    3    4 ar 
     4    3    8 ar 
     5    4    5 ar 
     6    5    6 1  
     7    5    7 ar 
     8    7    9 ar 
     9    8    9 ar 
    10    9   10 1  
    11   10   11 1  
    12   11   12 ar 
    13   11   14 ar 
    14   12   13 1  
    15   12   18 ar 
    16   14   15 1  
    17   14   16 ar 
    18   16   17 ar 
    19   16   19 1  
    20   17   18 ar 
    21   19   20 1  
    22   20   21 2  
    23   20   25 1  
    24   21   22 1  
    25   22   23 1  
    26   23   24 ar 
    27   23   25 ar 
    28   24   28 ar 
    29   25   26 ar 
    30   26   27 ar 
    31   27   28 ar 
    32    4   29 1  
    33    7   30 1  
    34    8   31 1  
    35   17   32 1  
    36   18   33 1  
    37   19   34 1  
    38   19   35 1  
    39   22   36 1  
    40   26   37 1  
    41   27   38 1  
@<TRIPOS>SUBSTRUCTURE
     1 PZL         1

