### 
### Created by X-TOOL on Mon Sep 10 21:12:57 2018
### 

@<TRIPOS>MOLECULE
3dyo_ligand
   33    33     1     0     0
SMALL
GAST_HUCK


@<TRIPOS>ATOM
      1 C1        -14.8210  -27.7140  -26.1910 C.3       1 IPT         0.1332
      2 C2        -13.5350  -27.6170  -25.3470 C.3       1 IPT         0.1189
      3 O2        -13.6890  -26.5310  -24.4510 O.3       1 IPT        -0.3857
      4 C3        -12.3510  -27.3010  -26.2590 C.3       1 IPT         0.1126
      5 O3        -11.1170  -27.2710  -25.4980 O.3       1 IPT        -0.3865
      6 C4        -12.2400  -28.3790  -27.3770 C.3       1 IPT         0.1118
      7 O4        -11.8970  -29.6950  -26.8530 O.3       1 IPT        -0.3865
      8 C5        -13.5720  -28.4290  -28.1200 C.3       1 IPT         0.1115
      9 O5        -14.6340  -28.6850  -27.1940 O.3       1 IPT        -0.3553
     10 C6        -13.7230  -29.5560  -29.1410 C.3       1 IPT         0.0730
     11 O6        -12.6630  -29.4020  -30.0910 O.3       1 IPT        -0.3924
     12 S1        -16.2210  -28.4060  -25.2540 S.3       1 IPT        -0.1243
     13 C1'       -17.7130  -27.9100  -26.2430 C.3       1 IPT         0.0021
     14 C2'       -18.9700  -28.1900  -25.4700 C.3       1 IPT        -0.0535
     15 C3'       -17.7440  -28.4970  -27.6630 C.3       1 IPT        -0.0535
     16 H1        -15.0697  -26.7282  -26.6109 H         1 IPT         0.0740
     17 H2        -13.3609  -28.5553  -24.7999 H         1 IPT         0.0655
     18 H3        -12.9074  -26.4491  -23.9172 H         1 IPT         0.2100
     19 H4        -12.5108  -26.3161  -26.7221 H         1 IPT         0.0647
     20 H5        -10.3924  -27.0735  -26.0796 H         1 IPT         0.2100
     21 H6        -11.4500  -28.0749  -28.0794 H         1 IPT         0.0647
     22 H7        -11.8412  -30.3155  -27.5703 H         1 IPT         0.2100
     23 H8        -13.7199  -27.4610  -28.6211 H         1 IPT         0.0646
     24 H9        -14.6973  -29.4807  -29.6460 H         1 IPT         0.0584
     25 H10       -13.6437  -30.5325  -28.6409 H         1 IPT         0.0584
     26 H11       -12.7374  -28.5537  -30.5121 H         1 IPT         0.2095
     27 H12       -17.6554  -26.8186  -26.3676 H         1 IPT         0.0407
     28 H13       -19.8429  -27.8910  -26.0688 H         1 IPT         0.0240
     29 H14       -18.9573  -27.6189  -24.5300 H         1 IPT         0.0240
     30 H15       -19.0304  -29.2651  -25.2452 H         1 IPT         0.0240
     31 H16       -18.6537  -28.1579  -28.1801 H         1 IPT         0.0240
     32 H17       -17.7427  -29.5955  -27.6058 H         1 IPT         0.0240
     33 H18       -16.8579  -28.1577  -28.2195 H         1 IPT         0.0240
@<TRIPOS>BOND
     1    1    2 1  
     2    1    9 1  
     3    1   12 1  
     4    2    3 1  
     5    2    4 1  
     6    4    5 1  
     7    4    6 1  
     8    6    7 1  
     9    6    8 1  
    10    8    9 1  
    11    8   10 1  
    12   10   11 1  
    13   12   13 1  
    14   13   14 1  
    15   13   15 1  
    16    1   16 1  
    17    2   17 1  
    18    3   18 1  
    19    4   19 1  
    20    5   20 1  
    21    6   21 1  
    22    7   22 1  
    23    8   23 1  
    24   10   24 1  
    25   10   25 1  
    26   11   26 1  
    27   13   27 1  
    28   14   28 1  
    29   14   29 1  
    30   14   30 1  
    31   15   31 1  
    32   15   32 1  
    33   15   33 1  
@<TRIPOS>SUBSTRUCTURE
     1 IPT         1

