### 
### Created by X-TOOL on Mon Sep 10 21:12:59 2018
### 

@<TRIPOS>MOLECULE
3dzt_ligand
   58    57     1     0     0
SMALL
GAST_HUCK


@<TRIPOS>ATOM
      1 O1        -13.0790   -6.9900    7.9600 O.co2     1 EAH        -0.5690
      2 C1        -14.0190   -6.4500    7.4600 C.2       1 EAH         0.0348
      3 O2        -15.0830   -6.4600    8.0280 O.co2     1 EAH        -0.5690
      4 C2        -13.9440   -5.8000    6.1130 C.3       1 EAH         0.0003
      5 C3        -15.1170   -4.8730    6.0520 C.3       1 EAH        -0.0391
      6 C4        -14.7270   -3.4100    5.9870 C.3       1 EAH        -0.0254
      7 C5        -15.7920   -2.6210    5.2360 C.3       1 EAH         0.0554
      8 O3        -15.8080   -2.8660    3.9390 O.3       1 EAH        -0.3918
      9 C6        -15.7480   -1.1500    5.6010 C.3       1 EAH        -0.0268
     10 C7        -16.6260   -0.2690    4.7520 C.3       1 EAH        -0.0506
     11 C8        -15.8880    0.8510    4.1260 C.3       1 EAH        -0.0514
     12 C9        -16.6250    1.4750    3.0650 C.3       1 EAH        -0.0463
     13 C10       -15.8940    2.2060    2.2510 C.3       1 EAH        -0.0360
     14 C11       -16.7830    2.7270    1.2520 C.2       1 EAH        -0.0967
     15 C12       -16.3950    3.3460    0.1750 C.2       1 EAH        -0.0910
     16 C13       -14.9660    3.6510   -0.0440 C.3       1 EAH        -0.0204
     17 C14       -14.7720    5.1300   -0.1320 C.2       1 EAH        -0.0910
     18 C15       -14.2290    5.8410   -1.0840 C.2       1 EAH        -0.0967
     19 C16       -13.6560    5.3030   -2.3450 C.3       1 EAH        -0.0360
     20 C17       -12.2150    4.9220   -2.1890 C.3       1 EAH        -0.0463
     21 C18       -12.2130    3.4540   -1.9330 C.3       1 EAH        -0.0517
     22 C19       -11.0200    2.6650   -2.3850 C.3       1 EAH        -0.0558
     23 C20        -9.8160    2.8450   -1.5390 C.3       1 EAH        -0.0653
     24 H1        -14.0095   -6.5561    5.3168 H         1 EAH         0.0430
     25 H2        -13.0040   -5.2383    6.0087 H         1 EAH         0.0430
     26 H3        -15.7322   -5.0299    6.9503 H         1 EAH         0.0284
     27 H4        -15.7072   -5.1163    5.1562 H         1 EAH         0.0284
     28 H5        -13.7644   -3.3123    5.4638 H         1 EAH         0.0291
     29 H6        -14.6314   -3.0125    7.0082 H         1 EAH         0.0291
     30 H7        -16.7584   -2.9895    5.6107 H         1 EAH         0.0593
     31 H8        -15.9805   -3.7890    3.7943 H         1 EAH         0.2098
     32 H9        -14.7098   -0.8015    5.4982 H         1 EAH         0.0290
     33 H10       -16.0676   -1.0462    6.6484 H         1 EAH         0.0290
     34 H11       -17.4229    0.1471    5.3859 H         1 EAH         0.0266
     35 H12       -17.0733   -0.8825    3.9560 H         1 EAH         0.0266
     36 H13       -14.9423    0.4649    3.7179 H         1 EAH         0.0267
     37 H14       -15.6737    1.6058    4.8969 H         1 EAH         0.0267
     38 H15       -17.3920    2.1232    3.5140 H         1 EAH         0.0285
     39 H16       -17.1122    0.6854    2.4741 H         1 EAH         0.0285
     40 H17       -15.1166    1.5864    1.7802 H         1 EAH         0.0390
     41 H18       -15.4207    3.0306    2.8041 H         1 EAH         0.0390
     42 H19       -17.8531    2.5957    1.4054 H         1 EAH         0.0458
     43 H20       -17.1304    3.6419   -0.5717 H         1 EAH         0.0463
     44 H21       -14.6321    3.1825   -0.9815 H         1 EAH         0.0511
     45 H22       -14.3752    3.2545    0.7949 H         1 EAH         0.0511
     46 H23       -15.1366    5.6983    0.7224 H         1 EAH         0.0463
     47 H24       -14.1933    6.9200   -0.9412 H         1 EAH         0.0458
     48 H25       -13.7375    6.0710   -3.1282 H         1 EAH         0.0390
     49 H26       -14.2284    4.4125   -2.6437 H         1 EAH         0.0390
     50 H27       -11.7654    5.4599   -1.3414 H         1 EAH         0.0285
     51 H28       -11.6555    5.1521   -3.1077 H         1 EAH         0.0285
     52 H29       -13.0950    3.0322   -2.4372 H         1 EAH         0.0267
     53 H30       -12.3082    3.3107   -0.8466 H         1 EAH         0.0267
     54 H31       -10.7702    2.9744   -3.4106 H         1 EAH         0.0263
     55 H32       -11.2894    1.5985   -2.3790 H         1 EAH         0.0263
     56 H33        -8.9926    2.2348   -1.9385 H         1 EAH         0.0230
     57 H34       -10.0405    2.5289   -0.5096 H         1 EAH         0.0230
     58 H35        -9.5214    3.9048   -1.5412 H         1 EAH         0.0230
@<TRIPOS>BOND
     1    1    2 ar 
     2    2    3 ar 
     3    2    4 1  
     4    4    5 1  
     5    5    6 1  
     6    6    7 1  
     7    7    8 1  
     8    7    9 1  
     9    9   10 1  
    10   10   11 1  
    11   11   12 1  
    12   12   13 1  
    13   13   14 1  
    14   14   15 2  
    15   15   16 1  
    16   16   17 1  
    17   17   18 2  
    18   18   19 1  
    19   19   20 1  
    20   20   21 1  
    21   21   22 1  
    22   22   23 1  
    23    4   24 1  
    24    4   25 1  
    25    5   26 1  
    26    5   27 1  
    27    6   28 1  
    28    6   29 1  
    29    7   30 1  
    30    8   31 1  
    31    9   32 1  
    32    9   33 1  
    33   10   34 1  
    34   10   35 1  
    35   11   36 1  
    36   11   37 1  
    37   12   38 1  
    38   12   39 1  
    39   13   40 1  
    40   13   41 1  
    41   14   42 1  
    42   15   43 1  
    43   16   44 1  
    44   16   45 1  
    45   17   46 1  
    46   18   47 1  
    47   19   48 1  
    48   19   49 1  
    49   20   50 1  
    50   20   51 1  
    51   21   52 1  
    52   21   53 1  
    53   22   54 1  
    54   22   55 1  
    55   23   56 1  
    56   23   57 1  
    57   23   58 1  
@<TRIPOS>SUBSTRUCTURE
     1 EAH         1

