### 
### Created by X-TOOL on Mon Sep 10 21:12:59 2018
### 

@<TRIPOS>MOLECULE
3e01_ligand
   41    44     1     0     0
SMALL
GAST_HUCK


@<TRIPOS>ATOM
      1 C1         52.7790   66.7770   14.3550 C.ar      1 PZ2         0.0771
      2 C2         52.9540   67.0380   15.7280 C.ar      1 PZ2         0.0036
      3 C3         53.1050   68.3380   16.1360 C.ar      1 PZ2         0.0387
      4 N4         53.0880   69.2980   15.2220 N.ar      1 PZ2        -0.2500
      5 N5         52.9410   69.0820   13.9500 N.ar      1 PZ2        -0.2391
      6 C6         52.7770   67.8630   13.4580 C.ar      1 PZ2         0.1687
      7 C7         52.5870   65.5820   13.5440 C.2       1 PZ2         0.0740
      8 N8         52.5940   67.3460   12.2130 N.pl3     1 PZ2        -0.1957
      9 N9         52.4760   65.9580   12.3000 N.2       1 PZ2        -0.1947
     10 C10        49.3170   64.2450   16.9500 C.ar      1 PZ2         0.1195
     11 C11        49.0380   64.2510   15.5880 C.ar      1 PZ2         0.0392
     12 C12        50.0640   64.2250   14.6580 C.ar      1 PZ2        -0.0562
     13 C13        51.3790   64.1870   15.0880 C.ar      1 PZ2        -0.0384
     14 C14        51.6630   64.1880   16.4460 C.ar      1 PZ2        -0.0628
     15 C15        50.6410   64.2180   17.3780 C.ar      1 PZ2        -0.0315
     16 C16        48.4550   62.0540   20.6890 C.ar      1 PZ2        -0.0430
     17 C17        48.6940   62.9490   21.7140 C.ar      1 PZ2        -0.0364
     18 C18        48.7900   64.3100   21.4160 C.ar      1 PZ2         0.0815
     19 C19        48.6490   64.7510   20.1040 C.ar      1 PZ2        -0.0008
     20 C20        48.4160   63.8390   19.0950 C.ar      1 PZ2         0.1196
     21 C21        48.3140   62.4910   19.3850 C.ar      1 PZ2        -0.0191
     22 C22        48.3480   60.5830   20.9720 C.3       1 PZ2        -0.0315
     23 C23        49.0300   65.2700   22.4430 C.1       1 PZ2         0.0962
     24 N24        49.2200   66.0390   23.2530 N.1       1 PZ2        -0.3282
     25 O25        48.2720   64.2730   17.8220 O.3       1 PZ2        -0.2597
     26 BR26       47.2370   64.2870   15.0060 Br        1 PZ2        -0.0585
     27 C27        52.4970   64.1730   14.0750 C.3       1 PZ2         0.0244
     28 H1         52.9690   66.2273   16.4475 H         1 PZ2         0.0902
     29 H2         53.2357   68.5763   17.1854 H         1 PZ2         0.1026
     30 H3         52.5495   67.8936   11.3418 H         1 PZ2         0.2409
     31 H4         49.8380   64.2344   13.5978 H         1 PZ2         0.0562
     32 H5         52.6942   64.1651   16.7795 H         1 PZ2         0.0560
     33 H6         50.8706   64.2205   18.4374 H         1 PZ2         0.0544
     34 H7         48.8053   62.6000   22.7342 H         1 PZ2         0.0568
     35 H8         48.7220   65.8080   19.8751 H         1 PZ2         0.0595
     36 H9         48.1238   61.7778   18.5911 H         1 PZ2         0.0561
     37 H10        48.4829   60.4061   22.0493 H         1 PZ2         0.0390
     38 H11        49.1263   60.0442   20.4117 H         1 PZ2         0.0390
     39 H12        47.3564   60.2212   20.6624 H         1 PZ2         0.0390
     40 H13        53.4439   63.8826   14.5535 H         1 PZ2         0.0569
     41 H14        52.2672   63.4704   13.2604 H         1 PZ2         0.0569
@<TRIPOS>BOND
     1    1    2 ar 
     2    1    6 ar 
     3    7    1 1  
     4    2    3 ar 
     5    3    4 ar 
     6    5    4 ar 
     7    6    5 ar 
     8    8    6 1  
     9    7    9 2  
    10   27    7 1  
    11    9    8 1  
    12   10   11 ar 
    13   10   15 ar 
    14   25   10 1  
    15   11   12 ar 
    16   11   26 1  
    17   12   13 ar 
    18   14   13 ar 
    19   13   27 1  
    20   15   14 ar 
    21   16   17 ar 
    22   21   16 ar 
    23   16   22 1  
    24   18   17 ar 
    25   19   18 ar 
    26   18   23 1  
    27   20   19 ar 
    28   20   21 ar 
    29   20   25 1  
    30   23   24 3  
    31    2   28 1  
    32    3   29 1  
    33    8   30 1  
    34   12   31 1  
    35   14   32 1  
    36   15   33 1  
    37   17   34 1  
    38   19   35 1  
    39   21   36 1  
    40   22   37 1  
    41   22   38 1  
    42   22   39 1  
    43   27   40 1  
    44   27   41 1  
@<TRIPOS>SUBSTRUCTURE
     1 PZ2         1

