### 
### Created by X-TOOL on Mon Sep 10 21:13:00 2018
### 

@<TRIPOS>MOLECULE
3e0q_ligand
   20    20     1     0     0
SMALL
GAST_HUCK


@<TRIPOS>ATOM
      1 BR         18.7720    2.4490   28.8170 Br        1 JFD        -0.0512
      2 C5         17.0920    2.4990   29.7970 C.3       1 JFD         0.1898
      3 C4         16.4420    3.8340   30.0990 C.2       1 JFD         0.2073
      4 O8         16.9690    4.9840   29.7310 O.2       1 JFD        -0.3952
      5 N3         15.2500    3.9180   30.8390 N.am      1 JFD        -0.2191
      6 C2         14.5520    2.6820   31.2870 C.3       1 JFD         0.1798
      7 O9         13.3930    2.8480   31.9670 O.3       1 JFD        -0.3316
      8 N1         15.1170    1.3350   31.0160 N.4       1 JFD         0.3042
      9 C6         16.3780    1.2450   30.2750 C.3       1 JFD         0.0269
     10 N7         16.8960   -0.0540   30.0690 N.4       1 JFD         0.2575
     11 H1         17.6524    2.5417   30.7426 H         1 JFD         0.0779
     12 H2         14.8684    4.8140   31.0660 H         1 JFD         0.1931
     13 H3         13.9999    2.6339   30.3368 H         1 JFD         0.1500
     14 H4         12.7700    3.3120   31.4202 H         1 JFD         0.2177
     15 H5         14.4259    0.8218   30.4916 H         1 JFD         0.2129
     16 H6         15.2626    0.8879   31.9076 H         1 JFD         0.2129
     17 H7         15.8360    1.1942   29.3191 H         1 JFD         0.1511
     18 H8         17.7593    0.0066   29.5522 H         1 JFD         0.2054
     19 H9         16.2301   -0.6025   29.5477 H         1 JFD         0.2054
     20 H10        17.0680   -0.4924   30.9602 H         1 JFD         0.2054
@<TRIPOS>BOND
     1    1    2 1  
     2    2    3 1  
     3    2    9 1  
     4    3    4 2  
     5    3    5 am 
     6    5    6 1  
     7    6    7 1  
     8    6    8 1  
     9    8    9 1  
    10    9   10 1  
    11    2   11 1  
    12    5   12 1  
    13    6   13 1  
    14    7   14 1  
    15    8   15 1  
    16    8   16 1  
    17    9   17 1  
    18   10   18 1  
    19   10   19 1  
    20   10   20 1  
@<TRIPOS>SUBSTRUCTURE
     1 JFD         1

