### 
### Created by X-TOOL on Mon Sep 10 21:12:58 2018
### 

@<TRIPOS>MOLECULE
3e2m_ligand
   70    73     1     0     0
SMALL
GAST_HUCK


@<TRIPOS>ATOM
      1 O1        -15.2150   18.5650  -30.7360 O.3       1 E2M        -0.3192
      2 C1        -18.5060   14.7740  -30.1670 C.3       1 E2M         0.3717
      3 C2        -18.7300   16.2140  -29.8090 C.ar      1 E2M         0.0760
      4 C3        -18.1690   17.2140  -30.5850 C.ar      1 E2M         0.0946
      5 C4        -16.6120   18.2240  -32.6390 C.ar      1 E2M         0.0719
      6 C5        -15.6590   18.9700  -31.9680 C.ar      1 E2M         0.1085
      7 C6        -13.9570   19.0240  -30.2450 C.3       1 E2M         0.0721
      8 F6        -19.6210   14.0950  -29.9750 F         1 E2M        -0.2309
      9 F1        -18.1500   14.6860  -31.4340 F         1 E2M        -0.2309
     10 F2        -17.5500   14.2760  -29.4050 F         1 E2M        -0.2309
     11 S         -17.2300   16.8100  -31.9370 S.3       1 E2M        -0.0021
     12 C17       -17.0640   18.6330  -33.8880 C.ar      1 E2M        -0.0532
     13 C16       -16.5580   19.7920  -34.4650 C.ar      1 E2M        -0.0773
     14 C15       -15.6010   20.5410  -33.7910 C.ar      1 E2M        -0.0762
     15 C14       -15.1510   20.1300  -32.5420 C.ar      1 E2M        -0.0370
     16 C7        -13.8510   18.7180  -28.7560 C.3       1 E2M        -0.0131
     17 C12       -12.9120   19.7210  -28.0970 C.3       1 E2M        -0.0460
     18 C11       -13.4620   21.1380  -28.2060 C.3       1 E2M        -0.0383
     19 C10       -14.8420   21.2380  -27.5670 C.3       1 E2M         0.0118
     20 C13       -15.3920   22.6550  -27.6760 C.2       1 E2M         0.0379
     21 O3        -15.3720   23.3360  -28.9350 O.co2     1 E2M        -0.5687
     22 O2        -15.9880   23.2810  -26.5340 O.co2     1 E2M        -0.5687
     23 C9        -15.7810   20.2350  -28.2260 C.3       1 E2M        -0.0383
     24 C8        -15.2310   18.8180  -28.1170 C.3       1 E2M        -0.0460
     25 C18       -18.3760   18.5480  -30.2550 C.ar      1 E2M         0.0210
     26 C19       -19.1470   18.8750  -29.1460 C.ar      1 E2M         0.0069
     27 C20       -19.7080   17.8670  -28.3710 C.ar      1 E2M         0.0368
     28 C28       -19.4980   16.5400  -28.7040 C.ar      1 E2M         0.0588
     29 C29       -20.1040   15.4530  -27.8670 C.3       1 E2M         0.3667
     30 F5        -20.4280   15.9390  -26.6830 F         1 E2M        -0.2350
     31 F4        -21.1860   14.9900  -28.4640 F         1 E2M        -0.2350
     32 F3        -19.2310   14.4750  -27.7170 F         1 E2M        -0.2350
     33 C21       -20.5290   18.2120  -27.1890 C.2       1 E2M         0.0002
     34 C22       -21.0140   19.4420  -27.0520 C.2       1 E2M         0.0416
     35 C23       -21.8320   19.7840  -25.8730 C.2       1 E2M         0.2189
     36 O5        -22.4280   18.9140  -25.2600 O.2       1 E2M        -0.3747
     37 N         -21.8760   21.0700  -25.5330 N.am      1 E2M        -0.2658
     38 C27       -22.7660   21.5710  -24.4970 C.3       1 E2M         0.0569
     39 C26       -23.6730   22.5700  -25.2060 C.3       1 E2M         0.0680
     40 O4        -22.8780   23.5850  -25.8140 O.3       1 E2M        -0.3758
     41 C25       -22.0120   23.0520  -26.8140 C.3       1 E2M         0.0680
     42 C24       -21.0370   22.0720  -26.1720 C.3       1 E2M         0.0569
     43 H1        -13.8756   20.1095  -30.4030 H         1 E2M         0.0614
     44 H2        -13.1448   18.5132  -30.7830 H         1 E2M         0.0614
     45 H3        -17.8112   18.0482  -34.4122 H         1 E2M         0.0548
     46 H4        -16.9095   20.1112  -35.4395 H         1 E2M         0.0510
     47 H5        -15.2057   21.4454  -34.2392 H         1 E2M         0.0542
     48 H6        -14.4043   20.7135  -32.0156 H         1 E2M         0.0525
     49 H7        -13.4561   17.7007  -28.6180 H         1 E2M         0.0327
     50 H8        -11.9318   19.6765  -28.5943 H         1 E2M         0.0270
     51 H9        -12.7963   19.4610  -27.0345 H         1 E2M         0.0270
     52 H10       -13.5364   21.4145  -29.2681 H         1 E2M         0.0286
     53 H11       -12.7774   21.8302  -27.6940 H         1 E2M         0.0286
     54 H12       -14.7527   20.9845  -26.5003 H         1 E2M         0.0466
     55 H13       -15.8967   20.4950  -29.2885 H         1 E2M         0.0286
     56 H14       -16.7612   20.2795  -27.7287 H         1 E2M         0.0286
     57 H15       -15.1567   18.5416  -27.0549 H         1 E2M         0.0270
     58 H16       -15.9157   18.1259  -28.6290 H         1 E2M         0.0270
     59 H17       -17.9369   19.3319  -30.8614 H         1 E2M         0.0914
     60 H18       -19.3105   19.9145  -28.8859 H         1 E2M         0.0974
     61 H19       -20.7359   17.4578  -26.4311 H         1 E2M         0.0838
     62 H20       -20.8076   20.1966  -27.8095 H         1 E2M         0.0945
     63 H21       -22.1919   22.0674  -23.7008 H         1 E2M         0.0544
     64 H22       -23.3576   20.7503  -24.0653 H         1 E2M         0.0544
     65 H23       -24.3562   23.0278  -24.4754 H         1 E2M         0.0580
     66 H24       -24.2577   22.0500  -25.9791 H         1 E2M         0.0580
     67 H25       -21.4504   23.8710  -27.2871 H         1 E2M         0.0580
     68 H26       -22.6093   22.5291  -27.5755 H         1 E2M         0.0580
     69 H27       -20.3953   21.6088  -26.9360 H         1 E2M         0.0544
     70 H28       -20.4096   22.5831  -25.4269 H         1 E2M         0.0544
@<TRIPOS>BOND
     1    6    1 1  
     2    1    7 1  
     3    3    2 1  
     4    2    8 1  
     5    2    9 1  
     6    2   10 1  
     7    4    3 ar 
     8    3   28 ar 
     9   11    4 1  
    10    4   25 ar 
    11    5    6 ar 
    12    5   11 1  
    13    5   12 ar 
    14    6   15 ar 
    15    7   16 1  
    16   12   13 ar 
    17   13   14 ar 
    18   14   15 ar 
    19   16   17 1  
    20   16   24 1  
    21   17   18 1  
    22   18   19 1  
    23   19   20 1  
    24   19   23 1  
    25   20   21 ar 
    26   20   22 ar 
    27   23   24 1  
    28   25   26 ar 
    29   26   27 ar 
    30   27   28 ar 
    31   27   33 1  
    32   28   29 1  
    33   29   30 1  
    34   29   31 1  
    35   29   32 1  
    36   33   34 2  
    37   34   35 1  
    38   35   36 2  
    39   35   37 am 
    40   37   38 1  
    41   37   42 1  
    42   38   39 1  
    43   39   40 1  
    44   40   41 1  
    45   41   42 1  
    46    7   43 1  
    47    7   44 1  
    48   12   45 1  
    49   13   46 1  
    50   14   47 1  
    51   15   48 1  
    52   16   49 1  
    53   17   50 1  
    54   17   51 1  
    55   18   52 1  
    56   18   53 1  
    57   19   54 1  
    58   23   55 1  
    59   23   56 1  
    60   24   57 1  
    61   24   58 1  
    62   25   59 1  
    63   26   60 1  
    64   33   61 1  
    65   34   62 1  
    66   38   63 1  
    67   38   64 1  
    68   39   65 1  
    69   39   66 1  
    70   41   67 1  
    71   41   68 1  
    72   42   69 1  
    73   42   70 1  
@<TRIPOS>SUBSTRUCTURE
     1 E2M         1

