### 
### Created by X-TOOL on Mon Sep 10 21:12:59 2018
### 

@<TRIPOS>MOLECULE
3e37_ligand
   85    88     1     0     0
SMALL
GAST_HUCK


@<TRIPOS>ATOM
      1 OAG        17.0440  -77.3730    8.6050 O.2       1 ED5        -0.3774
      2 CBE        16.7930  -77.3680    7.4020 C.2       1 ED5         0.3226
      3 OBD        15.7560  -78.2360    6.9230 O.3       1 ED5        -0.2580
      4 CBP        14.8910  -78.9940    7.7630 C.3       1 ED5         0.0905
      5 CAC        15.6230  -80.0750    8.5430 C.3       1 ED5        -0.0320
      6 CAD        14.2790  -78.0370    8.7600 C.3       1 ED5        -0.0320
      7 CAE        13.8700  -79.6580    6.8510 C.3       1 ED5        -0.0320
      8 NBL        17.4020  -76.6650    6.5400 N.am      1 ED5        -0.2489
      9 CAX        18.4950  -75.7700    6.8760 C.3       1 ED5         0.0361
     10 CAV        17.9820  -74.3610    6.6500 C.3       1 ED5        -0.0282
     11 CAW        17.0520  -76.6730    5.1200 C.3       1 ED5         0.0361
     12 CAU        16.4070  -75.2970    4.9070 C.3       1 ED5        -0.0282
     13 CBK        17.3590  -74.1500    5.2770 C.3       1 ED5        -0.0203
     14 CBB        16.6010  -72.8410    5.4660 C.3       1 ED5         0.0325
     15 NBN        16.3410  -72.0010    4.2810 N.am      1 ED5        -0.2328
     16 SBQ        14.7260  -71.7450    4.0960 S.o2      1 ED5         0.0681
     17 OAI        14.3880  -71.4650    2.6720 O.2       1 ED5        -0.1512
     18 OAH        14.4850  -70.5320    4.9220 O.2       1 ED5        -0.1512
     19 CBJ        13.7710  -72.9140    4.6940 C.ar      1 ED5         0.1093
     20 CAN        13.3070  -72.7860    6.0050 C.ar      1 ED5        -0.0419
     21 CAL        12.4980  -73.7600    6.5800 C.ar      1 ED5        -0.0669
     22 CAK        12.1330  -74.8800    5.8470 C.ar      1 ED5        -0.0685
     23 CAM        12.5820  -75.0100    4.5390 C.ar      1 ED5        -0.0587
     24 CBF        13.3790  -74.0300    3.9620 C.ar      1 ED5        -0.0195
     25 CAA        13.8310  -74.2130    2.5450 C.3       1 ED5        -0.0293
     26 CAZ        17.1660  -72.2250    3.0520 C.3       1 ED5         0.0497
     27 CAY        18.2370  -71.1160    2.9750 C.3       1 ED5         0.0483
     28 NBM        18.7890  -71.0490    1.6040 N.pl3     1 ED5        -0.2885
     29 CBH        20.0570  -71.6280    1.3800 C.ar      1 ED5         0.0531
     30 CAQ        20.7670  -71.3190    0.2180 C.ar      1 ED5        -0.0318
     31 CAO        21.9950  -71.9240   -0.0390 C.ar      1 ED5        -0.0383
     32 CAR        20.5650  -72.5820    2.2640 C.ar      1 ED5        -0.0318
     33 CAP        21.7930  -73.1800    2.0090 C.ar      1 ED5        -0.0383
     34 CBG        22.5110  -72.8530    0.8660 C.ar      1 ED5         0.0814
     35 CAJ        23.6390  -73.4400    0.6460 C.1       1 ED5         0.0864
     36 NAF        24.6380  -74.0110    0.4590 N.1       1 ED5        -0.3392
     37 CBA        18.5240  -69.8630    0.8450 C.3       1 ED5         0.0839
     38 CBI        17.7780  -70.1310   -0.4260 C.2       1 ED5         0.0761
     39 CAS        17.4070  -71.4150   -0.7860 C.2       1 ED5        -0.0256
     40 NBC        16.7770  -71.2240   -1.9710 N.2       1 ED5        -0.3435
     41 CAT        16.7670  -69.8960   -2.2880 C.2       1 ED5         0.0898
     42 NBO        17.3980  -69.2110   -1.3190 N.pl3     1 ED5        -0.2493
     43 CAB        17.6120  -67.7410   -1.2710 C.3       1 ED5         0.0471
     44 H1         14.9054  -80.6238    9.1706 H         1 ED5         0.0260
     45 H2         16.3890  -79.6112    9.1818 H         1 ED5         0.0260
     46 H3         16.1039  -80.7719    7.8408 H         1 ED5         0.0260
     47 H4         13.6018  -78.5881    9.4291 H         1 ED5         0.0260
     48 H5         13.7132  -77.2610    8.2237 H         1 ED5         0.0260
     49 H6         15.0766  -77.5655    9.3529 H         1 ED5         0.0260
     50 H7         13.1745  -80.2588    7.4554 H         1 ED5         0.0260
     51 H8         14.3889  -80.3099    6.1329 H         1 ED5         0.0260
     52 H9         13.3083  -78.8854    6.3055 H         1 ED5         0.0260
     53 H10        19.3612  -75.9677    6.2275 H         1 ED5         0.0522
     54 H11        18.7864  -75.9042    7.9282 H         1 ED5         0.0522
     55 H12        18.8247  -73.6626    6.7601 H         1 ED5         0.0288
     56 H13        17.2216  -74.1414    7.4139 H         1 ED5         0.0288
     57 H14        16.3404  -77.4808    4.8942 H         1 ED5         0.0522
     58 H15        17.9489  -76.7888    4.4938 H         1 ED5         0.0522
     59 H16        15.5060  -75.2265    5.5341 H         1 ED5         0.0288
     60 H17        16.1257  -75.1970    3.8483 H         1 ED5         0.0288
     61 H18        18.1324  -74.0534    4.5008 H         1 ED5         0.0318
     62 H19        17.1784  -72.2309    6.1762 H         1 ED5         0.0481
     63 H20        15.6249  -73.0916    5.9069 H         1 ED5         0.0481
     64 H21        13.5823  -71.9122    6.5844 H         1 ED5         0.0619
     65 H22        12.1525  -73.6442    7.6009 H         1 ED5         0.0560
     66 H23        11.5049  -75.6445    6.2898 H         1 ED5         0.0599
     67 H24        12.3073  -75.8859    3.9624 H         1 ED5         0.0557
     68 H25        14.4489  -73.3544    2.2435 H         1 ED5         0.0391
     69 H26        12.9530  -74.2822    1.8861 H         1 ED5         0.0391
     70 H27        14.4230  -75.1367    2.4653 H         1 ED5         0.0391
     71 H28        16.5232  -72.1831    2.1604 H         1 ED5         0.0498
     72 H29        17.6539  -73.2094    3.1064 H         1 ED5         0.0498
     73 H30        19.0471  -71.3403    3.6845 H         1 ED5         0.0537
     74 H31        17.7809  -70.1488    3.2330 H         1 ED5         0.0537
     75 H32        20.3601  -70.6042   -0.4881 H         1 ED5         0.0545
     76 H33        22.5474  -71.6745   -0.9377 H         1 ED5         0.0685
     77 H34        20.0017  -72.8559    3.1487 H         1 ED5         0.0545
     78 H35        22.1933  -73.9066    2.7068 H         1 ED5         0.0685
     79 H36        19.4833  -69.3870    0.5937 H         1 ED5         0.0700
     80 H37        17.9257  -69.1781    1.4638 H         1 ED5         0.0700
     81 H38        17.5786  -72.3474   -0.2502 H         1 ED5         0.0325
     82 H39        16.3201  -69.4621   -3.1813 H         1 ED5         0.1150
     83 H40        18.1601  -67.4800   -0.3536 H         1 ED5         0.0583
     84 H41        16.6387  -67.2284   -1.2750 H         1 ED5         0.0583
     85 H42        18.1956  -67.4265   -2.1488 H         1 ED5         0.0583
@<TRIPOS>BOND
     1    1    2 2  
     2    2    3 1  
     3    2    8 am 
     4    3    4 1  
     5    4    5 1  
     6    4    6 1  
     7    4    7 1  
     8    8    9 1  
     9    8   11 1  
    10    9   10 1  
    11   10   13 1  
    12   11   12 1  
    13   12   13 1  
    14   13   14 1  
    15   14   15 1  
    16   15   16 am 
    17   15   26 1  
    18   16   17 2  
    19   16   18 2  
    20   16   19 1  
    21   19   20 ar 
    22   19   24 ar 
    23   20   21 ar 
    24   21   22 ar 
    25   22   23 ar 
    26   23   24 ar 
    27   24   25 1  
    28   26   27 1  
    29   27   28 1  
    30   28   29 1  
    31   28   37 1  
    32   29   30 ar 
    33   29   32 ar 
    34   30   31 ar 
    35   31   34 ar 
    36   32   33 ar 
    37   33   34 ar 
    38   34   35 1  
    39   35   36 3  
    40   37   38 1  
    41   38   39 2  
    42   38   42 1  
    43   39   40 1  
    44   40   41 2  
    45   41   42 1  
    46   42   43 1  
    47    5   44 1  
    48    5   45 1  
    49    5   46 1  
    50    6   47 1  
    51    6   48 1  
    52    6   49 1  
    53    7   50 1  
    54    7   51 1  
    55    7   52 1  
    56    9   53 1  
    57    9   54 1  
    58   10   55 1  
    59   10   56 1  
    60   11   57 1  
    61   11   58 1  
    62   12   59 1  
    63   12   60 1  
    64   13   61 1  
    65   14   62 1  
    66   14   63 1  
    67   20   64 1  
    68   21   65 1  
    69   22   66 1  
    70   23   67 1  
    71   25   68 1  
    72   25   69 1  
    73   25   70 1  
    74   26   71 1  
    75   26   72 1  
    76   27   73 1  
    77   27   74 1  
    78   30   75 1  
    79   31   76 1  
    80   32   77 1  
    81   33   78 1  
    82   37   79 1  
    83   37   80 1  
    84   39   81 1  
    85   41   82 1  
    86   43   83 1  
    87   43   84 1  
    88   43   85 1  
@<TRIPOS>SUBSTRUCTURE
     1 ED5         1

