### 
### Created by X-TOOL on Mon Sep 10 21:13:02 2018
### 

@<TRIPOS>MOLECULE
3e3b_ligand
   47    50     1     0     0
SMALL
GAST_HUCK


@<TRIPOS>ATOM
      1 N1        -24.5950   26.2430  -17.4690 N.ar      1 CCK        -0.2854
      2 C2        -24.9520   26.0670  -18.7360 C.ar      1 CCK         0.0656
      3 C3        -25.8320   25.0290  -19.0460 C.ar      1 CCK         0.1983
      4 N4        -26.3060   24.2390  -18.0770 N.ar      1 CCK        -0.2164
      5 C5        -25.9330   24.4470  -16.8370 C.ar      1 CCK         0.1858
      6 C6        -25.0450   25.4720  -16.4930 C.ar      1 CCK         0.0656
      7 N13       -26.2300   24.7880  -20.3010 N.pl3     1 CCK        -0.1391
      8 N15       -26.4090   23.6530  -15.9480 N.pl3     1 CCK        -0.2292
      9 C17       -26.8930   23.6610  -20.7010 C.ar      1 CCK         0.1008
     10 C18       -27.3680   23.8630  -22.0180 C.ar      1 CCK         0.0048
     11 C19       -26.8810   25.1810  -22.2890 C.2       1 CCK         0.0180
     12 N20       -26.1360   25.6140  -21.2340 N.2       1 CCK        -0.1928
     13 C26       -27.1800   22.4520  -16.0950 C.2       1 CCK         0.0313
     14 C27       -27.3730   21.7560  -14.8950 C.2       1 CCK        -0.0519
     15 C28       -26.5940   22.4160  -13.9150 C.2       1 CCK        -0.0758
     16 C29       -26.1550   23.5900  -14.5260 C.2       1 CCK         0.0302
     17 C35       -28.1200   22.9210  -22.7500 C.ar      1 CCK        -0.0693
     18 C36       -28.3730   21.7040  -22.0690 C.ar      1 CCK        -0.0496
     19 C37       -27.8980   21.4540  -20.7440 C.ar      1 CCK         0.0321
     20 C38       -27.1550   22.4360  -20.0460 C.ar      1 CCK        -0.0150
     21 N44       -28.1840   20.2220  -20.1880 N.pl3     1 CCK        -0.3218
     22 C46       -28.6280   19.9080  -18.8200 C.3       1 CCK         0.0296
     23 C48       -29.3950   18.6080  -18.8340 C.3       1 CCK        -0.0429
     24 C51       -29.6620   20.8830  -18.3420 C.3       1 CCK        -0.0429
     25 C57       -28.2700   20.5610  -14.6890 C.3       1 CCK         0.0149
     26 C59       -27.8430   19.5900  -13.5940 C.2       1 CCK         0.0406
     27 O61       -28.6620   18.7210  -13.2910 O.co2     1 CCK        -0.5673
     28 O63       -26.7330   19.6770  -13.0540 O.co2     1 CCK        -0.5673
     29 H1        -24.5675   26.7166  -19.5140 H         1 CCK         0.0809
     30 H2        -24.7374   25.6284  -15.4654 H         1 CCK         0.0809
     31 H3        -27.0757   25.7494  -23.1973 H         1 CCK         0.0726
     32 H4        -27.5780   22.1132  -17.0504 H         1 CCK         0.0710
     33 H5        -26.3827   22.0792  -12.9012 H         1 CCK         0.0275
     34 H6        -25.6623   24.3920  -13.9783 H         1 CCK         0.0818
     35 H7        -28.4768   23.1128  -23.7555 H         1 CCK         0.0583
     36 H8        -28.9479   20.9344  -22.5714 H         1 CCK         0.0473
     37 H9        -26.7975   22.2540  -19.0390 H         1 CCK         0.0443
     38 H10       -28.0713   19.4134  -20.8159 H         1 CCK         0.1761
     39 H11       -27.7642   19.8698  -18.1400 H         1 CCK         0.0543
     40 H12       -29.7293   18.3685  -17.8137 H         1 CCK         0.0251
     41 H13       -28.7445   17.8024  -19.2052 H         1 CCK         0.0251
     42 H14       -30.2702   18.7057  -19.4931 H         1 CCK         0.0251
     43 H15       -29.9700   20.6189  -17.3196 H         1 CCK         0.0251
     44 H16       -30.5360   20.8471  -19.0090 H         1 CCK         0.0251
     45 H17       -29.2386   21.8982  -18.3467 H         1 CCK         0.0251
     46 H18       -28.3120   20.0036  -15.6364 H         1 CCK         0.0518
     47 H19       -29.2743   20.9326  -14.4373 H         1 CCK         0.0518
@<TRIPOS>BOND
     1    1    2 ar 
     2    1    6 ar 
     3    2    3 ar 
     4    3    4 ar 
     5    3    7 1  
     6    4    5 ar 
     7    5    6 ar 
     8    5    8 1  
     9    7    9 1  
    10    7   12 1  
    11    8   13 1  
    12    8   16 1  
    13    9   10 ar 
    14    9   20 ar 
    15   10   11 1  
    16   10   17 ar 
    17   11   12 2  
    18   13   14 2  
    19   14   15 1  
    20   14   25 1  
    21   15   16 2  
    22   17   18 ar 
    23   18   19 ar 
    24   19   20 ar 
    25   19   21 1  
    26   21   22 1  
    27   22   23 1  
    28   22   24 1  
    29   25   26 1  
    30   26   27 ar 
    31   26   28 ar 
    32    2   29 1  
    33    6   30 1  
    34   11   31 1  
    35   13   32 1  
    36   15   33 1  
    37   16   34 1  
    38   17   35 1  
    39   18   36 1  
    40   20   37 1  
    41   21   38 1  
    42   22   39 1  
    43   23   40 1  
    44   23   41 1  
    45   23   42 1  
    46   24   43 1  
    47   24   44 1  
    48   24   45 1  
    49   25   46 1  
    50   25   47 1  
@<TRIPOS>SUBSTRUCTURE
     1 CCK         1

