### 
### Created by X-TOOL on Mon Sep 10 21:12:59 2018
### 

@<TRIPOS>MOLECULE
3e3u_ligand
   51    53     1     0     0
SMALL
GAST_HUCK


@<TRIPOS>ATOM
      1 O28        20.3620   53.7950   15.9130 O.2       1 NVC        -0.3963
      2 C27        20.1420   54.9940   15.9300 C.2       1 NVC         0.1866
      3 C29        18.7090   55.5040   15.9260 C.3       1 NVC         0.0721
      4 C40        17.9010   55.0910   17.1600 C.3       1 NVC        -0.0312
      5 C43        18.5500   55.5560   18.4720 C.3       1 NVC        -0.0509
      6 C46        17.6920   55.0610   19.6320 C.3       1 NVC        -0.0558
      7 C49        18.3390   55.3030   20.9790 C.3       1 NVC        -0.0653
      8 C31        18.0690   54.9230   14.6590 C.3       1 NVC         0.0826
      9 N34        16.7630   55.5170   14.3950 N.am      1 NVC        -0.1497
     10 O35        16.7570   56.8320   13.9170 O.3       1 NVC        -0.2684
     11 C37        15.7420   54.8280   14.6060 C.2       1 NVC         0.1950
     12 O39        14.7220   55.3890   14.5930 O.2       1 NVC        -0.3830
     13 N17        21.1450   55.8800   15.8980 N.am      1 NVC        -0.2484
     14 C15        22.5330   55.4080   15.8590 C.3       1 NVC         0.1382
     15 C24        23.3730   56.6550   15.6210 C.3       1 NVC        -0.0079
     16 C21        22.5160   57.7680   16.2090 C.3       1 NVC        -0.0274
     17 C18        21.0800   57.3510   15.8880 C.3       1 NVC         0.0377
     18 C3         22.8960   54.8620   17.1790 C.2       1 NVC         0.2108
     19 O1         23.7080   53.7710   17.1520 O.3       1 NVC        -0.2148
     20 C6         23.8920   53.4720   18.5080 C.ar      1 NVC         0.1416
     21 C5         23.2000   54.3640   19.3050 C.ar      1 NVC         0.0370
     22 N4         22.5690   55.2210   18.4460 N.2       1 NVC        -0.2987
     23 C7         24.6560   52.4270   19.0070 C.ar      1 NVC        -0.0302
     24 C9         24.6980   52.3110   20.3950 C.ar      1 NVC        -0.0741
     25 C11        24.0040   53.2050   21.2100 C.ar      1 NVC        -0.0768
     26 C13        23.2340   54.2420   20.6890 C.ar      1 NVC        -0.0622
     27 H1         18.7174   56.6026   15.8714 H         1 NVC         0.0559
     28 H2         17.8188   53.9942   17.1767 H         1 NVC         0.0293
     29 H3         16.8963   55.5330   17.0877 H         1 NVC         0.0293
     30 H4         18.6039   56.6545   18.4915 H         1 NVC         0.0267
     31 H5         19.5640   55.1375   18.5543 H         1 NVC         0.0267
     32 H6         17.5247   53.9806   19.5106 H         1 NVC         0.0263
     33 H7         16.7263   55.5869   19.6055 H         1 NVC         0.0263
     34 H8         17.6792   54.9280   21.7753 H         1 NVC         0.0230
     35 H9         18.5047   56.3815   21.1177 H         1 NVC         0.0230
     36 H10        19.3031   54.7752   21.0228 H         1 NVC         0.0230
     37 H11        17.9479   53.8371   14.7862 H         1 NVC         0.0581
     38 H12        18.7304   55.1204   13.8025 H         1 NVC         0.0581
     39 H13        15.8601   57.1144   13.7813 H         1 NVC         0.2496
     40 H14        15.8033   53.7569   14.7926 H         1 NVC         0.1560
     41 H15        22.6822   54.6582   15.0681 H         1 NVC         0.0851
     42 H16        23.5454   56.8155   14.5465 H         1 NVC         0.0321
     43 H17        24.3397   56.5848   16.1410 H         1 NVC         0.0321
     44 H18        22.7554   58.7334   15.7391 H         1 NVC         0.0288
     45 H19        22.6661   57.8421   17.2962 H         1 NVC         0.0288
     46 H20        20.3819   57.7200   16.6538 H         1 NVC         0.0525
     47 H21        20.7723   57.7253   14.9005 H         1 NVC         0.0525
     48 H22        25.1880   51.7422   18.3566 H         1 NVC         0.0559
     49 H23        25.2781   51.5149   20.8475 H         1 NVC         0.0536
     50 H24        24.0660   53.0887   22.2860 H         1 NVC         0.0527
     51 H25        22.6872   54.9217   21.3324 H         1 NVC         0.0542
@<TRIPOS>BOND
     1    1    2 2  
     2    2    3 1  
     3    2   13 am 
     4    3    4 1  
     5    3    8 1  
     6    4    5 1  
     7    5    6 1  
     8    6    7 1  
     9    8    9 1  
    10    9   10 1  
    11    9   11 am 
    12   11   12 2  
    13   13   14 1  
    14   13   17 1  
    15   14   15 1  
    16   14   18 1  
    17   15   16 1  
    18   16   17 1  
    19   18   19 1  
    20   18   22 2  
    21   19   20 1  
    22   20   21 ar 
    23   20   23 ar 
    24   21   22 1  
    25   21   26 ar 
    26   23   24 ar 
    27   24   25 ar 
    28   25   26 ar 
    29    3   27 1  
    30    4   28 1  
    31    4   29 1  
    32    5   30 1  
    33    5   31 1  
    34    6   32 1  
    35    6   33 1  
    36    7   34 1  
    37    7   35 1  
    38    7   36 1  
    39    8   37 1  
    40    8   38 1  
    41   10   39 1  
    42   11   40 1  
    43   14   41 1  
    44   15   42 1  
    45   15   43 1  
    46   16   44 1  
    47   16   45 1  
    48   17   46 1  
    49   17   47 1  
    50   23   48 1  
    51   24   49 1  
    52   25   50 1  
    53   26   51 1  
@<TRIPOS>SUBSTRUCTURE
     1 NVC         1

