### 
### Created by X-TOOL on Mon Sep 10 21:12:59 2018
### 

@<TRIPOS>MOLECULE
3e4a_ligand
   74    75     1     0     0
SMALL
GAST_HUCK


@<TRIPOS>ATOM
      1 C10       -81.0710   71.0300    4.6220 C.2       1 QIX         0.1856
      2 C13       -82.4480   72.3830    2.9330 C.3       1 QIX         0.0604
      3 C20       -80.4880   73.6470    6.6630 C.ar      1 QIX        -0.0565
      4 C21       -79.8130   73.6030    7.9260 C.ar      1 QIX        -0.0567
      5 C22       -78.3740   73.6520    7.8800 C.ar      1 QIX        -0.0222
      6 C24       -76.3020   73.6570    9.2580 C.ar      1 QIX        -0.0634
      7 C26       -76.2450   73.7380    6.6110 C.ar      1 QIX        -0.0578
      8 C28       -78.3910   73.7670    5.2080 C.ar      1 QIX        -0.0548
      9 O54       -85.5020   61.9620    3.2000 O.2       1 QIX        -0.3951
     10 C52       -84.8390   62.9240    3.5300 C.2       1 QIX         0.1960
     11 N53       -84.8120   64.0670    2.5640 N.am      1 QIX        -0.2992
     12 C46       -84.3350   63.0460    5.0360 C.3       1 QIX         0.1198
     13 N45       -83.4730   64.2520    5.2850 N.am      1 QIX        -0.2667
     14 C43       -83.9720   65.5110    5.9790 C.2       1 QIX         0.2005
     15 O44       -84.8020   65.6660    6.8990 O.2       1 QIX        -0.3947
     16 C32       -83.6630   66.7630    5.1330 C.3       1 QIX         0.1201
     17 N31       -82.5280   67.4680    5.7410 N.am      1 QIX        -0.2664
     18 C29       -82.9640   68.7720    6.2190 C.2       1 QIX         0.2037
     19 O30       -84.1130   69.0180    6.0330 O.2       1 QIX        -0.3944
     20 C08       -81.9670   69.8220    6.7410 C.3       1 QIX         0.1310
     21 C07       -82.4390   70.4340    8.1010 C.3       1 QIX        -0.0092
     22 C06       -81.9420   69.5530    9.2820 C.3       1 QIX        -0.0156
     23 C05       -81.6760   70.4060   10.5690 C.3       1 QIX         0.0627
     24 N04       -80.3300   70.0580   11.1120 N.pl3     1 QIX        -0.2723
     25 C02       -80.2480   69.9920   12.5970 C.cat     1 QIX         0.2882
     26 N03       -80.8230   68.7790   13.2730 N.pl3     1 QIX        -0.2849
     27 N01       -79.5760   70.9000   13.2330 N.pl3     1 QIX        -0.2849
     28 N09       -82.0160   70.9050    5.7430 N.am      1 QIX        -0.2651
     29 O11       -80.2710   70.1740    4.3700 O.2       1 QIX        -0.3963
     30 C12       -81.0920   72.2900    3.7020 C.3       1 QIX         0.0750
     31 C14       -82.3340   71.9210    1.4630 C.2       1 QIX         0.2015
     32 N16       -82.3760   72.9930    0.5080 N.am      1 QIX        -0.1641
     33 O17       -81.6720   72.8910   -0.6890 O.3       1 QIX        -0.2717
     34 O15       -81.7330   70.9380    1.1830 O.2       1 QIX        -0.3968
     35 C18       -81.0740   73.6690    4.3770 C.3       1 QIX         0.0030
     36 C19       -79.8690   73.7240    5.3510 C.ar      1 QIX        -0.0396
     37 C27       -77.6810   73.7220    6.5350 C.ar      1 QIX        -0.0259
     38 C25       -75.6250   73.6870    7.9520 C.ar      1 QIX        -0.0637
     39 C23       -77.7340   73.6430    9.2230 C.ar      1 QIX        -0.0568
     40 H         -82.7608   73.4272    2.9319 H         1 QIX         0.0531
     41 H         -83.1621   71.7297    3.4343 H         1 QIX         0.0531
     42 H         -81.5773   73.6199    6.6892 H         1 QIX         0.0586
     43 H         -80.3573   73.5363    8.8680 H         1 QIX         0.0620
     44 H         -75.7471   73.6461   10.1961 H         1 QIX         0.0598
     45 H         -75.6340   73.7861    5.7097 H         1 QIX         0.0603
     46 H         -77.8773   73.8247    4.2484 H         1 QIX         0.0531
     47 H         -85.3321   64.0073    1.6886 H         1 QIX         0.1815
     48 H         -84.2735   64.9056    2.7811 H         1 QIX         0.1815
     49 H         -83.7332   62.1633    5.2522 H         1 QIX         0.0763
     50 H         -85.2170   63.1377    5.6699 H         1 QIX         0.0763
     51 H         -82.5025   64.2251    4.9723 H         1 QIX         0.1881
     52 H         -84.5347   67.4168    5.1041 H         1 QIX         0.0763
     53 H         -83.4157   66.4706    4.1125 H         1 QIX         0.0763
     54 H         -81.5795   67.1006    5.8169 H         1 QIX         0.1881
     55 H         -80.9828   69.3773    6.8882 H         1 QIX         0.0800
     56 H         -83.5281   70.4741    8.1173 H         1 QIX         0.0313
     57 H         -82.0271   71.4379    8.2045 H         1 QIX         0.0313
     58 H         -81.0071   69.0772    8.9859 H         1 QIX         0.0301
     59 H         -82.7136   68.8178    9.5106 H         1 QIX         0.0301
     60 H         -82.4405   70.1928   11.3162 H         1 QIX         0.0689
     61 H         -81.7095   71.4668   10.3207 H         1 QIX         0.0689
     62 H         -79.5261   69.8787   10.5104 H         1 QIX         0.2642
     63 H         -81.2497   68.0388   12.7158 H         1 QIX         0.2615
     64 H         -80.7865   68.6960   14.2890 H         1 QIX         0.2615
     65 H         -79.1121   71.6469   12.7160 H         1 QIX         0.2615
     66 H         -79.5112   70.8675   14.2504 H         1 QIX         0.2615
     67 H         -82.7480   71.6094    5.8346 H         1 QIX         0.1883
     68 H         -80.1827   72.1281    3.1231 H         1 QIX         0.0586
     69 H         -82.9227   73.8308    0.7071 H         1 QIX         0.2216
     70 H         -80.7366   72.7853   -0.5008 H         1 QIX         0.2490
     71 H         -82.0029   73.8273    4.9249 H         1 QIX         0.0457
     72 H         -80.9795   74.4510    3.6235 H         1 QIX         0.0457
     73 H         -74.5354   73.6695    7.9762 H         1 QIX         0.0611
     74 H         -78.3269   73.6265   10.1375 H         1 QIX         0.0619
@<TRIPOS>BOND
     1    1   28 am 
     2    1   29 2  
     3   30    1 1  
     4   30    2 1  
     5    2   31 1  
     6    3    4 ar 
     7   36    3 ar 
     8    4    5 ar 
     9   37    5 ar 
    10    5   39 ar 
    11   38    6 ar 
    12   39    6 ar 
    13   37    7 ar 
    14    7   38 ar 
    15   36    8 ar 
    16    8   37 ar 
    17   10    9 2  
    18   10   11 am 
    19   12   10 1  
    20   13   12 1  
    21   14   13 am 
    22   14   15 2  
    23   16   14 1  
    24   17   16 1  
    25   18   17 am 
    26   18   19 2  
    27   20   18 1  
    28   20   21 1  
    29   28   20 1  
    30   21   22 1  
    31   22   23 1  
    32   23   24 1  
    33   24   25 ar 
    34   25   26 ar 
    35   25   27 ar 
    36   35   30 1  
    37   31   32 am 
    38   31   34 2  
    39   32   33 1  
    40   35   36 1  
    41    2   40 1  
    42    2   41 1  
    43    3   42 1  
    44    4   43 1  
    45    6   44 1  
    46    7   45 1  
    47    8   46 1  
    48   11   47 1  
    49   11   48 1  
    50   12   49 1  
    51   12   50 1  
    52   13   51 1  
    53   16   52 1  
    54   16   53 1  
    55   17   54 1  
    56   20   55 1  
    57   21   56 1  
    58   21   57 1  
    59   22   58 1  
    60   22   59 1  
    61   23   60 1  
    62   23   61 1  
    63   24   62 1  
    64   26   63 1  
    65   26   64 1  
    66   27   65 1  
    67   27   66 1  
    68   28   67 1  
    69   30   68 1  
    70   32   69 1  
    71   33   70 1  
    72   35   71 1  
    73   35   72 1  
    74   38   73 1  
    75   39   74 1  
@<TRIPOS>SUBSTRUCTURE
     1 QIX         1

