### 
### Created by X-TOOL on Mon Sep 10 21:13:01 2018
### 

@<TRIPOS>MOLECULE
3e51_ligand
   63    66     1     0     0
SMALL
GAST_HUCK


@<TRIPOS>ATOM
      1 C4         95.2570    8.9480   59.1710 C.ar      1 N35        -0.0058
      2 C5         95.8990    9.3180   61.8860 C.ar      1 N35         0.0568
      3 C6         96.0900    8.0420   59.8340 C.ar      1 N35         0.1026
      4 C7         95.5570    8.4810   55.5320 C.2       1 N35         0.1307
      5 C8         96.1620    7.7070   54.6020 C.2       1 N35         0.1711
      6 C10        96.3120    8.2730   53.2150 C.2       1 N35         0.1931
      7 C13        98.4750    7.4930   50.3430 C.3       1 N35        -0.0320
      8 C15        97.3690    8.3310   50.9740 C.3       1 N35         0.0256
      9 C17        91.2350   10.3850   54.3870 C.3       1 N35        -0.0626
     10 C20        94.2360   11.2490   53.3580 C.3       1 N35         0.0782
     11 C21        92.0010    9.8820   53.1600 C.3       1 N35        -0.0441
     12 O32        95.9500    7.0280   63.7500 O.2       1 N35        -0.1503
     13 S35        96.4050    8.2580   64.3420 S.o2      1 N35         0.0562
     14 O31        95.9290    8.6290   65.6640 O.2       1 N35        -0.1503
     15 C18        98.1770    8.1780   64.5060 C.3       1 N35         0.0786
     16 N27        96.1870    9.5690   63.2670 N.am      1 N35        -0.1957
     17 C2         95.0640   10.2210   61.2350 C.ar      1 N35        -0.0527
     18 C3         96.4340    8.2130   61.1910 C.ar      1 N35        -0.0256
     19 S34        96.7070    6.6620   58.9340 S.o2      1 N35         0.0892
     20 O29        98.1090    6.5800   59.2500 O.2       1 N35        -0.1446
     21 O30        95.8100    5.5480   59.1710 O.2       1 N35        -0.1446
     22 N24        96.5600    7.1620   57.3200 N.am      1 N35        -0.1652
     23 C9         95.6430    8.1950   56.9740 C.2       1 N35         0.1268
     24 N22        94.8950    8.8380   57.8270 N.2       1 N35        -0.3469
     25 C1         94.7510   10.0470   59.8920 C.ar      1 N35        -0.0732
     26 C11        94.7450    9.6410   55.0980 C.2       1 N35         0.2250
     27 O28        94.0400   10.2280   55.9200 O.2       1 N35        -0.4167
     28 N26        94.9000   10.0320   53.7830 N.am      1 N35        -0.1553
     29 C19        92.9580   10.9350   52.5770 C.3       1 N35        -0.0207
     30 C16        91.0180    9.3900   52.0920 C.3       1 N35        -0.0626
     31 N23        95.6830    9.3740   52.8810 N.2       1 N35        -0.1441
     32 O33        96.5430    6.4040   54.8350 O.3       1 N35        -0.3092
     33 N25        97.0630    7.6740   52.2420 N.pl3     1 N35        -0.2954
     34 C14        98.0460    6.6220   52.4840 C.3       1 N35         0.0256
     35 C12        99.2080    6.9910   51.5720 C.3       1 N35        -0.0320
     36 H1         99.1301    8.1054   49.7060 H         1 N35         0.0284
     37 H2         98.0627    6.6614   49.7528 H         1 N35         0.0284
     38 H3         96.4810    8.3484   50.3251 H         1 N35         0.0507
     39 H4         97.7167    9.3601   51.1474 H         1 N35         0.0507
     40 H5         90.5704    9.5898   54.7557 H         1 N35         0.0232
     41 H6         90.6355   11.2646   54.1098 H         1 N35         0.0232
     42 H7         91.9488   10.6618   55.1768 H         1 N35         0.0232
     43 H8         94.9179   11.8245   52.7148 H         1 N35         0.0640
     44 H9         93.9775   11.8459   54.2451 H         1 N35         0.0640
     45 H10        92.6114    9.0245   53.4795 H         1 N35         0.0296
     46 H11        98.6225    7.9000   63.5394 H         1 N35         0.0487
     47 H12        98.4416    7.4241   65.2620 H         1 N35         0.0487
     48 H13        98.5611    9.1605   64.8177 H         1 N35         0.0487
     49 H14        96.2603   10.5087   63.6010 H         1 N35         0.2138
     50 H15        94.6552   11.0651   61.7785 H         1 N35         0.0467
     51 H16        97.0941    7.5117   61.6884 H         1 N35         0.0486
     52 H17        97.1178    6.7310   56.6107 H         1 N35         0.2308
     53 H18        94.1101   10.7654   59.3938 H         1 N35         0.0499
     54 H19        93.2610   10.5858   51.5789 H         1 N35         0.0296
     55 H20        92.3932   11.8740   52.4811 H         1 N35         0.0296
     56 H21        90.3449    8.6390   52.5313 H         1 N35         0.0232
     57 H22        91.5771    8.9387   51.2591 H         1 N35         0.0232
     58 H23        90.4264   10.2391   51.7191 H         1 N35         0.0232
     59 H24        97.4662    6.3045   54.6344 H         1 N35         0.2612
     60 H25        97.6376    5.6358   52.2182 H         1 N35         0.0507
     61 H26        98.3619    6.6162   53.5376 H         1 N35         0.0507
     62 H27        99.8343    7.7784   52.0167 H         1 N35         0.0284
     63 H28        99.8309    6.1147   51.3392 H         1 N35         0.0284
@<TRIPOS>BOND
     1    1    3 ar 
     2   24    1 1  
     3    1   25 ar 
     4    2   16 1  
     5   17    2 ar 
     6   18    2 ar 
     7    3   18 ar 
     8   19    3 1  
     9    4    5 2  
    10    4   23 1  
    11   26    4 1  
    12    5    6 1  
    13    5   32 1  
    14    6   31 2  
    15    6   33 1  
    16    8    7 1  
    17    7   35 1  
    18   33    8 1  
    19   11    9 1  
    20   28   10 1  
    21   10   29 1  
    22   29   11 1  
    23   11   30 1  
    24   13   12 2  
    25   13   14 2  
    26   13   15 1  
    27   16   13 am 
    28   25   17 ar 
    29   19   20 2  
    30   19   21 2  
    31   22   19 am 
    32   23   22 1  
    33   23   24 2  
    34   26   27 2  
    35   26   28 am 
    36   28   31 1  
    37   33   34 1  
    38   34   35 1  
    39    7   36 1  
    40    7   37 1  
    41    8   38 1  
    42    8   39 1  
    43    9   40 1  
    44    9   41 1  
    45    9   42 1  
    46   10   43 1  
    47   10   44 1  
    48   11   45 1  
    49   15   46 1  
    50   15   47 1  
    51   15   48 1  
    52   16   49 1  
    53   17   50 1  
    54   18   51 1  
    55   22   52 1  
    56   25   53 1  
    57   29   54 1  
    58   29   55 1  
    59   30   56 1  
    60   30   57 1  
    61   30   58 1  
    62   32   59 1  
    63   34   60 1  
    64   34   61 1  
    65   35   62 1  
    66   35   63 1  
@<TRIPOS>SUBSTRUCTURE
     1 N35         1

