### 
### Created by X-TOOL on Mon Sep 10 21:12:58 2018
### 

@<TRIPOS>MOLECULE
3e5a_ligand
   62    66     1     0     0
SMALL
GAST_HUCK


@<TRIPOS>ATOM
      1 N1         19.6200   30.1200   22.3550 N.4       1 VX6         0.2360
      2 C2         19.7830   30.5820   20.9840 C.3       1 VX6        -0.0111
      3 C3         20.9270   29.9790   20.1990 C.3       1 VX6         0.0716
      4 N4         22.0990   29.7310   21.0000 N.pl3     1 VX6        -0.2821
      5 C5         22.0710   29.5120   22.4450 C.3       1 VX6         0.0716
      6 C6         20.6470   29.2200   22.9030 C.3       1 VX6        -0.0111
      7 C7         18.3720   29.3940   22.3790 C.3       1 VX6        -0.0429
      8 C8         23.1650   29.1720   20.3010 C.ar      1 VX6         0.1089
      9 C9         23.1590   29.2090   18.9250 C.ar      1 VX6         0.0188
     10 C10        24.2540   28.6580   18.2810 C.ar      1 VX6         0.1287
     11 N11        25.2720   28.1060   18.9740 N.ar      1 VX6        -0.2553
     12 C12        25.1980   28.1080   20.3020 C.ar      1 VX6         0.1450
     13 N13        24.1920   28.6370   20.9770 N.ar      1 VX6        -0.2585
     14 N14        24.2240   28.7180   16.8590 N.pl3     1 VX6        -0.2323
     15 C15        25.1960   28.4090   15.9440 C.2       1 VX6         0.1723
     16 C17        26.4660   27.8600   16.2610 C.2       1 VX6        -0.0277
     17 C18        27.1140   27.6860   15.0580 C.2       1 VX6        -0.0155
     18 N19        26.2480   28.1310   14.0960 N.2       1 VX6        -0.2528
     19 N20        25.0830   28.5620   14.6120 N.pl3     1 VX6        -0.2110
     20 C21        28.4420   27.1460   14.7240 C.3       1 VX6        -0.0327
     21 S23        26.5280   27.4320   21.2800 S.3       1 VX6        -0.0158
     22 C24        27.2630   26.3420   20.1030 C.ar      1 VX6         0.0217
     23 C25        28.3750   26.7520   19.4030 C.ar      1 VX6        -0.0596
     24 C26        28.9350   25.9230   18.4640 C.ar      1 VX6        -0.0458
     25 C27        28.3870   24.6830   18.2430 C.ar      1 VX6         0.0602
     26 C28        27.2870   24.2590   18.9590 C.ar      1 VX6        -0.0458
     27 C29        26.7250   25.0940   19.8910 C.ar      1 VX6        -0.0596
     28 N30        28.9160   23.7940   17.2970 N.am      1 VX6        -0.2372
     29 C31        30.1000   23.9530   16.6000 C.2       1 VX6         0.2051
     30 O32        30.9990   24.8020   16.7420 O.2       1 VX6        -0.3854
     31 C33        30.2040   22.9020   15.5680 C.3       1 VX6         0.0545
     32 C34        31.0310   23.2190   14.3610 C.3       1 VX6        -0.0304
     33 C35        31.5330   22.2310   15.3760 C.3       1 VX6        -0.0304
     34 H1         19.5661   30.9292   22.9536 H         1 VX6         0.2032
     35 H2         19.9362   31.6708   21.0144 H         1 VX6         0.0835
     36 H3         18.8519   30.3577   20.4430 H         1 VX6         0.0835
     37 H4         21.1980   30.6718   19.3887 H         1 VX6         0.0577
     38 H5         20.5902   29.0246   19.7681 H         1 VX6         0.0577
     39 H6         22.4402   30.4130   22.9568 H         1 VX6         0.0577
     40 H7         22.7163   28.6573   22.6960 H         1 VX6         0.0577
     41 H8         20.3958   28.1923   22.6018 H         1 VX6         0.0835
     42 H9         20.6188   29.2979   23.9999 H         1 VX6         0.0835
     43 H10        17.5700   30.0301   21.9763 H         1 VX6         0.0778
     44 H11        18.1315   29.1124   23.4148 H         1 VX6         0.0778
     45 H12        18.4638   28.4865   21.7641 H         1 VX6         0.0778
     46 H13        22.3366   29.6484   18.3721 H         1 VX6         0.0510
     47 H14        23.3341   29.0441   16.4556 H         1 VX6         0.2211
     48 H15        26.8496   27.6245   17.2526 H         1 VX6         0.0176
     49 H16        24.2728   28.9322   14.0949 H         1 VX6         0.2465
     50 H17        28.5871   27.1776   13.6341 H         1 VX6         0.0373
     51 H18        28.5132   26.1054   15.0733 H         1 VX6         0.0373
     52 H19        29.2181   27.7515   15.2149 H         1 VX6         0.0373
     53 H20        28.8074   27.7277   19.5932 H         1 VX6         0.0535
     54 H21        29.8036   26.2443   17.9006 H         1 VX6         0.0489
     55 H22        26.8698   23.2735   18.7865 H         1 VX6         0.0489
     56 H23        25.8597   24.7713   20.4586 H         1 VX6         0.0535
     57 H24        28.3872   22.9665   17.1082 H         1 VX6         0.2236
     58 H25        29.2652   22.3345   15.4869 H         1 VX6         0.0543
     59 H26        31.5123   24.2037   14.2674 H         1 VX6         0.0294
     60 H27        30.7099   22.8718   13.3678 H         1 VX6         0.0294
     61 H28        31.5784   21.1606   15.1267 H         1 VX6         0.0294
     62 H29        32.3808   22.4924   16.0263 H         1 VX6         0.0294
@<TRIPOS>BOND
     1    1    2 1  
     2    1    6 1  
     3    1    7 1  
     4    2    3 1  
     5    3    4 1  
     6    4    5 1  
     7    4    8 1  
     8    5    6 1  
     9    8    9 ar 
    10    8   13 ar 
    11    9   10 ar 
    12   10   11 ar 
    13   10   14 1  
    14   11   12 ar 
    15   12   13 ar 
    16   12   21 1  
    17   14   15 1  
    18   15   16 2  
    19   15   19 1  
    20   16   17 1  
    21   17   18 2  
    22   17   20 1  
    23   18   19 1  
    24   21   22 1  
    25   22   23 ar 
    26   22   27 ar 
    27   23   24 ar 
    28   24   25 ar 
    29   25   26 ar 
    30   25   28 1  
    31   26   27 ar 
    32   28   29 am 
    33   29   30 2  
    34   29   31 1  
    35   31   32 1  
    36   31   33 1  
    37   32   33 1  
    38    1   34 1  
    39    2   35 1  
    40    2   36 1  
    41    3   37 1  
    42    3   38 1  
    43    5   39 1  
    44    5   40 1  
    45    6   41 1  
    46    6   42 1  
    47    7   43 1  
    48    7   44 1  
    49    7   45 1  
    50    9   46 1  
    51   14   47 1  
    52   16   48 1  
    53   19   49 1  
    54   20   50 1  
    55   20   51 1  
    56   20   52 1  
    57   23   53 1  
    58   24   54 1  
    59   26   55 1  
    60   27   56 1  
    61   28   57 1  
    62   31   58 1  
    63   32   59 1  
    64   32   60 1  
    65   33   61 1  
    66   33   62 1  
@<TRIPOS>SUBSTRUCTURE
     1 VX6         1

