### 
### Created by X-TOOL on Mon Sep 10 21:12:57 2018
### 

@<TRIPOS>MOLECULE
3e5u_ligand
   18    18     1     0     0
SMALL
GAST_HUCK


@<TRIPOS>ATOM
      1 O2         10.1580  -23.8110   21.3250 O.co2     1 3C4        -0.5667
      2 C           9.7370  -23.5100   20.1530 C.2       1 3C4         0.0446
      3 O1          8.5380  -23.7690   19.7580 O.co2     1 3C4        -0.5667
      4 CG         10.7840  -22.9190   19.2050 C.3       1 3C4         0.0285
      5 CA         10.3040  -22.8350   17.7550 C.ar      1 3C4        -0.0403
      6 CD2         9.4900  -21.8350   17.3370 C.ar      1 3C4        -0.0668
      7 CE2         9.0210  -21.6750   16.1370 C.ar      1 3C4        -0.0388
      8 CZ          9.4820  -22.5930   15.0760 C.ar      1 3C4         0.0951
      9 OH          9.1550  -22.5630   13.7590 O.3       1 3C4        -0.3366
     10 CL         10.9670  -24.8500   14.4430 Cl        1 3C4        -0.0805
     11 CE1        10.3670  -23.6370   15.5820 C.ar      1 3C4         0.0615
     12 CD1        10.7400  -23.7180   16.8610 C.ar      1 3C4        -0.0531
     13 H1         11.6835  -23.5512   19.2395 H         1 3C4         0.0567
     14 H2         11.0350  -21.9050   19.5495 H         1 3C4         0.0567
     15 H3          9.2025  -21.0968   18.0769 H         1 3C4         0.0535
     16 H4          8.3088  -20.8873   15.9193 H         1 3C4         0.0526
     17 H5          9.4252  -21.7323   13.3856 H         1 3C4         0.2463
     18 H6         11.4065  -24.5132   17.1750 H         1 3C4         0.0538
@<TRIPOS>BOND
     1    1    2 ar 
     2    2    3 ar 
     3    2    4 1  
     4    4    5 1  
     5    5    6 ar 
     6    5   12 ar 
     7    6    7 ar 
     8    7    8 ar 
     9    8    9 1  
    10    8   11 ar 
    11   11   10 1  
    12   11   12 ar 
    13    4   13 1  
    14    4   14 1  
    15    6   15 1  
    16    7   16 1  
    17    9   17 1  
    18   12   18 1  
@<TRIPOS>SUBSTRUCTURE
     1 3C4         1

