### 
### Created by X-TOOL on Mon Sep 10 21:12:57 2018
### 

@<TRIPOS>MOLECULE
3e62_ligand
   17    18     1     0     0
SMALL
GAST_HUCK


@<TRIPOS>ATOM
      1 C7         33.7560   40.6770   36.4760 C.ar      1 5B1         0.0784
      2 C6         33.1580   39.5960   37.1320 C.ar      1 5B1        -0.0291
      3 C1         33.4490   42.0510   36.3260 C.2       1 5B1         0.2397
      4 N1         32.3800   42.6610   36.8630 N.pl3     1 5B1        -0.2609
      5 C5         33.7830   38.3500   37.0230 C.ar      1 5B1         0.0146
      6 C4         34.9720   38.1490   36.3020 C.ar      1 5B1        -0.0526
      7 BR1        32.9450   36.9070   37.9130 Br        1 5B1        -0.0498
      8 C3         35.5840   39.2270   35.6420 C.ar      1 5B1        -0.0633
      9 C2         34.9400   40.4720   35.7550 C.ar      1 5B1        -0.0493
     10 N3         35.2370   41.7040   35.2440 N.2       1 5B1        -0.4386
     11 N2         34.3560   42.6620   35.5880 N.pl3     1 5B1        -0.2547
     12 H1         32.2449   39.7195   37.7031 H         1 5B1         0.0662
     13 H2         32.2284   43.6676   36.7057 H         1 5B1         0.2096
     14 H3         31.7116   42.1223   37.4322 H         1 5B1         0.2096
     15 H4         35.4170   37.1617   36.2552 H         1 5B1         0.0644
     16 H5         36.5013   39.1062   35.0772 H         1 5B1         0.0619
     17 H6         34.3840   43.6588   35.3302 H         1 5B1         0.2538
@<TRIPOS>BOND
     1    1    2 ar 
     2    1    3 2  
     3    1    9 ar 
     4    2    5 ar 
     5    3    4 1  
     6    3   11 1  
     7    5    6 ar 
     8    5    7 1  
     9    6    8 ar 
    10    8    9 ar 
    11    9   10 2  
    12   10   11 1  
    13    2   12 1  
    14    4   13 1  
    15    4   14 1  
    16    6   15 1  
    17    8   16 1  
    18   11   17 1  
@<TRIPOS>SUBSTRUCTURE
     1 5B1         1

