### 
### Created by X-TOOL on Mon Sep 10 21:12:58 2018
### 

@<TRIPOS>MOLECULE
3e63_ligand
   27    29     1     0     0
SMALL
GAST_HUCK


@<TRIPOS>ATOM
      1 C7         33.5740   40.8000   36.3640 C.ar      1 5B2         0.0761
      2 C6         32.8970   39.7530   37.0260 C.ar      1 5B2        -0.0310
      3 C1         33.3570   42.1870   36.1560 C.2       1 5B2         0.2390
      4 N1         32.2990   42.8740   36.6180 N.pl3     1 5B2        -0.2610
      5 C5         33.4360   38.4480   37.0140 C.ar      1 5B2        -0.0163
      6 C4         34.6580   38.2220   36.3380 C.ar      1 5B2        -0.0545
      7 C3         35.3570   39.2480   35.6690 C.ar      1 5B2        -0.0656
      8 C2         34.7760   40.5240   35.7110 C.ar      1 5B2        -0.0524
      9 N3         35.1690   41.7250   35.1750 N.2       1 5B2        -0.4402
     10 N2         34.3220   42.7400   35.4310 N.pl3     1 5B2        -0.2550
     11 C8         32.7160   37.3650   37.7110 C.ar      1 5B2        -0.0178
     12 C13        32.0970   37.6000   38.9650 C.ar      1 5B2        -0.0540
     13 C12        31.4100   36.5870   39.6450 C.ar      1 5B2        -0.0612
     14 C11        31.3140   35.3180   39.0690 C.ar      1 5B2        -0.0617
     15 C10        31.9080   35.0600   37.8330 C.ar      1 5B2        -0.0612
     16 C9         32.6070   36.0740   37.1500 C.ar      1 5B2        -0.0540
     17 H1         31.9648   39.9506   37.5427 H         1 5B2         0.0641
     18 H2         32.2145   43.8819   36.4233 H         1 5B2         0.2096
     19 H3         31.5723   42.3928   37.1669 H         1 5B2         0.2096
     20 H4         35.0734   37.2208   36.3341 H         1 5B2         0.0623
     21 H5         36.2909   39.0610   35.1514 H         1 5B2         0.0612
     22 H6         34.4041   43.7223   35.1322 H         1 5B2         0.2538
     23 H7         32.1571   38.5876   39.4078 H         1 5B2         0.0624
     24 H8         30.9568   36.7857   40.6095 H         1 5B2         0.0618
     25 H9         30.7759   34.5306   39.5842 H         1 5B2         0.0618
     26 H10        31.8308   34.0714   37.3951 H         1 5B2         0.0618
     27 H11        33.0632   35.8624   36.1897 H         1 5B2         0.0624
@<TRIPOS>BOND
     1    1    2 ar 
     2    1    3 2  
     3    1    8 ar 
     4    2    5 ar 
     5    3    4 1  
     6    3   10 1  
     7    5    6 ar 
     8    5   11 1  
     9    6    7 ar 
    10    7    8 ar 
    11    8    9 2  
    12    9   10 1  
    13   11   12 ar 
    14   11   16 ar 
    15   12   13 ar 
    16   13   14 ar 
    17   14   15 ar 
    18   15   16 ar 
    19    2   17 1  
    20    4   18 1  
    21    4   19 1  
    22    6   20 1  
    23    7   21 1  
    24   10   22 1  
    25   12   23 1  
    26   13   24 1  
    27   14   25 1  
    28   15   26 1  
    29   16   27 1  
@<TRIPOS>SUBSTRUCTURE
     1 5B2         1

