### 
### Created by X-TOOL on Mon Sep 10 21:12:57 2018
### 

@<TRIPOS>MOLECULE
3e64_ligand
   44    46     1     0     0
SMALL
GAST_HUCK


@<TRIPOS>ATOM
      1 O1         30.0080   33.3830   38.5690 O.2       1 5B3        -0.1503
      2 C7         32.6360   36.3980   37.0060 C.ar      1 5B3        -0.0522
      3 O2         29.1580   35.0050   40.2630 O.2       1 5B3        -0.1503
      4 C6         31.8480   35.4090   37.6030 C.ar      1 5B3        -0.0345
      5 C1         33.7460   33.6920   41.3140 C.3       1 5B3        -0.0430
      6 N1         31.3820   33.9130   40.7950 N.am      1 5B3        -0.2421
      7 C5         31.2700   35.6550   38.8510 C.ar      1 5B3         0.1082
      8 C4         32.9110   32.5760   39.2990 C.3       1 5B3        -0.0430
      9 C3         32.2480   31.6990   41.5400 C.3       1 5B3        -0.0430
     10 C2         32.5370   32.9690   40.7350 C.3       1 5B3         0.0405
     11 S1         30.2760   34.3750   39.5910 S.o2      1 5B3         0.0687
     12 C10        31.4670   36.8690   39.5250 C.ar      1 5B3        -0.0345
     13 C9         32.2440   37.8610   38.9180 C.ar      1 5B3        -0.0522
     14 C8         32.8600   37.6250   37.6630 C.ar      1 5B3        -0.0177
     15 C11        33.6390   38.6620   36.9790 C.ar      1 5B3        -0.0163
     16 C17        33.0980   39.9660   37.0080 C.ar      1 5B3        -0.0310
     17 C16        33.7580   41.0150   36.3330 C.ar      1 5B3         0.0761
     18 C15        33.5390   42.4050   36.1310 C.2       1 5B3         0.2390
     19 N4         32.4560   43.0880   36.5580 N.pl3     1 5B3        -0.2610
     20 N3         34.5070   42.9430   35.3840 N.pl3     1 5B3        -0.2550
     21 N2         35.3360   41.9210   35.1090 N.2       1 5B3        -0.4402
     22 C14        34.9420   40.7200   35.6530 C.ar      1 5B3        -0.0524
     23 C13        35.5060   39.4370   35.5790 C.ar      1 5B3        -0.0656
     24 C12        34.8290   38.4080   36.2580 C.ar      1 5B3        -0.0545
     25 H1         33.0773   36.2201   36.0320 H         1 5B3         0.0624
     26 H2         31.6872   34.4610   37.1025 H         1 5B3         0.0637
     27 H3         34.6201   33.0248   41.2863 H         1 5B3         0.0250
     28 H4         33.5373   33.9798   42.3549 H         1 5B3         0.0250
     29 H5         33.9539   34.5935   40.7189 H         1 5B3         0.0250
     30 H6         31.2360   34.3420   41.6864 H         1 5B3         0.1678
     31 H7         32.0670   32.0473   38.8320 H         1 5B3         0.0250
     32 H8         33.7917   31.9172   39.3167 H         1 5B3         0.0250
     33 H9         33.1422   33.4818   38.7193 H         1 5B3         0.0250
     34 H10        31.3738   31.1855   41.1134 H         1 5B3         0.0250
     35 H11        32.0410   31.9673   42.5865 H         1 5B3         0.0250
     36 H12        33.1215   31.0318   41.4984 H         1 5B3         0.0250
     37 H13        31.0244   37.0358   40.5004 H         1 5B3         0.0637
     38 H14        32.3762   38.8174   39.4108 H         1 5B3         0.0624
     39 H15        32.1781   40.1608   37.5474 H         1 5B3         0.0641
     40 H16        32.3760   44.0973   36.3687 H         1 5B3         0.2096
     41 H17        31.7095   42.5999   37.0732 H         1 5B3         0.2096
     42 H18        34.5981   43.9243   35.0847 H         1 5B3         0.2538
     43 H19        36.4188   39.2483   35.0256 H         1 5B3         0.0612
     44 H20        35.2272   37.4002   36.2281 H         1 5B3         0.0623
@<TRIPOS>BOND
     1   11    1 2  
     2    4    2 ar 
     3    2   14 ar 
     4   11    3 2  
     5    7    4 ar 
     6   10    5 1  
     7    6   10 1  
     8   11    6 am 
     9    7   11 1  
    10    7   12 ar 
    11   10    8 1  
    12   10    9 1  
    13   12   13 ar 
    14   13   14 ar 
    15   14   15 1  
    16   15   16 ar 
    17   15   24 ar 
    18   16   17 ar 
    19   17   18 2  
    20   17   22 ar 
    21   18   19 1  
    22   18   20 1  
    23   20   21 1  
    24   21   22 2  
    25   22   23 ar 
    26   23   24 ar 
    27    2   25 1  
    28    4   26 1  
    29    5   27 1  
    30    5   28 1  
    31    5   29 1  
    32    6   30 1  
    33    8   31 1  
    34    8   32 1  
    35    8   33 1  
    36    9   34 1  
    37    9   35 1  
    38    9   36 1  
    39   12   37 1  
    40   13   38 1  
    41   16   39 1  
    42   19   40 1  
    43   19   41 1  
    44   20   42 1  
    45   23   43 1  
    46   24   44 1  
@<TRIPOS>SUBSTRUCTURE
     1 5B3         1

