### 
### Created by X-TOOL on Mon Sep 10 21:13:01 2018
### 

@<TRIPOS>MOLECULE
3e6y_ligand
   98   103     1     0     0
SMALL
GAST_HUCK


@<TRIPOS>ATOM
      1 OAH       -21.0040  -19.6560  -23.5080 O.2       1 CW1        -0.3548
      2 CAL       -20.5910  -20.8200  -23.3930 C.2       1 CW1         0.2279
      3 OAX       -19.2240  -21.0780  -23.4230 O.3       1 CW1        -0.2783
      4 CAN       -18.4880  -19.8980  -23.5430 C.3       1 CW1         0.0796
      5 CAQ       -17.8410  -19.9740  -24.9270 C.3       1 CW1         0.0089
      6 CBR       -16.2940  -20.0650  -24.7330 C.3       1 CW1         0.1232
      7 CAG       -15.6070  -21.3800  -25.1730 C.3       1 CW1        -0.0308
      8 OBC       -15.3710  -18.9500  -24.2850 O.3       1 CW1        -0.3327
      9 CBT       -14.8860  -18.2850  -25.4250 C.3       1 CW1         0.2313
     10 CBK       -13.3970  -17.7490  -25.5090 C.3       1 CW1         0.1413
     11 OAY       -13.2650  -16.5110  -24.7930 O.3       1 CW1        -0.3375
     12 CAT       -12.3490  -18.8140  -25.3140 C.3       1 CW1         0.0788
     13 OAV       -11.5170  -18.5330  -24.2350 O.3       1 CW1        -0.3802
     14 CAA       -12.3270  -18.9540  -23.1020 C.3       1 CW1         0.0366
     15 OBB       -15.0170  -19.2430  -26.4960 O.3       1 CW1        -0.3119
     16 CBM       -16.3140  -19.5040  -26.3050 C.3       1 CW1         0.1919
     17 OAZ       -16.6720  -18.1480  -26.7100 O.3       1 CW1        -0.3370
     18 CBN       -15.9220  -17.2860  -25.8090 C.3       1 CW1         0.1486
     19 CBI       -15.1650  -16.0880  -26.3930 C.3       1 CW1         0.1374
     20 OAI       -16.1260  -15.1400  -26.8400 O.3       1 CW1        -0.3840
     21 CBL       -14.1650  -15.5000  -25.3520 C.3       1 CW1         0.1914
     22 OBA       -14.9110  -15.1290  -24.1920 O.3       1 CW1        -0.3277
     23 CBQ       -14.1850  -14.1290  -23.4010 C.3       1 CW1         0.1198
     24 CBF       -14.0940  -14.7420  -21.9990 C.2       1 CW1        -0.0246
     25 CBD       -15.0270  -15.5040  -21.2690 C.2       1 CW1         0.0305
     26 CBG       -16.5220  -15.5440  -21.6900 C.3       1 CW1         0.0406
     27 CAD       -17.2180  -16.9360  -21.6820 C.3       1 CW1        -0.0344
     28 CAC       -17.2630  -14.4710  -20.8490 C.3       1 CW1        -0.0344
     29 CAO       -14.4390  -15.9340  -19.9470 C.3       1 CW1         0.0186
     30 CAP       -12.9310  -15.9080  -20.1970 C.3       1 CW1        -0.0762
     31 CBO       -12.7270  -14.7650  -21.2380 C.3       1 CW1        -0.0494
     32 CAF       -11.5430  -15.0690  -22.1740 C.3       1 CW1        -0.1162
     33 CAM       -12.4140  -13.6010  -20.4880 C.2       1 CW1        -0.1088
     34 CBE       -12.9990  -12.3170  -20.4360 C.2       1 CW1        -0.0410
     35 CBS       -12.6550  -11.1640  -19.4750 C.3       1 CW1         0.0749
     36 CAU       -11.4500  -10.3240  -19.8300 C.3       1 CW1         0.0469
     37 OAW       -10.5490  -10.5170  -18.7150 O.3       1 CW1        -0.3916
     38 CAB        -9.2690   -9.9230  -19.0030 C.3       1 CW1         0.0352
     39 OAK       -12.4710  -11.6990  -18.1410 O.3       1 CW1        -0.4324
     40 CAS       -13.8630  -10.3030  -19.3820 C.3       1 CW1        -0.0497
     41 CAR       -14.6970  -10.5280  -20.6330 C.3       1 CW1        -0.0433
     42 CBP       -14.2870  -11.8770  -21.1960 C.3       1 CW1         0.0040
     43 CBH       -14.1800  -11.6860  -22.7470 C.3       1 CW1         0.0033
     44 CAE       -12.7500  -11.4470  -23.3400 C.3       1 CW1        -0.0570
     45 CBJ       -14.9690  -12.8140  -23.3900 C.3       1 CW1         0.0977
     46 OAJ       -15.3820  -12.4260  -24.7090 O.3       1 CW1        -0.3861
     47 H1        -21.2976  -21.6392  -23.2687 H         1 CW1         0.1697
     48 H2        -17.7184  -19.8409  -22.7591 H         1 CW1         0.0615
     49 H3        -19.1487  -19.0214  -23.4728 H         1 CW1         0.0615
     50 H4        -18.0920  -19.0732  -25.5063 H         1 CW1         0.0320
     51 H5        -18.2033  -20.8655  -25.4599 H         1 CW1         0.0320
     52 H6        -14.5259  -21.3104  -24.9824 H         1 CW1         0.0259
     53 H7        -15.7802  -21.5427  -26.2470 H         1 CW1         0.0259
     54 H8        -16.0264  -22.2216  -24.6023 H         1 CW1         0.0259
     55 H9        -13.2641  -17.4581  -26.5615 H         1 CW1         0.0675
     56 H10       -11.7376  -18.8823  -26.2259 H         1 CW1         0.0587
     57 H11       -12.8497  -19.7770  -25.1353 H         1 CW1         0.0587
     58 H12       -11.7708  -18.7804  -22.1690 H         1 CW1         0.0524
     59 H13       -12.5604  -20.0248  -23.1959 H         1 CW1         0.0524
     60 H14       -13.2621  -18.3750  -23.0845 H         1 CW1         0.0524
     61 H15       -16.7765  -20.2553  -26.9619 H         1 CW1         0.0941
     62 H16       -16.5485  -16.9488  -24.9701 H         1 CW1         0.0680
     63 H17       -14.5828  -16.4269  -27.2626 H         1 CW1         0.0672
     64 H18       -16.6762  -15.5377  -27.5044 H         1 CW1         0.2101
     65 H19       -13.6090  -14.6572  -25.7886 H         1 CW1         0.0940
     66 H20       -13.1800  -13.9551  -23.8129 H         1 CW1         0.0820
     67 H21       -16.5576  -15.2118  -22.7380 H         1 CW1         0.0737
     68 H22       -18.2657  -16.8239  -21.9979 H         1 CW1         0.0289
     69 H23       -17.1843  -17.3570  -20.6663 H         1 CW1         0.0289
     70 H24       -16.6960  -17.6110  -22.3762 H         1 CW1         0.0289
     71 H25       -16.7140  -13.5193  -20.9030 H         1 CW1         0.0289
     72 H26       -17.3211  -14.8018  -19.8015 H         1 CW1         0.0289
     73 H27       -18.2792  -14.3311  -21.2463 H         1 CW1         0.0289
     74 H28       -14.7749  -16.9465  -19.6788 H         1 CW1         0.0690
     75 H29       -14.7163  -15.2317  -19.1471 H         1 CW1         0.0690
     76 H30       -12.5878  -16.8705  -20.6043 H         1 CW1         0.0101
     77 H31       -12.3865  -15.6883  -19.2668 H         1 CW1         0.0101
     78 H32       -11.4250  -14.2466  -22.8949 H         1 CW1         0.0008
     79 H33       -11.7353  -16.0067  -22.7159 H         1 CW1         0.0008
     80 H34       -10.6228  -15.1708  -21.5800 H         1 CW1         0.0008
     81 H35       -11.5582  -13.7216  -19.8254 H         1 CW1         0.0857
     82 H36       -11.7276   -9.2643  -19.9296 H         1 CW1         0.0457
     83 H37       -10.9924  -10.6729  -20.7675 H         1 CW1         0.0457
     84 H38        -8.5932  -10.0761  -18.1487 H         1 CW1         0.0523
     85 H39        -9.3967   -8.8450  -19.1809 H         1 CW1         0.0523
     86 H40        -8.8394  -10.3942  -19.8993 H         1 CW1         0.0523
     87 H41       -11.6864  -12.2344  -18.1211 H         1 CW1         0.1915
     88 H42       -13.5643   -9.2463  -19.3175 H         1 CW1         0.0168
     89 H43       -14.4470  -10.5741  -18.4902 H         1 CW1         0.0168
     90 H44       -14.4984   -9.7345  -21.3684 H         1 CW1         0.0289
     91 H45       -15.7672  -10.5331  -20.3789 H         1 CW1         0.0289
     92 H46       -15.0688  -12.6249  -20.9975 H         1 CW1         0.0528
     93 H47       -14.7270  -10.7592  -22.9745 H         1 CW1         0.0359
     94 H48       -12.8206  -11.3300  -24.4315 H         1 CW1         0.0235
     95 H49       -12.1068  -12.3076  -23.1043 H         1 CW1         0.0235
     96 H50       -12.3185  -10.5355  -22.9007 H         1 CW1         0.0235
     97 H51       -15.8750  -12.9766  -22.7877 H         1 CW1         0.0654
     98 H52       -15.8747  -13.1343  -25.1065 H         1 CW1         0.2102
@<TRIPOS>BOND
     1    1    2 2  
     2    2    3 1  
     3    3    4 1  
     4    4    5 1  
     5    5    6 1  
     6    6    7 1  
     7    6    8 1  
     8    6   16 1  
     9    8    9 1  
    10    9   10 1  
    11    9   15 1  
    12    9   18 1  
    13   10   11 1  
    14   10   12 1  
    15   11   21 1  
    16   12   13 1  
    17   13   14 1  
    18   15   16 1  
    19   16   17 1  
    20   17   18 1  
    21   18   19 1  
    22   19   20 1  
    23   19   21 1  
    24   21   22 1  
    25   22   23 1  
    26   23   24 1  
    27   23   45 1  
    28   24   25 2  
    29   24   31 1  
    30   25   26 1  
    31   25   29 1  
    32   26   27 1  
    33   26   28 1  
    34   29   30 1  
    35   30   31 1  
    36   31   32 1  
    37   31   33 1  
    38   33   34 2  
    39   34   35 1  
    40   34   42 1  
    41   35   36 1  
    42   35   39 1  
    43   35   40 1  
    44   36   37 1  
    45   37   38 1  
    46   40   41 1  
    47   41   42 1  
    48   42   43 1  
    49   43   44 1  
    50   43   45 1  
    51   45   46 1  
    52    2   47 1  
    53    4   48 1  
    54    4   49 1  
    55    5   50 1  
    56    5   51 1  
    57    7   52 1  
    58    7   53 1  
    59    7   54 1  
    60   10   55 1  
    61   12   56 1  
    62   12   57 1  
    63   14   58 1  
    64   14   59 1  
    65   14   60 1  
    66   16   61 1  
    67   18   62 1  
    68   19   63 1  
    69   20   64 1  
    70   21   65 1  
    71   23   66 1  
    72   26   67 1  
    73   27   68 1  
    74   27   69 1  
    75   27   70 1  
    76   28   71 1  
    77   28   72 1  
    78   28   73 1  
    79   29   74 1  
    80   29   75 1  
    81   30   76 1  
    82   30   77 1  
    83   32   78 1  
    84   32   79 1  
    85   32   80 1  
    86   33   81 1  
    87   36   82 1  
    88   36   83 1  
    89   38   84 1  
    90   38   85 1  
    91   38   86 1  
    92   39   87 1  
    93   40   88 1  
    94   40   89 1  
    95   41   90 1  
    96   41   91 1  
    97   42   92 1  
    98   43   93 1  
    99   44   94 1  
   100   44   95 1  
   101   44   96 1  
   102   45   97 1  
   103   46   98 1  
@<TRIPOS>SUBSTRUCTURE
     1 CW1         1

