### 
### Created by X-TOOL on Mon Sep 10 21:13:02 2018
### 

@<TRIPOS>MOLECULE
3e73_ligand
   42    41     1     0     0
SMALL
GAST_HUCK


@<TRIPOS>ATOM
      1 N1        131.6490  259.8990  136.2730 N.4       1 GSH         0.2327
      2 CA1       130.9910  258.6880  136.7230 C.3       1 GSH         0.0286
      3 C1        129.7420  259.0470  137.4720 C.2       1 GSH         0.0844
      4 O11       129.8450  259.7500  138.5000 O.co2     1 GSH        -0.5643
      5 O12       128.6460  258.6290  137.0390 O.co2     1 GSH        -0.5643
      6 CB1       131.9280  257.9110  137.6400 C.3       1 GSH         0.0099
      7 CG1       132.7910  256.9400  136.8430 C.3       1 GSH         0.0233
      8 CD1       133.0850  255.6810  137.6510 C.3       1 GSH         0.0812
      9 OE1       131.8960  254.8900  137.7510 O.3       1 GSH        -0.3531
     10 N2        134.1270  254.9080  137.0030 N.4       1 GSH         0.2576
     11 CA2       133.9010  254.3470  135.6850 C.3       1 GSH         0.0591
     12 C2        134.2660  252.8680  135.6790 C.3       1 GSH         0.1259
     13 O2        135.4910  252.6820  134.9600 O.3       1 GSH        -0.3478
     14 CB2       134.7100  255.1140  134.6460 C.3       1 GSH         0.0415
     15 SG2       134.1400  254.8040  132.9570 S.3       1 GSH        -0.1724
     16 N3        134.4260  252.3910  137.0380 N.4       1 GSH         0.2647
     17 CA3       135.7530  252.1570  137.5730 C.3       1 GSH         0.0221
     18 C3        135.6970  251.5500  138.9550 C.2       1 GSH         0.0813
     19 O31       136.7680  251.2030  139.4980 O.co2     1 GSH        -0.5645
     20 O32       134.5810  251.4170  139.5030 O.co2     1 GSH        -0.5645
     21 H1        132.4884  259.6581  135.7696 H         1 GSH         0.2010
     22 H2        131.8870  260.4682  137.0701 H         1 GSH         0.2010
     23 H3        131.0292  260.4126  135.6663 H         1 GSH         0.2010
     24 H4        130.7312  258.0669  135.8531 H         1 GSH         0.1024
     25 H5        131.3300  257.3452  138.3696 H         1 GSH         0.0341
     26 H6        132.5806  258.6194  138.1713 H         1 GSH         0.0341
     27 H7        133.7405  257.4314  136.5845 H         1 GSH         0.0349
     28 H8        132.2601  256.6600  135.9212 H         1 GSH         0.0349
     29 H9        133.4190  255.9666  138.6594 H         1 GSH         0.1184
     30 H10       131.6099  254.6389  136.8806 H         1 GSH         0.2154
     31 H11       134.3398  254.1360  137.6151 H         1 GSH         0.2047
     32 H12       134.9322  255.5098  136.9288 H         1 GSH         0.2047
     33 H13       132.8335  254.4445  135.4380 H         1 GSH         0.0943
     34 H14       133.4640  252.2983  135.1868 H         1 GSH         0.1243
     35 H15       135.3848  252.9950  134.0694 H         1 GSH         0.2156
     36 H16       135.7640  254.8090  134.7241 H         1 GSH         0.0432
     37 H17       134.6232  256.1903  134.8556 H         1 GSH         0.0432
     38 H18       134.7051  255.3322  132.3106 H         1 GSH         0.1018
     39 H19       133.9291  251.5162  137.0997 H         1 GSH         0.2057
     40 H20       133.9859  253.0705  137.6385 H         1 GSH         0.2057
     41 H21       136.2906  253.1152  137.6257 H         1 GSH         0.0989
     42 H22       136.2918  251.4705  136.9034 H         1 GSH         0.0989
@<TRIPOS>BOND
     1    1    2 1  
     2    2    3 1  
     3    2    6 1  
     4    3    4 ar 
     5    3    5 ar 
     6    6    7 1  
     7    7    8 1  
     8    8    9 1  
     9    8   10 1  
    10   10   11 1  
    11   11   12 1  
    12   11   14 1  
    13   12   13 1  
    14   12   16 1  
    15   14   15 1  
    16   16   17 1  
    17   17   18 1  
    18   18   19 ar 
    19   18   20 ar 
    20    1   21 1  
    21    1   22 1  
    22    1   23 1  
    23    2   24 1  
    24    6   25 1  
    25    6   26 1  
    26    7   27 1  
    27    7   28 1  
    28    8   29 1  
    29    9   30 1  
    30   10   31 1  
    31   10   32 1  
    32   11   33 1  
    33   12   34 1  
    34   13   35 1  
    35   14   36 1  
    36   14   37 1  
    37   15   38 1  
    38   16   39 1  
    39   16   40 1  
    40   17   41 1  
    41   17   42 1  
@<TRIPOS>SUBSTRUCTURE
     1 GSH         1

