### 
### Created by X-TOOL on Mon Sep 10 21:12:57 2018
### 

@<TRIPOS>MOLECULE
3e7a_ligand
  118   119     1     0     0
SMALL
GAST_HUCK


@<TRIPOS>ATOM
      1 C1         12.5800  -38.3560   10.3140 C.2       1 ACB         0.0626
      2 O1         13.4840  -37.6450    9.8250 O.co2     1 ACB        -0.5664
      3 O2         11.4450  -37.8890   10.6140 O.co2     1 ACB        -0.5664
      4 C2         12.8640  -39.8220   10.5660 C.3       1 ACB         0.1128
      5 N2         11.6390  -40.6080   10.6110 N.am      1 ACB        -0.2689
      6 C3         13.6350  -39.9990   11.8830 C.3       1 ACB         0.0805
      7 C          12.7960  -39.5660   13.0550 C.2       1 ACB         0.1849
      8 O          11.7440  -40.1560   13.2920 O.2       1 ACB        -0.3964
      9 C4         14.0760  -41.4530   12.0820 C.3       1 ACB        -0.0416
     10 N          13.2290  -38.5210   13.7630 N.am      1 ARG        -0.2652
     11 CA         12.4640  -37.9020   14.8320 C.3       1 ARG         0.1311
     12 C5         11.9180  -36.5350   14.4770 C.2       1 ARG         0.2042
     13 O3         11.0050  -36.1070   15.1710 O.2       1 ARG        -0.3943
     14 CB         13.3110  -37.8050   16.0990 C.3       1 ARG        -0.0092
     15 CG         13.3980  -39.1790   16.7750 C.3       1 ARG        -0.0156
     16 CD         14.7530  -39.4040   17.4330 C.3       1 ARG         0.0627
     17 NE         15.8100  -39.4250   16.4400 N.pl3     1 ARG        -0.2723
     18 CZ         16.0010  -40.4560   15.6160 C.cat     1 ARG         0.2882
     19 NH1        16.9060  -40.3320   14.6470 N.pl3     1 ARG        -0.2849
     20 NH2        15.2750  -41.5720   15.7480 N.pl3     1 ARG        -0.2849
     21 N3         12.4320  -35.8660   13.4320 N.am      1 1ZN        -0.2677
     22 C21        10.9160  -34.7280   11.8870 C.3       1 1ZN         0.0788
     23 C11         9.6960  -35.3640   12.5130 C.2       1 1ZN         0.1851
     24 O11         8.9490  -34.6540   13.1670 O.2       1 1ZN        -0.3964
     25 C31        11.9810  -34.5490   12.9820 C.3       1 1ZN         0.0878
     26 CM2        10.5350  -33.3900   11.2310 C.3       1 1ZN        -0.0410
     27 C7         15.3160  -31.0640   13.6660 C.2       1 1ZN        -0.0901
     28 C6         14.8440  -31.9680   12.7780 C.2       1 1ZN        -0.0770
     29 C51        13.6930  -32.7860   13.2210 C.2       1 1ZN        -0.0805
     30 C41        13.1460  -33.7320   12.4640 C.2       1 1ZN        -0.0573
     31 C'         15.1040  -28.2980   12.4520 C.3       1 1ZN         0.0092
     32 C9         16.1410  -28.6830   13.5070 C.3       1 1ZN         0.0767
     33 C8         16.4960  -30.1630   13.4000 C.3       1 1ZN         0.0003
     34 C4'        13.9240  -24.1460   12.5950 C.ar      1 1ZN        -0.0687
     35 C3'        14.6640  -24.6250   11.5230 C.ar      1 1ZN        -0.0686
     36 C2'        15.0410  -25.9680   11.4820 C.ar      1 1ZN        -0.0603
     37 C1'        14.7000  -26.8350   12.5180 C.ar      1 1ZN        -0.0404
     38 C6'        13.9630  -26.3440   13.5890 C.ar      1 1ZN        -0.0603
     39 C5'        13.5800  -25.0060   13.6290 C.ar      1 1ZN        -0.0686
     40 O9         17.3420  -27.9350   13.3010 O.3       1 1ZN        -0.3755
     41 CM9        17.5460  -26.9880   14.3570 C.3       1 1ZN         0.0372
     42 CM8        17.5930  -30.5230   14.4040 C.3       1 1ZN        -0.0531
     43 CM6        15.4500  -32.1950   11.4130 C.3       1 1ZN        -0.0441
     44 N1          9.4710  -36.6710   12.3700 N.am      1 FGA        -0.2708
     45 CA1         8.2850  -37.3000   12.9610 C.3       1 FGA         0.0964
     46 CC          7.0000  -36.9960   12.2180 C.2       1 FGA         0.0602
     47 O4          5.9400  -36.8200   12.8710 O.co2     1 FGA        -0.5666
     48 CB1         8.4360  -38.8250   13.1090 C.3       1 FGA        -0.0006
     49 CG1         8.5540  -39.5890   11.7970 C.3       1 FGA         0.0462
     50 CD1         8.7680  -41.0720   12.0660 C.2       1 FGA         0.2021
     51 OE1         8.4940  -41.5040   13.1840 O.2       1 FGA        -0.3866
     52 OXT         7.0280  -36.9290   10.9800 O.co2     1 FGA        -0.5666
     53 N4          9.2320  -41.8690   11.0950 N.am      1 MDH        -0.2271
     54 CM          9.4540  -43.2860   11.3580 C.3       1 MDH         0.0413
     55 CA2         9.4930  -41.3620    9.8620 C.2       1 MDH         0.1243
     56 CE         10.8040  -40.7380    9.5900 C.2       1 MDH         0.2190
     57 O5         11.1110  -40.3040    8.4830 O.2       1 MDH        -0.3895
     58 CB2         8.5360  -41.4430    8.9170 C.2       1 MDH        -0.0644
     59 CG2         7.1960  -42.0890    9.1950 C.3       1 MDH        -0.0492
     60 H1         13.4869  -40.1979    9.7410 H         1 ACB         0.0754
     61 H2         11.4141  -41.0784   11.4643 H         1 ACB         0.1864
     62 H3         14.5333  -39.3655   11.8423 H         1 ACB         0.0577
     63 H4         14.6235  -41.5433   13.0318 H         1 ACB         0.0258
     64 H5         14.7308  -41.7546   11.2512 H         1 ACB         0.0258
     65 H6         13.1903  -42.1048   12.1060 H         1 ACB         0.0258
     66 H7         14.1291  -38.1433   13.5460 H         1 ARG         0.1883
     67 H8         11.6052  -38.5562   15.0428 H         1 ARG         0.0800
     68 H9         12.8497  -37.0861   16.7921 H         1 ARG         0.0313
     69 H10        14.3229  -37.4632   15.8360 H         1 ARG         0.0313
     70 H11        13.2372  -39.9593   16.0165 H         1 ARG         0.0301
     71 H12        12.6139  -39.2475   17.5434 H         1 ARG         0.0301
     72 H13        14.7398  -40.3660   17.9662 H         1 ARG         0.0689
     73 H14        14.9462  -38.5909   18.1483 H         1 ARG         0.0689
     74 H15        16.4378  -38.6116   16.3684 H         1 ARG         0.2642
     75 H16        17.0740  -41.1125   13.9963 H         1 ARG         0.2615
     76 H17        17.4380  -39.4556   14.5483 H         1 ARG         0.2615
     77 H18        14.5800  -41.6478   16.5044 H         1 ARG         0.2615
     78 H19        15.4110  -42.3553   15.0932 H         1 ARG         0.2615
     79 H20        13.1769  -36.2995   12.9248 H         1 1ZN         0.1888
     80 H21        11.3145  -35.3965   11.1097 H         1 1ZN         0.0585
     81 H22        11.5309  -34.0170   13.8331 H         1 1ZN         0.0763
     82 H23         9.7734  -33.5650   10.4568 H         1 1ZN         0.0259
     83 H24        11.4274  -32.9393   10.7722 H         1 1ZN         0.0259
     84 H25        10.1316  -32.7089   11.9948 H         1 1ZN         0.0259
     85 H26        14.8149  -30.9817   14.6294 H         1 1ZN         0.0429
     86 H27        13.2758  -32.6050   14.2105 H         1 1ZN         0.0406
     87 H28        13.5380  -33.9205   11.4656 H         1 1ZN         0.0650
     88 H29        14.2064  -28.9159   12.6018 H         1 1ZN         0.0453
     89 H30        15.5261  -28.4998   11.4565 H         1 1ZN         0.0453
     90 H31        15.7359  -28.4709   14.5074 H         1 1ZN         0.0643
     91 H32        16.8630  -30.3547   12.3809 H         1 1ZN         0.0452
     92 H33        13.6166  -23.1069   12.6247 H         1 1ZN         0.0559
     93 H34        14.9488  -23.9567   10.7185 H         1 1ZN         0.0599
     94 H35        15.6053  -26.3408   10.6349 H         1 1ZN         0.0557
     95 H36        13.6842  -27.0078   14.3994 H         1 1ZN         0.0557
     96 H37        13.0099  -24.6337   14.4725 H         1 1ZN         0.0599
     97 H38        18.4748  -26.4281   14.1730 H         1 1ZN         0.0524
     98 H39        17.6226  -27.5199   15.3168 H         1 1ZN         0.0524
     99 H40        16.6973  -26.2891   14.3918 H         1 1ZN         0.0524
    100 H41        17.8364  -31.5919   14.3135 H         1 1ZN         0.0254
    101 H42        17.2398  -30.3125   15.4242 H         1 1ZN         0.0254
    102 H43        18.4915  -29.9235   14.1961 H         1 1ZN         0.0254
    103 H44        16.2883  -31.4986   11.2636 H         1 1ZN         0.0348
    104 H45        14.6871  -32.0217   10.6397 H         1 1ZN         0.0348
    105 H46        15.8160  -33.2299   11.3418 H         1 1ZN         0.0348
    106 H47        10.1196  -37.2295   11.8529 H         1 FGA         0.1875
    107 H48         8.1811  -36.8810   13.9727 H         1 FGA         0.0727
    108 H49         7.5551  -39.2048   13.6472 H         1 FGA         0.0330
    109 H50         9.3413  -39.0226   13.7018 H         1 FGA         0.0330
    110 H51         9.4077  -39.1973   11.2246 H         1 FGA         0.0508
    111 H52         7.6301  -39.4555   11.2151 H         1 FGA         0.0508
    112 H53         9.1897  -43.5110   12.4018 H         1 MDH         0.0545
    113 H54        10.5131  -43.5291   11.1874 H         1 MDH         0.0545
    114 H55         8.8266  -43.8869   10.6833 H         1 MDH         0.0545
    115 H56         8.7319  -41.0329    7.9274 H         1 MDH         0.0402
    116 H57         6.5730  -42.0452    8.2895 H         1 MDH         0.0344
    117 H58         6.6927  -41.5522   10.0126 H         1 MDH         0.0344
    118 H59         7.3483  -43.1391    9.4848 H         1 MDH         0.0344
@<TRIPOS>BOND
     1    1    2 ar 
     2    1    3 ar 
     3    4    1 1  
     4    4    5 1  
     5    6    4 1  
     6    5   56 am 
     7    7    6 1  
     8    6    9 1  
     9    7    8 2  
    10   10    7 am 
    11   11   10 1  
    12   12   11 1  
    13   11   14 1  
    14   12   13 2  
    15   21   12 am 
    16   14   15 1  
    17   15   16 1  
    18   16   17 1  
    19   17   18 ar 
    20   18   19 ar 
    21   18   20 ar 
    22   25   21 1  
    23   22   23 1  
    24   25   22 1  
    25   22   26 1  
    26   23   24 2  
    27   23   44 am 
    28   30   25 1  
    29   27   28 2  
    30   33   27 1  
    31   28   29 1  
    32   28   43 1  
    33   29   30 2  
    34   31   32 1  
    35   37   31 1  
    36   32   33 1  
    37   32   40 1  
    38   33   42 1  
    39   35   34 ar 
    40   34   39 ar 
    41   36   35 ar 
    42   36   37 ar 
    43   37   38 ar 
    44   38   39 ar 
    45   40   41 1  
    46   44   45 1  
    47   45   46 1  
    48   45   48 1  
    49   46   47 ar 
    50   46   52 ar 
    51   48   49 1  
    52   49   50 1  
    53   50   51 2  
    54   50   53 am 
    55   53   54 1  
    56   53   55 1  
    57   55   56 1  
    58   55   58 2  
    59   56   57 2  
    60   58   59 1  
    61    4   60 1  
    62    5   61 1  
    63    6   62 1  
    64    9   63 1  
    65    9   64 1  
    66    9   65 1  
    67   10   66 1  
    68   11   67 1  
    69   14   68 1  
    70   14   69 1  
    71   15   70 1  
    72   15   71 1  
    73   16   72 1  
    74   16   73 1  
    75   17   74 1  
    76   19   75 1  
    77   19   76 1  
    78   20   77 1  
    79   20   78 1  
    80   21   79 1  
    81   22   80 1  
    82   25   81 1  
    83   26   82 1  
    84   26   83 1  
    85   26   84 1  
    86   27   85 1  
    87   29   86 1  
    88   30   87 1  
    89   31   88 1  
    90   31   89 1  
    91   32   90 1  
    92   33   91 1  
    93   34   92 1  
    94   35   93 1  
    95   36   94 1  
    96   38   95 1  
    97   39   96 1  
    98   41   97 1  
    99   41   98 1  
   100   41   99 1  
   101   42  100 1  
   102   42  101 1  
   103   42  102 1  
   104   43  103 1  
   105   43  104 1  
   106   43  105 1  
   107   44  106 1  
   108   45  107 1  
   109   48  108 1  
   110   48  109 1  
   111   49  110 1  
   112   49  111 1  
   113   54  112 1  
   114   54  113 1  
   115   54  114 1  
   116   58  115 1  
   117   59  116 1  
   118   59  117 1  
   119   59  118 1  
@<TRIPOS>SUBSTRUCTURE
     1 ACB         1

