### 
### Created by X-TOOL on Mon Sep 10 21:12:58 2018
### 

@<TRIPOS>MOLECULE
3e7o_ligand
   42    46     1     0     0
SMALL
GAST_HUCK


@<TRIPOS>ATOM
      1 C4        -27.9820  -32.4050   24.3930 C.ar      1 35F        -0.0440
      2 C5        -28.6620  -31.8940   23.2910 C.ar      1 35F         0.0239
      3 C6        -28.1140  -30.8840   22.5090 C.ar      1 35F         0.0943
      4 C10       -30.9050  -33.2190   23.2570 C.ar      1 35F        -0.0224
      5 C13       -32.9450  -34.9080   24.1430 C.ar      1 35F        -0.0419
      6 C15       -30.5890  -34.3500   24.0150 C.ar      1 35F        -0.0698
      7 C17       -25.9470  -32.3870   25.8510 C.2       1 35F         0.1559
      8 C20       -25.3510  -33.5340   27.6250 C.2       1 35F         0.0589
      9 C22       -35.6190  -33.5560   23.8200 C.2       1 35F         0.2557
     10 C24       -36.7680  -33.0560   23.3660 C.2       1 35F         0.1903
     11 C26       -38.1870  -32.0340   22.1410 C.2       1 35F        -0.0557
     12 O23       -35.6250  -34.1210   24.9110 O.2       1 35F        -0.3785
     13 O28       -38.0510  -33.2050   23.9920 O.3       1 35F        -0.2500
     14 C27       -38.9110  -32.4730   23.0820 C.2       1 35F         0.0866
     15 C25       -36.9580  -32.3400   22.2520 C.2       1 35F        -0.0431
     16 N16       -34.5290  -33.4250   23.0470 N.am      1 35F        -0.2336
     17 C12       -33.2600  -33.7670   23.3990 C.ar      1 35F         0.0648
     18 C11       -32.2360  -32.9370   22.9610 C.ar      1 35F        -0.0349
     19 C14       -31.6110  -35.1930   24.4530 C.ar      1 35F        -0.0754
     20 C9        -29.9000  -32.2260   22.7580 C.2       1 35F         0.0637
     21 N8        -30.0920  -31.4250   21.6840 N.2       1 35F        -0.1953
     22 N7        -28.9820  -30.5980   21.5310 N.pl3     1 35F        -0.2089
     23 C3        -26.8580  -30.3710   22.8140 C.ar      1 35F        -0.0299
     24 C2        -26.1710  -30.8730   23.9100 C.ar      1 35F        -0.0526
     25 C1        -26.7300  -31.8810   24.6920 C.ar      1 35F         0.0271
     26 N21       -26.3270  -33.3640   26.7050 N.2       1 35F        -0.2892
     27 N19       -24.3410  -32.6730   27.3470 N.2       1 35F        -0.1954
     28 N18       -24.7220  -31.9390   26.2120 N.pl3     1 35F        -0.1921
     29 H1        -28.4170  -33.1899   25.0011 H         1 35F         0.0650
     30 H2        -33.7337  -35.5712   24.4793 H         1 35F         0.0499
     31 H3        -29.5566  -34.5708   24.2610 H         1 35F         0.0489
     32 H4        -25.3724  -34.2435   28.4509 H         1 35F         0.0866
     33 H5        -38.5809  -31.4478   21.3121 H         1 35F         0.0364
     34 H6        -39.9849  -32.3274   23.1889 H         1 35F         0.1039
     35 H7        -36.1771  -32.0611   21.5461 H         1 35F         0.0434
     36 H8        -34.6615  -33.0426   22.1325 H         1 35F         0.2245
     37 H9        -32.4771  -32.0549   22.3789 H         1 35F         0.0494
     38 H10       -31.3698  -36.0739   25.0369 H         1 35F         0.0576
     39 H11       -28.8517  -29.8901   20.7942 H         1 35F         0.2488
     40 H12       -26.4213  -29.5890   22.2034 H         1 35F         0.0573
     41 H13       -25.1928  -30.4781   24.1593 H         1 35F         0.0618
     42 H14       -24.1749  -31.2021   25.7446 H         1 35F         0.2581
@<TRIPOS>BOND
     1    2    1 ar 
     2    1   25 ar 
     3    2    3 ar 
     4   20    2 1  
     5    3   22 1  
     6    3   23 ar 
     7    6    4 ar 
     8    4   18 ar 
     9    4   20 1  
    10   17    5 ar 
    11    5   19 ar 
    12   19    6 ar 
    13   25    7 1  
    14    7   26 2  
    15    7   28 1  
    16   26    8 1  
    17    8   27 2  
    18    9   10 1  
    19    9   12 2  
    20   16    9 am 
    21   10   13 1  
    22   10   15 2  
    23   11   14 2  
    24   15   11 1  
    25   13   14 1  
    26   16   17 1  
    27   17   18 ar 
    28   20   21 2  
    29   21   22 1  
    30   23   24 ar 
    31   24   25 ar 
    32   27   28 1  
    33    1   29 1  
    34    5   30 1  
    35    6   31 1  
    36    8   32 1  
    37   11   33 1  
    38   14   34 1  
    39   15   35 1  
    40   16   36 1  
    41   18   37 1  
    42   19   38 1  
    43   22   39 1  
    44   23   40 1  
    45   24   41 1  
    46   28   42 1  
@<TRIPOS>SUBSTRUCTURE
     1 35F         1

