### 
### Created by X-TOOL on Mon Sep 10 21:12:57 2018
### 

@<TRIPOS>MOLECULE
3e81_ligand
   39    39     1     0     0
SMALL
GAST_HUCK


@<TRIPOS>ATOM
      1 C1        -28.5000   20.2250   -3.4890 C.2       1 SLB         0.1039
      2 C2        -29.2710   21.0650   -2.4920 C.3       1 SLB         0.2179
      3 C3        -28.9460   20.6030   -1.0640 C.3       1 SLB         0.0351
      4 C4        -29.9160   21.2590   -0.0580 C.3       1 SLB         0.0850
      5 C5        -31.3940   21.2690   -0.5250 C.3       1 SLB         0.0964
      6 C6        -31.4650   21.7450   -1.9850 C.3       1 SLB         0.1143
      7 C7        -32.8760   21.7710   -2.6160 C.3       1 SLB         0.1114
      8 C8        -32.7960   22.6730   -3.8930 C.3       1 SLB         0.1065
      9 C9        -33.9880   22.5670   -4.8770 C.3       1 SLB         0.0727
     10 C10       -33.2390   21.8870    1.0960 C.2       1 SLB         0.1733
     11 C11       -34.0140   22.9660    1.8630 C.3       1 SLB         0.0257
     12 N5        -32.1020   22.2720    0.2700 N.am      1 SLB        -0.2790
     13 O1A       -29.0760   19.0090   -3.8510 O.co2     1 SLB        -0.5426
     14 O1B       -27.6320   20.7100   -4.1410 O.co2     1 SLB        -0.5426
     15 O2        -28.8850   22.4240   -2.6390 O.3       1 SLB        -0.3631
     16 O4        -29.7670   20.6190    1.1900 O.3       1 SLB        -0.3893
     17 O6        -30.6480   20.8910   -2.7920 O.3       1 SLB        -0.3385
     18 O7        -33.2090   20.4270   -2.9010 O.3       1 SLB        -0.3865
     19 O8        -32.6600   24.0130   -3.5060 O.3       1 SLB        -0.3869
     20 O9        -34.0480   23.5830   -5.8810 O.3       1 SLB        -0.3924
     21 O10       -33.4970   20.7360    1.2450 O.2       1 SLB        -0.3974
     22 H1        -27.9142   20.8914   -0.8147 H         1 SLB         0.0336
     23 H2        -29.0456   19.5092   -1.0044 H         1 SLB         0.0336
     24 H3        -29.6107   22.3091    0.0604 H         1 SLB         0.0618
     25 H4        -31.8468   20.2730   -0.4113 H         1 SLB         0.0608
     26 H5        -31.0625   22.7681   -2.0196 H         1 SLB         0.0646
     27 H6        -33.6111   22.1930   -1.9149 H         1 SLB         0.0647
     28 H7        -31.8918   22.3736   -4.4432 H         1 SLB         0.0643
     29 H8        -34.9173   22.6147   -4.2904 H         1 SLB         0.0584
     30 H9        -33.9238   21.5928   -5.3838 H         1 SLB         0.0584
     31 H10       -34.8327   22.4971    2.4286 H         1 SLB         0.0467
     32 H11       -34.4301   23.6943    1.1514 H         1 SLB         0.0467
     33 H12       -33.3350   23.4802    2.5591 H         1 SLB         0.0467
     34 H13       -31.8044   23.2264    0.2466 H         1 SLB         0.1856
     35 H14       -29.0393   22.7008   -3.5346 H         1 SLB         0.2112
     36 H15       -30.0653   19.7197    1.1210 H         1 SLB         0.2099
     37 H16       -32.5505   20.0537   -3.4750 H         1 SLB         0.2100
     38 H17       -31.9318   24.0945   -2.9014 H         1 SLB         0.2100
     39 H18       -33.2592   23.5513   -6.4096 H         1 SLB         0.2095
@<TRIPOS>BOND
     1    2    1 1  
     2    1   13 ar 
     3    1   14 ar 
     4    3    2 1  
     5    2   15 1  
     6   17    2 1  
     7    4    3 1  
     8    5    4 1  
     9    4   16 1  
    10    5    6 1  
    11   12    5 1  
    12    6    7 1  
    13    6   17 1  
    14    7    8 1  
    15    7   18 1  
    16    8    9 1  
    17    8   19 1  
    18    9   20 1  
    19   10   11 1  
    20   10   12 am 
    21   10   21 2  
    22    3   22 1  
    23    3   23 1  
    24    4   24 1  
    25    5   25 1  
    26    6   26 1  
    27    7   27 1  
    28    8   28 1  
    29    9   29 1  
    30    9   30 1  
    31   11   31 1  
    32   11   32 1  
    33   11   33 1  
    34   12   34 1  
    35   15   35 1  
    36   16   36 1  
    37   18   37 1  
    38   19   38 1  
    39   20   39 1  
@<TRIPOS>SUBSTRUCTURE
     1 SLB         1

