### 
### Created by X-TOOL on Fri Sep 26 17:34:44 2014
### 

@<TRIPOS>MOLECULE
3e85_ligand
   28    29     1     0     0
SMALL
GAST_HUCK


@<TRIPOS>ATOM
      1 N7         20.0150   12.6880   60.7570 N.am      1 BSU        -0.2143
      2 C8         20.6020   11.5100   60.8660 C.2       1 BSU         0.3171
      3 N9         19.9630   10.8630   61.8650 N.am      1 BSU        -0.2143
      4 O11        21.5090   11.0880   60.1930 O.2       1 BSU        -0.3802
      5 C5         20.1010   13.8410   59.9490 C.ar      1 BSU         0.0671
      6 C4         19.5200   15.0000   60.3920 C.ar      1 BSU        -0.0415
      7 C3         19.5260   16.1530   59.6680 C.ar      1 BSU        -0.0757
      8 C2         20.1360   16.1310   58.4610 C.ar      1 BSU        -0.0773
      9 C1         20.7300   14.9600   58.0100 C.ar      1 BSU        -0.0757
     10 C6         20.6930   13.7900   58.7530 C.ar      1 BSU        -0.0415
     11 C10        20.0470    9.6360   62.5500 C.ar      1 BSU         0.0671
     12 C16        19.3300    9.6520   63.7120 C.ar      1 BSU        -0.0415
     13 C15        19.3030    8.5610   64.5240 C.ar      1 BSU        -0.0757
     14 C14        19.9860    7.4360   64.1890 C.ar      1 BSU        -0.0773
     15 C13        20.6990    7.4070   63.0340 C.ar      1 BSU        -0.0757
     16 C12        20.7440    8.5250   62.2070 C.ar      1 BSU        -0.0415
     17 H1         19.3012   12.7933   61.4494 H         1 BSU         0.2262
     18 H2         19.2111   11.4172   62.2220 H         1 BSU         0.2262
     19 H3         19.0344   14.9989   61.3611 H         1 BSU         0.0501
     20 H4         19.0590   17.0556   60.0451 H         1 BSU         0.0577
     21 H5         20.1610   17.0246   57.8479 H         1 BSU         0.0486
     22 H6         21.2362   14.9605   57.0514 H         1 BSU         0.0577
     23 H7         21.1274   12.8703   58.3780 H         1 BSU         0.0501
     24 H8         18.7773   10.5422   63.9899 H         1 BSU         0.0501
     25 H9         18.7322    8.5898   65.4451 H         1 BSU         0.0577
     26 H10        19.9621    6.5684   64.8384 H         1 BSU         0.0486
     27 H11        21.2362    6.5079   62.7546 H         1 BSU         0.0577
     28 H12        21.3314    8.5078   61.2961 H         1 BSU         0.0501
@<TRIPOS>BOND
     1    1    2 am 
     2    1    5 1  
     3    2    3 am 
     4    2    4 2  
     5    3   11 1  
     6    5    6 ar 
     7    5   10 ar 
     8    6    7 ar 
     9    7    8 ar 
    10    8    9 ar 
    11    9   10 ar 
    12   11   12 ar 
    13   11   16 ar 
    14   12   13 ar 
    15   13   14 ar 
    16   14   15 ar 
    17   15   16 ar 
    18    1   17 1  
    19    3   18 1  
    20    6   19 1  
    21    7   20 1  
    22    8   21 1  
    23    9   22 1  
    24   10   23 1  
    25   12   24 1  
    26   13   25 1  
    27   14   26 1  
    28   15   27 1  
    29   16   28 1  
@<TRIPOS>SUBSTRUCTURE
     1 BSU         1

