### 
### Created by X-TOOL on Mon Sep 10 21:13:01 2018
### 

@<TRIPOS>MOLECULE
3e8n_ligand
   51    53     1     0     0
SMALL
GAST_HUCK


@<TRIPOS>ATOM
      1 C1         34.3400   28.4550   42.8530 C.ar      1 VRA         0.1545
      2 C2         33.9640   27.6190   41.7010 C.ar      1 VRA         0.0906
      3 C3         35.0170   26.7800   41.0330 C.ar      1 VRA        -0.0396
      4 C4         36.3140   26.7470   41.4720 C.ar      1 VRA        -0.0661
      5 C5         36.6820   27.5860   42.6230 C.ar      1 VRA        -0.0057
      6 C6         35.7010   28.4170   43.3120 C.ar      1 VRA        -0.0283
      7 N7         32.5690   27.7130   41.2860 N.pl3     1 VRA        -0.2837
      8 C8         31.9180   26.8200   40.3340 C.ar      1 VRA         0.1012
      9 C9         31.1680   27.4140   39.2350 C.ar      1 VRA         0.1092
     10 C10        30.5010   26.5550   38.2800 C.ar      1 VRA         0.0934
     11 C11        30.5930   25.1100   38.4110 C.ar      1 VRA        -0.0279
     12 C12        31.3470   24.5320   39.5030 C.ar      1 VRA         0.1293
     13 C13        31.9980   25.3660   40.4520 C.ar      1 VRA         0.1594
     14 I14        38.7220   27.5710   43.3100 I         1 VRA        -0.0614
     15 F15        33.4180   29.2410   43.4820 F         1 VRA        -0.1912
     16 F16        32.7030   24.7620   41.4790 F         1 VRA        -0.2059
     17 F17        31.4410   23.1710   39.6250 F         1 VRA        -0.2041
     18 N18        31.0760   28.8420   39.0550 N.am      1 VRA        -0.2008
     19 S19        30.1930   29.8390   39.9810 S.o2      1 VRA         0.0612
     20 O20        30.6300   31.3320   39.6600 O.2       1 VRA        -0.1503
     21 O21        30.4530   29.5450   41.4980 O.2       1 VRA        -0.1503
     22 C22        28.4240   29.6110   39.6080 C.3       1 VRA         0.1133
     23 C23        27.7540   28.4420   40.3080 C.3       1 VRA        -0.0235
     24 C24        27.4760   29.8540   40.7580 C.3       1 VRA        -0.0235
     25 C25        27.9190   29.9540   38.1600 C.3       1 VRA         0.0026
     26 C26        28.1580   31.4640   37.8000 C.3       1 VRA         0.0803
     27 C27        27.6620   31.7600   36.3580 C.3       1 VRA         0.0702
     28 O28        28.5810   32.6570   35.6930 O.3       1 VRA        -0.3925
     29 O29        27.4440   32.3130   38.7240 O.3       1 VRA        -0.3895
     30 O30        29.7570   27.1530   37.2030 O.3       1 VRA        -0.3359
     31 C31        28.5150   26.4590   36.9720 C.3       1 VRA         0.0543
     32 H          34.7387   26.1767   40.1689 H         1 VRA         0.0517
     33 H          37.0544   26.1154   40.9812 H         1 VRA         0.0577
     34 H          36.0008   29.0099   44.1761 H         1 VRA         0.0595
     35 H          32.0058   28.4600   41.6924 H         1 VRA         0.2020
     36 H          30.0952   24.4633   37.6884 H         1 VRA         0.0380
     37 H          31.6058   29.2560   38.2880 H         1 VRA         0.2060
     38 H          28.0300   27.4827   40.7457 H         1 VRA         0.0288
     39 H          27.1980   27.5414   40.0475 H         1 VRA         0.0288
     40 H          26.6139   30.4817   40.9837 H         1 VRA         0.0288
     41 H          27.4528   30.4225   41.6877 H         1 VRA         0.0288
     42 H          26.8479   29.7570   38.1156 H         1 VRA         0.0313
     43 H          28.4740   29.3409   37.4499 H         1 VRA         0.0313
     44 H          29.2271   31.6663   37.8654 H         1 VRA         0.0617
     45 H          26.6778   32.2259   36.4060 H         1 VRA         0.0583
     46 H          27.6055   30.8257   35.7994 H         1 VRA         0.0583
     47 H          29.4497   32.2504   35.6515 H         1 VRA         0.2095
     48 H          27.7454   32.1357   39.6180 H         1 VRA         0.2099
     49 H          28.7230   25.4205   36.7144 H         1 VRA         0.0569
     50 H          27.9063   26.4956   37.8755 H         1 VRA         0.0569
     51 H          27.9797   26.9379   36.1521 H         1 VRA         0.0569
@<TRIPOS>BOND
     1    1    2 ar 
     2    1    6 ar 
     3    1   15 1  
     4    2    3 ar 
     5    2    7 1  
     6    3    4 ar 
     7    4    5 ar 
     8    5    6 ar 
     9    5   14 1  
    10    7    8 1  
    11    8    9 ar 
    12    8   13 ar 
    13    9   10 ar 
    14    9   18 1  
    15   10   11 ar 
    16   10   30 1  
    17   11   12 ar 
    18   12   13 ar 
    19   12   17 1  
    20   13   16 1  
    21   18   19 am 
    22   19   20 2  
    23   19   21 2  
    24   19   22 1  
    25   22   23 1  
    26   22   24 1  
    27   22   25 1  
    28   23   24 1  
    29   25   26 1  
    30   26   27 1  
    31   26   29 1  
    32   27   28 1  
    33   30   31 1  
    34    3   32 1  
    35    4   33 1  
    36    6   34 1  
    37    7   35 1  
    38   11   36 1  
    39   18   37 1  
    40   23   38 1  
    41   23   39 1  
    42   24   40 1  
    43   24   41 1  
    44   25   42 1  
    45   25   43 1  
    46   26   44 1  
    47   27   45 1  
    48   27   46 1  
    49   28   47 1  
    50   29   48 1  
    51   31   49 1  
    52   31   50 1  
    53   31   51 1  
@<TRIPOS>SUBSTRUCTURE
     1 VRA         1

