### 
### Created by X-TOOL on Mon Sep 10 21:12:57 2018
### 

@<TRIPOS>MOLECULE
3e8r_ligand
   60    64     1     0     0
SMALL
GAST_HUCK


@<TRIPOS>ATOM
      1 C7          8.1340    8.2190   28.6130 C.ar      1 615         0.0875
      2 C27         5.0770    3.3170   31.4650 C.ar      1 615        -0.0582
      3 C17        13.4820    5.7740   30.2850 C.ar      1 615        -0.0577
      4 C1          4.9560    7.3490   24.4140 C.2       1 615         0.2037
      5 C8          9.0120    7.4780   27.7950 C.ar      1 615        -0.0393
      6 N2          5.7360   11.6830   24.3030 N.am      1 615        -0.1641
      7 O2          7.6880   10.5900   23.9850 O.2       1 615        -0.3968
      8 O1          3.7850    7.6780   24.5340 O.2       1 615        -0.3442
      9 C3          6.4560   10.6400   23.8480 C.2       1 615         0.2014
     10 C28         6.2520    4.0810   31.3460 C.ar      1 615        -0.0494
     11 C26         5.1380    1.9240   31.3310 C.ar      1 615        -0.0591
     12 N1          9.9050    3.6390   30.8550 N.ar      1 615        -0.3054
     13 C2          7.3150    7.6820   24.3630 C.3       1 615        -0.0094
     14 O3          8.5130    8.4480   29.9020 O.3       1 615        -0.3063
     15 C4          7.5830    7.8550   25.8490 C.ar      1 615        -0.0541
     16 C5          6.6790    8.5770   26.6570 C.ar      1 615        -0.0689
     17 C6          6.9650    8.7670   28.0320 C.ar      1 615        -0.0393
     18 C9          8.7430    7.2910   26.4290 C.ar      1 615        -0.0689
     19 C10         9.5920    7.9320   30.6490 C.3       1 615         0.1128
     20 C11         9.7830    6.4370   30.6740 C.ar      1 615         0.0165
     21 C12         8.7160    4.2800   30.9370 C.ar      1 615         0.0392
     22 C13         8.6270    5.6740   30.8560 C.ar      1 615        -0.0235
     23 C14        11.0430    4.3500   30.6770 C.ar      1 615         0.0360
     24 C15        11.0380    5.7740   30.5760 C.ar      1 615         0.0137
     25 C16        12.2590    6.4740   30.3830 C.ar      1 615        -0.0473
     26 C18        13.4900    4.3720   30.4020 C.ar      1 615        -0.0582
     27 C19        12.2820    3.6720   30.5950 C.ar      1 615        -0.0433
     28 C20         7.5000    3.4580   31.0980 C.ar      1 615        -0.0007
     29 C21         5.7290    9.6180   23.0260 C.3       1 615         0.0644
     30 C22         6.0180    8.2850   23.8760 C.3       1 615         0.0805
     31 C23         5.5130    8.2540   22.4920 C.3       1 615        -0.0172
     32 O4          6.4780   12.6700   25.0080 O.3       1 615        -0.2717
     33 N3          5.3990    6.1410   24.7730 N.am      1 615        -0.2994
     34 C24         7.5380    2.0500   30.9830 C.ar      1 615        -0.0494
     35 C25         6.3650    1.2870   31.1050 C.ar      1 615        -0.0582
     36 H1          4.1284    3.8041   31.6596 H         1 615         0.0625
     37 H2         14.4079    6.3133   30.1208 H         1 615         0.0622
     38 H3          9.9077    7.0464   28.2268 H         1 615         0.0525
     39 H4          4.7498   11.7581   24.1556 H         1 615         0.2216
     40 H5          6.2020    5.1593   31.4452 H         1 615         0.0649
     41 H6          4.2305    1.3355   31.4026 H         1 615         0.0640
     42 H7          7.2948    6.6045   24.1426 H         1 615         0.0399
     43 H8          8.1402    8.1541   23.8097 H         1 615         0.0399
     44 H9          5.7705    8.9842   26.2282 H         1 615         0.0530
     45 H10         6.2798    9.3393   28.6468 H         1 615         0.0525
     46 H11         9.4265    6.7128   25.8177 H         1 615         0.0530
     47 H12         9.4573    8.2622   31.6896 H         1 615         0.0822
     48 H13        10.5133    8.3729   30.2407 H         1 615         0.0822
     49 H14         7.6620    6.1615   30.9344 H         1 615         0.0607
     50 H15        12.2521    7.5555   30.3102 H         1 615         0.0656
     51 H16        14.4266    3.8294   30.3436 H         1 615         0.0648
     52 H17        12.3027    2.5917   30.6824 H         1 615         0.0624
     53 H18         4.7407   10.0967   22.9626 H         1 615         0.0529
     54 H19         6.1719    7.8842   21.6925 H         1 615         0.0286
     55 H20         4.4844    7.9106   22.3077 H         1 615         0.0286
     56 H21         5.8928   13.3632   25.2898 H         1 615         0.2490
     57 H22         6.3650    5.9086   24.6595 H         1 615         0.1821
     58 H23         4.7647    5.4691   25.1553 H         1 615         0.1821
     59 H24         8.4835    1.5530   30.7985 H         1 615         0.0649
     60 H25         6.4092    0.2069   31.0244 H         1 615         0.0625
@<TRIPOS>BOND
     1    5    1 ar 
     2    1   14 1  
     3   17    1 ar 
     4   10    2 ar 
     5    2   11 ar 
     6   25    3 ar 
     7    3   26 ar 
     8    4    8 2  
     9   30    4 1  
    10    4   33 am 
    11   18    5 ar 
    12    9    6 am 
    13    6   32 1  
    14    9    7 2  
    15   29    9 1  
    16   28   10 ar 
    17   11   35 ar 
    18   21   12 ar 
    19   23   12 ar 
    20   13   15 1  
    21   30   13 1  
    22   14   19 1  
    23   15   16 ar 
    24   15   18 ar 
    25   16   17 ar 
    26   19   20 1  
    27   20   22 ar 
    28   20   24 ar 
    29   22   21 ar 
    30   21   28 1  
    31   24   23 ar 
    32   23   27 ar 
    33   24   25 ar 
    34   27   26 ar 
    35   28   34 ar 
    36   29   30 1  
    37   29   31 1  
    38   30   31 1  
    39   34   35 ar 
    40    2   36 1  
    41    3   37 1  
    42    5   38 1  
    43    6   39 1  
    44   10   40 1  
    45   11   41 1  
    46   13   42 1  
    47   13   43 1  
    48   16   44 1  
    49   17   45 1  
    50   18   46 1  
    51   19   47 1  
    52   19   48 1  
    53   22   49 1  
    54   25   50 1  
    55   26   51 1  
    56   27   52 1  
    57   29   53 1  
    58   31   54 1  
    59   31   55 1  
    60   32   56 1  
    61   33   57 1  
    62   33   58 1  
    63   34   59 1  
    64   35   60 1  
@<TRIPOS>SUBSTRUCTURE
     1 615         1

