### 
### Created by X-TOOL on Mon Sep 10 21:13:00 2018
### 

@<TRIPOS>MOLECULE
3e90_ligand
   90    91     1     0     0
SMALL
GAST_HUCK


@<TRIPOS>ATOM
      1 CAW        16.9910   58.7350   -0.5730 C.3       1 NKK         0.0671
      2 CBJ        15.1660   51.4250    0.1540 C.ar      1 NKK        -0.0329
      3 CBI        15.4690   50.5030   -0.8410 C.ar      1 NKK        -0.0116
      4 CBL        15.0810   50.7400   -2.1550 C.ar      1 NKK        -0.0517
      5 CBM        15.3920   49.8190   -3.1490 C.ar      1 NKK        -0.0596
      6 CBO        16.0880   48.6570   -2.8340 C.ar      1 NKK        -0.0598
      7 CBN        16.4790   48.4200   -1.5210 C.ar      1 NKK        -0.0524
      8 CBH        16.1710   49.3440   -0.5280 C.ar      1 NKK        -0.0152
      9 CBG        16.5720   49.1130    0.7830 C.ar      1 NKK        -0.0509
     10 CBF        16.2720   50.0370    1.7770 C.ar      1 NKK        -0.0432
     11 CBK        15.5660   51.1940    1.4660 C.ar      1 NKK         0.0504
     12 CAA        15.2060   52.1840    2.5740 C.2       1 NKK         0.2069
     13 OAB        14.2570   52.9580    2.4540 O.2       1 NKK        -0.3848
     14 N          15.9570   52.0940    3.6690 N.am      1 NKK        -0.2650
     15 CA         15.7630   52.9680    4.8340 C.3       1 NKK         0.1305
     16 CB         16.4950   52.3530    6.0280 C.3       1 NKK        -0.0123
     17 CG         15.8570   50.9950    6.3250 C.3       1 NKK        -0.0440
     18 CD         16.6260   50.1950    7.3780 C.3       1 NKK        -0.0124
     19 CE         16.6660   50.9100    8.7290 C.3       1 NKK        -0.0354
     20 NZ         17.3890   50.0580    9.6840 N.4       1 NKK         0.2185
     21 C          16.2880   54.3670    4.5010 C.2       1 NKK         0.2039
     22 O          15.9460   55.3560    5.1470 O.2       1 NKK        -0.3944
     23 NAL        17.1210   54.4160    3.4670 N.am      1 NKK        -0.2637
     24 CAM        17.6880   55.6800    2.9750 C.3       1 NKK         0.1308
     25 CAP        19.2180   55.6610    3.0160 C.3       1 NKK        -0.0122
     26 CAQ        19.7770   55.6920    4.4410 C.3       1 NKK        -0.0440
     27 CAR        21.3060   55.7440    4.4180 C.3       1 NKK        -0.0124
     28 CAS        21.8950   55.7890    5.8290 C.3       1 NKK        -0.0354
     29 NAT        21.4030   56.9860    6.5240 N.4       1 NKK         0.2185
     30 CAN        17.2370   55.8540    1.5250 C.2       1 NKK         0.2020
     31 OAO        17.2280   54.9030    0.7460 O.2       1 NKK        -0.3945
     32 NAU        16.8380   57.0820    1.2050 N.am      1 NKK        -0.2798
     33 CAV        16.3850   57.3950   -0.1550 C.3       1 NKK         0.0652
     34 OAX        16.5940   59.0040   -1.9190 O.3       1 NKK        -0.3927
     35 CAY        14.8550   57.4420   -0.1720 C.3       1 NKK        -0.0246
     36 CAZ        14.3260   56.1390    0.4320 C.3       1 NKK        -0.0176
     37 CBA        12.8010   56.0220    0.4560 C.3       1 NKK         0.0626
     38 NBB        12.4850   54.6830    0.9750 N.pl3     1 NKK        -0.2723
     39 CBC        11.2300   54.2510    1.0370 C.cat     1 NKK         0.2882
     40 NBE        10.9830   53.0230    1.4860 N.pl3     1 NKK        -0.2849
     41 NBD        10.2380   55.0370    0.6310 N.pl3     1 NKK        -0.2849
     42 H1         18.0880   58.6829   -0.5117 H         1 NKK         0.0580
     43 H2         16.6242   59.5325    0.0898 H         1 NKK         0.0580
     44 H3         14.6166   52.3262   -0.0931 H         1 NKK         0.0695
     45 H4         14.5359   51.6431   -2.4045 H         1 NKK         0.0636
     46 H5         15.0909   50.0074   -4.1732 H         1 NKK         0.0622
     47 H6         16.3250   47.9381   -3.6099 H         1 NKK         0.0630
     48 H7         17.0232   47.5163   -1.2715 H         1 NKK         0.0626
     49 H8         17.1195   48.2107    1.0304 H         1 NKK         0.0627
     50 H9         16.5892   49.8552    2.7975 H         1 NKK         0.0652
     51 H10        16.6812   51.4051    3.7001 H         1 NKK         0.1876
     52 H11        14.6905   53.0369    5.0685 H         1 NKK         0.0799
     53 H12        16.3981   53.0106    6.9044 H         1 NKK         0.0312
     54 H13        17.5596   52.2201    5.7852 H         1 NKK         0.0312
     55 H14        15.8256   50.4105    5.3937 H         1 NKK         0.0269
     56 H15        14.8322   51.1604    6.6889 H         1 NKK         0.0269
     57 H16        17.6572   50.0447    7.0258 H         1 NKK         0.0317
     58 H17        16.1370   49.2183    7.5082 H         1 NKK         0.0317
     59 H18        15.6408   51.0833    9.0881 H         1 NKK         0.0813
     60 H19        17.1855   51.8738    8.6239 H         1 NKK         0.0813
     61 H20        17.4248   50.5150   10.5817 H         1 NKK         0.1994
     62 H21        18.3268   49.8996    9.3500 H         1 NKK         0.1994
     63 H22        16.9112   49.1751    9.7753 H         1 NKK         0.1994
     64 H23        17.3709   53.5636    3.0076 H         1 NKK         0.1883
     65 H24        17.3175   56.5140    3.5892 H         1 NKK         0.0800
     66 H25        19.5945   56.5400    2.4723 H         1 NKK         0.0312
     67 H26        19.5709   54.7445    2.5206 H         1 NKK         0.0312
     68 H27        19.4540   54.7867    4.9759 H         1 NKK         0.0269
     69 H28        19.3927   56.5819    4.9609 H         1 NKK         0.0269
     70 H29        21.6233   56.6441    3.8711 H         1 NKK         0.0317
     71 H30        21.6848   54.8491    3.9026 H         1 NKK         0.0317
     72 H31        22.9927   55.8252    5.7677 H         1 NKK         0.0813
     73 H32        21.5881   54.8901    6.3839 H         1 NKK         0.0813
     74 H33        21.7901   57.0174    7.4542 H         1 NKK         0.1994
     75 H34        20.3971   56.9526    6.5797 H         1 NKK         0.1994
     76 H35        21.6842   57.8094    6.0151 H         1 NKK         0.1994
     77 H36        16.8469   57.8009    1.9001 H         1 NKK         0.1855
     78 H37        16.7277   56.6125   -0.8480 H         1 NKK         0.0579
     79 H38        16.9621   59.8346   -2.1965 H         1 NKK         0.2095
     80 H39        14.4977   57.5436   -1.2074 H         1 NKK         0.0289
     81 H40        14.5028   58.2974    0.4231 H         1 NKK         0.0289
     82 H41        14.6920   56.0669    1.4668 H         1 NKK         0.0300
     83 H42        14.7253   55.3005   -0.1575 H         1 NKK         0.0300
     84 H43        12.3963   56.1393   -0.5601 H         1 NKK         0.0689
     85 H44        12.3724   56.7933    1.1128 H         1 NKK         0.0689
     86 H45        13.2484   54.0704    1.2955 H         1 NKK         0.2642
     87 H46        10.0136   52.6789    1.5379 H         1 NKK         0.2615
     88 H47        11.7612   52.4165    1.7817 H         1 NKK         0.2615
     89 H48        10.4412   55.9858    0.2854 H         1 NKK         0.2615
     90 H49         9.2661   54.6973    0.6620 H         1 NKK         0.2615
@<TRIPOS>BOND
     1   33    1 1  
     2    1   34 1  
     3    2    3 ar 
     4   11    2 ar 
     5    3    4 ar 
     6    3    8 ar 
     7    4    5 ar 
     8    5    6 ar 
     9    7    6 ar 
    10    8    7 ar 
    11    9    8 ar 
    12   10    9 ar 
    13   11   10 ar 
    14   12   11 1  
    15   12   13 2  
    16   14   12 am 
    17   15   14 1  
    18   15   16 1  
    19   21   15 1  
    20   16   17 1  
    21   17   18 1  
    22   18   19 1  
    23   19   20 1  
    24   21   22 2  
    25   23   21 am 
    26   24   23 1  
    27   24   25 1  
    28   30   24 1  
    29   25   26 1  
    30   26   27 1  
    31   27   28 1  
    32   28   29 1  
    33   30   31 2  
    34   32   30 am 
    35   32   33 1  
    36   33   35 1  
    37   35   36 1  
    38   36   37 1  
    39   37   38 1  
    40   38   39 ar 
    41   39   40 ar 
    42   39   41 ar 
    43    1   42 1  
    44    1   43 1  
    45    2   44 1  
    46    4   45 1  
    47    5   46 1  
    48    6   47 1  
    49    7   48 1  
    50    9   49 1  
    51   10   50 1  
    52   14   51 1  
    53   15   52 1  
    54   16   53 1  
    55   16   54 1  
    56   17   55 1  
    57   17   56 1  
    58   18   57 1  
    59   18   58 1  
    60   19   59 1  
    61   19   60 1  
    62   20   61 1  
    63   20   62 1  
    64   20   63 1  
    65   23   64 1  
    66   24   65 1  
    67   25   66 1  
    68   25   67 1  
    69   26   68 1  
    70   26   69 1  
    71   27   70 1  
    72   27   71 1  
    73   28   72 1  
    74   28   73 1  
    75   29   74 1  
    76   29   75 1  
    77   29   76 1  
    78   32   77 1  
    79   33   78 1  
    80   34   79 1  
    81   35   80 1  
    82   35   81 1  
    83   36   82 1  
    84   36   83 1  
    85   37   84 1  
    86   37   85 1  
    87   38   86 1  
    88   40   87 1  
    89   40   88 1  
    90   41   89 1  
    91   41   90 1  
@<TRIPOS>SUBSTRUCTURE
     1 NKK         1

