### 
### Created by X-TOOL on Mon Sep 10 21:12:57 2018
### 

@<TRIPOS>MOLECULE
3e92_ligand
   47    50     1     0     0
SMALL
GAST_HUCK


@<TRIPOS>ATOM
      1 C26        48.9010   34.8130   30.4810 C.3       1 G6A         0.0295
      2 C23        37.1320   26.5140   36.2330 C.3       1 G6A        -0.0279
      3 C22        38.2640   27.1710   36.9540 C.3       1 G6A        -0.0279
      4 C19        38.5190   26.3570   35.7020 C.3       1 G6A         0.0416
      5 C25        47.5280   34.8470   31.1690 C.2       1 G6A         0.1971
      6 O21        46.6350   33.8930   30.9750 O.3       1 G6A        -0.1917
      7 N24        46.9900   35.7430   32.0320 N.2       1 G6A        -0.2477
      8 N20        45.8270   35.3620   32.3690 N.2       1 G6A        -0.2467
      9 C18        45.5470   34.1890   31.7290 C.2       1 G6A         0.2149
     10 C15        44.3010   33.4070   31.8360 C.ar      1 G6A         0.0339
     11 C12        43.2130   33.8020   32.6200 C.ar      1 G6A        -0.0532
     12 C6         42.0870   32.9840   32.6390 C.ar      1 G6A        -0.0585
     13 C10        44.2100   32.2030   31.1160 C.ar      1 G6A        -0.0452
     14 C5         43.0760   31.3710   31.1840 C.ar      1 G6A        -0.0358
     15 C11        43.0360   30.0670   30.4250 C.3       1 G6A        -0.0300
     16 C2         41.9900   31.7880   31.9470 C.ar      1 G6A        -0.0157
     17 C1         40.7500   30.9510   32.0470 C.ar      1 G6A        -0.0116
     18 C3         40.6450   30.0430   33.1170 C.ar      1 G6A        -0.0411
     19 C7         39.5210   29.2010   33.2980 C.ar      1 G6A         0.0429
     20 C13        39.5490   28.2860   34.4810 C.2       1 G6A         0.2003
     21 O17        40.4020   28.4830   35.3640 O.2       1 G6A        -0.3877
     22 N16        38.5850   27.2970   34.6010 N.am      1 G6A        -0.2840
     23 C14        38.4600   29.3230   32.3610 C.ar      1 G6A        -0.0489
     24 C8         38.5450   30.2290   31.3010 C.ar      1 G6A        -0.0542
     25 C4         39.6930   31.0460   31.1330 C.ar      1 G6A        -0.0333
     26 C9         39.7830   32.0540   29.9890 C.3       1 G6A        -0.0279
     27 H1         49.4829   35.6973   30.7800 H         1 G6A         0.0500
     28 H2         48.7644   34.8159   29.3895 H         1 G6A         0.0500
     29 H3         49.4389   33.9016   30.7808 H         1 G6A         0.0500
     30 H4         36.4023   27.1279   35.6848 H         1 G6A         0.0288
     31 H5         36.6193   25.6535   36.6876 H         1 G6A         0.0288
     32 H6         38.5881   26.7911   37.9341 H         1 G6A         0.0288
     33 H7         38.3710   28.2655   36.9313 H         1 G6A         0.0288
     34 H8         39.1076   25.4305   35.6302 H         1 G6A         0.0555
     35 H9         43.2454   34.7193   33.1967 H         1 G6A         0.0590
     36 H10        41.2358   33.3016   33.2302 H         1 G6A         0.0601
     37 H11        45.0411   31.9050   30.4871 H         1 G6A         0.0578
     38 H12        43.9866   29.9248   29.8901 H         1 G6A         0.0394
     39 H13        42.2079   30.0892   29.7014 H         1 G6A         0.0394
     40 H14        42.8845   29.2366   31.1304 H         1 G6A         0.0394
     41 H15        41.4578   29.9858   33.8319 H         1 G6A         0.0652
     42 H16        37.8921   27.2279   33.8832 H         1 G6A         0.1846
     43 H17        37.5751   28.7065   32.4698 H         1 G6A         0.0648
     44 H18        37.7237   30.3089   30.5980 H         1 G6A         0.0567
     45 H19        40.7475   32.5806   30.0393 H         1 G6A         0.0405
     46 H20        38.9629   32.7819   30.0763 H         1 G6A         0.0405
     47 H21        39.7035   31.5256   29.0275 H         1 G6A         0.0405
@<TRIPOS>BOND
     1    5    1 1  
     2    3    2 1  
     3    4    2 1  
     4    4    3 1  
     5   22    4 1  
     6    6    5 1  
     7    7    5 2  
     8    9    6 1  
     9    8    7 1  
    10    9    8 2  
    11   10    9 1  
    12   11   10 ar 
    13   13   10 ar 
    14   12   11 ar 
    15   16   12 ar 
    16   14   13 ar 
    17   14   15 1  
    18   16   14 ar 
    19   17   16 1  
    20   18   17 ar 
    21   17   25 ar 
    22   19   18 ar 
    23   20   19 1  
    24   19   23 ar 
    25   20   21 2  
    26   20   22 am 
    27   23   24 ar 
    28   24   25 ar 
    29   25   26 1  
    30    1   27 1  
    31    1   28 1  
    32    1   29 1  
    33    2   30 1  
    34    2   31 1  
    35    3   32 1  
    36    3   33 1  
    37    4   34 1  
    38   11   35 1  
    39   12   36 1  
    40   13   37 1  
    41   15   38 1  
    42   15   39 1  
    43   15   40 1  
    44   18   41 1  
    45   22   42 1  
    46   23   43 1  
    47   24   44 1  
    48   26   45 1  
    49   26   46 1  
    50   26   47 1  
@<TRIPOS>SUBSTRUCTURE
     1 G6A         1

