### 
### Created by X-TOOL on Mon Sep 10 21:12:57 2018
### 

@<TRIPOS>MOLECULE
3e93_ligand
   70    75     1     0     0
SMALL
GAST_HUCK


@<TRIPOS>ATOM
      1 O25        41.0000   29.8000   36.2000 O.2       1 19B        -0.3760
      2 C22        40.1650   29.4840   35.3570 C.2       1 19B         0.2274
      3 N24        39.3020   28.4420   35.5360 N.am      1 19B        -0.2370
      4 C26        39.2780   27.5910   36.6470 C.ar      1 19B         0.0536
      5 C27        39.5450   27.9960   37.9890 C.ar      1 19B        -0.0255
      6 C29        39.5250   27.0920   39.0830 C.ar      1 19B         0.0259
      7 C32        39.2210   25.7450   38.7730 C.ar      1 19B        -0.0595
      8 C30        38.9480   25.3350   37.4620 C.ar      1 19B        -0.0865
      9 C28        38.9790   26.2530   36.4030 C.ar      1 19B        -0.0544
     10 N31        39.8530   27.4950   40.3960 N.pl3     1 19B        -0.3075
     11 C33        40.4560   28.8390   40.5990 C.3       1 19B         0.0499
     12 C35        40.3240   29.3880   42.0340 C.3       1 19B         0.0673
     13 O37        40.7020   28.3600   42.9180 O.3       1 19B        -0.3759
     14 C36        39.7690   27.2960   42.9390 C.3       1 19B         0.0673
     15 C34        39.7280   26.5750   41.5720 C.3       1 19B         0.0499
     16 C19        40.0370   30.3310   34.1470 C.ar      1 19B         0.0497
     17 C23        38.8300   30.5450   33.4680 C.ar      1 19B        -0.0479
     18 C20        38.8000   31.3890   32.3550 C.ar      1 19B        -0.0536
     19 C18        39.9600   32.0220   31.9080 C.ar      1 19B        -0.0326
     20 C21        39.8990   32.9340   30.6860 C.3       1 19B        -0.0276
     21 C15        41.1550   31.8060   32.5980 C.ar      1 19B        -0.0123
     22 C17        41.2020   30.9790   33.7030 C.ar      1 19B        -0.0399
     23 C12        42.3860   32.4650   32.1310 C.ar      1 19B        -0.0269
     24 C9         43.2440   31.7670   31.2830 C.ar      1 19B        -0.0647
     25 C4         44.4020   32.3910   30.8140 C.ar      1 19B        -0.0614
     26 C1         44.6680   33.7200   31.2190 C.ar      1 19B         0.0282
     27 C3         43.8040   34.3760   32.0510 C.ar      1 19B         0.1528
     28 O8         44.3090   35.6250   32.2690 O.3       1 19B        -0.1790
     29 C7         42.6640   33.7780   32.5110 C.ar      1 19B        -0.0179
     30 C2         45.7300   34.5770   30.9160 C.2       1 19B         0.0534
     31 N6         45.4450   35.7350   31.5930 N.2       1 19B        -0.1500
     32 C5         46.9380   34.2910   30.0510 C.3       1 19B         0.0120
     33 C10        47.9210   33.3110   30.7360 C.3       1 19B         0.0001
     34 C13        48.9430   32.8140   29.7150 C.3       1 19B        -0.0317
     35 N16        49.7120   33.9080   29.1010 N.4       1 19B         0.2272
     36 C14        48.9620   35.1390   28.7590 C.3       1 19B        -0.0317
     37 C11        47.7790   35.5290   29.6890 C.3       1 19B         0.0001
     38 H1         38.6314   28.2725   34.8138 H         1 19B         0.2248
     39 H2         39.7728   29.0383   38.1810 H         1 19B         0.0391
     40 H3         39.1989   25.0116   39.5710 H         1 19B         0.0393
     41 H4         38.7101   24.2961   37.2639 H         1 19B         0.0546
     42 H5         38.7699   25.9208   35.3926 H         1 19B         0.0398
     43 H6         39.9622   29.5443   39.9144 H         1 19B         0.0536
     44 H7         41.5261   28.7765   40.3520 H         1 19B         0.0536
     45 H8         39.2829   29.6856   42.2277 H         1 19B         0.0579
     46 H9         40.9845   30.2577   42.1654 H         1 19B         0.0579
     47 H10        38.7699   27.6967   43.1654 H         1 19B         0.0579
     48 H11        40.0605   26.5760   43.7179 H         1 19B         0.0579
     49 H12        40.5570   25.8529   41.5364 H         1 19B         0.0536
     50 H13        38.7709   26.0388   41.4920 H         1 19B         0.0536
     51 H14        37.9225   30.0573   33.8052 H         1 19B         0.0652
     52 H15        37.8645   31.5539   31.8327 H         1 19B         0.0569
     53 H16        38.8693   32.9616   30.3002 H         1 19B         0.0406
     54 H17        40.5723   32.5481   29.9065 H         1 19B         0.0406
     55 H18        40.2113   33.9496   30.9705 H         1 19B         0.0406
     56 H19        42.1384   30.8297   34.2282 H         1 19B         0.0658
     57 H20        43.0145   30.7489   30.9901 H         1 19B         0.0538
     58 H21        45.0832   31.8675   30.1530 H         1 19B         0.0598
     59 H22        41.9853   34.3169   33.1622 H         1 19B         0.0568
     60 H23        46.5700   33.8363   29.1194 H         1 19B         0.0460
     61 H24        47.3618   32.4547   31.1409 H         1 19B         0.0340
     62 H25        48.4429   33.8283   31.5545 H         1 19B         0.0340
     63 H26        48.4109   32.2695   28.9211 H         1 19B         0.0815
     64 H27        49.6430   32.1329   30.2210 H         1 19B         0.0815
     65 H28        50.1213   33.5538   28.2507 H         1 19B         0.2013
     66 H29        50.4440   34.1653   29.7445 H         1 19B         0.2013
     67 H30        48.5570   35.0092   27.7445 H         1 19B         0.0815
     68 H31        49.6770   35.9749   28.7643 H         1 19B         0.0815
     69 H32        48.1776   35.9766   30.6113 H         1 19B         0.0340
     70 H33        47.1403   36.2607   29.1726 H         1 19B         0.0340
@<TRIPOS>BOND
     1    1    2 2  
     2    2    3 am 
     3    2   16 1  
     4    3    4 1  
     5    4    5 ar 
     6    4    9 ar 
     7    5    6 ar 
     8    6    7 ar 
     9    6   10 1  
    10    7    8 ar 
    11    8    9 ar 
    12   10   11 1  
    13   10   15 1  
    14   11   12 1  
    15   12   13 1  
    16   13   14 1  
    17   14   15 1  
    18   16   17 ar 
    19   16   22 ar 
    20   17   18 ar 
    21   18   19 ar 
    22   19   20 1  
    23   19   21 ar 
    24   21   22 ar 
    25   21   23 1  
    26   23   24 ar 
    27   23   29 ar 
    28   24   25 ar 
    29   25   26 ar 
    30   26   27 ar 
    31   26   30 1  
    32   27   28 1  
    33   27   29 ar 
    34   28   31 1  
    35   30   31 2  
    36   30   32 1  
    37   32   33 1  
    38   32   37 1  
    39   33   34 1  
    40   34   35 1  
    41   35   36 1  
    42   36   37 1  
    43    3   38 1  
    44    5   39 1  
    45    7   40 1  
    46    8   41 1  
    47    9   42 1  
    48   11   43 1  
    49   11   44 1  
    50   12   45 1  
    51   12   46 1  
    52   14   47 1  
    53   14   48 1  
    54   15   49 1  
    55   15   50 1  
    56   17   51 1  
    57   18   52 1  
    58   20   53 1  
    59   20   54 1  
    60   20   55 1  
    61   22   56 1  
    62   24   57 1  
    63   25   58 1  
    64   29   59 1  
    65   32   60 1  
    66   33   61 1  
    67   33   62 1  
    68   34   63 1  
    69   34   64 1  
    70   35   65 1  
    71   35   66 1  
    72   36   67 1  
    73   36   68 1  
    74   37   69 1  
    75   37   70 1  
@<TRIPOS>SUBSTRUCTURE
     1 19B         1

