### 
### Created by X-TOOL on Mon Sep 10 21:13:00 2018
### 

@<TRIPOS>MOLECULE
3e9h_ligand
   60    62     1     0     0
SMALL
GAST_HUCK


@<TRIPOS>ATOM
      1 NZ         64.8430  -69.9910   18.2400 N.4       1 KAA         0.2185
      2 CE         64.0810  -71.0990   17.6400 C.3       1 KAA        -0.0354
      3 CD         63.0500  -71.6520   18.6350 C.3       1 KAA        -0.0123
      4 CG         63.7320  -72.2000   19.8940 C.3       1 KAA        -0.0410
      5 CB         62.7420  -72.7220   20.9390 C.3       1 KAA         0.0081
      6 CA         61.8320  -71.6480   21.5450 C.3       1 KAA         0.0665
      7 N          62.6210  -70.8160   22.4620 N.4       1 KAA         0.2379
      8 C          60.7660  -72.4000   22.3480 C.2       1 KAA         0.2460
      9 O          60.7320  -72.3210   23.5740 O.2       1 KAA        -0.3891
     10 N8         59.7400  -72.8250   21.6180 N.am      1 KAA        -0.1294
     11 S1         58.6040  -73.7910   22.2650 S.o2      1 KAA         0.1859
     12 O1S        57.7440  -72.9160   23.1250 O.2       1 KAA        -0.1218
     13 O2S        57.7850  -74.4570   21.2020 O.2       1 KAA        -0.1218
     14 O5'        59.1630  -74.7450   23.1820 O.3       1 KAA        -0.2161
     15 C5'        59.9080  -75.8670   22.6780 C.3       1 KAA         0.1073
     16 C4'        59.2320  -77.2300   22.8540 C.3       1 KAA         0.1161
     17 O4'        59.1960  -77.6220   24.2290 O.3       1 KAA        -0.3367
     18 C3'        57.8010  -77.3940   22.3390 C.3       1 KAA         0.1146
     19 O3'        57.8480  -77.6920   20.9410 O.3       1 KAA        -0.3864
     20 C2'        57.3610  -78.6540   23.0910 C.3       1 KAA         0.1385
     21 O2'        57.7530  -79.8570   22.4210 O.3       1 KAA        -0.3836
     22 C1'        58.1100  -78.5470   24.4200 C.3       1 KAA         0.2010
     23 N9         57.2860  -78.0090   25.5280 N.pl3     1 KAA        -0.1919
     24 C8         56.8560  -76.7560   25.6530 C.2       1 KAA         0.1123
     25 N7         56.1920  -76.6310   26.8010 N.2       1 KAA        -0.2958
     26 C5         56.1930  -77.8140   27.4100 C.ar      1 KAA         0.1045
     27 C4         56.8960  -78.6930   26.6010 C.ar      1 KAA         0.1613
     28 N3         57.0450  -79.9690   26.9910 N.ar      1 KAA        -0.2714
     29 C2         56.5320  -80.4060   28.1300 C.ar      1 KAA         0.0533
     30 N1         55.8500  -79.5900   28.9190 N.ar      1 KAA        -0.2698
     31 C6         55.6580  -78.3010   28.5980 C.ar      1 KAA         0.1298
     32 N6         54.9410  -77.5080   29.3910 N.pl3     1 KAA        -0.3152
     33 H1         65.5127  -69.6432   17.5717 H         1 KAA         0.1994
     34 H2         65.3271  -70.3214   19.0600 H         1 KAA         0.1994
     35 H3         64.2108  -69.2498   18.4989 H         1 KAA         0.1994
     36 H4         64.7760  -71.9030   17.3564 H         1 KAA         0.0813
     37 H5         63.5578  -70.7336   16.7441 H         1 KAA         0.0813
     38 H6         62.4842  -72.4623   18.1521 H         1 KAA         0.0317
     39 H7         62.3607  -70.8447   18.9231 H         1 KAA         0.0317
     40 H8         64.3267  -71.3938   20.3482 H         1 KAA         0.0270
     41 H9         64.3971  -73.0253   19.6000 H         1 KAA         0.0270
     42 H10        63.3161  -73.1859   21.7546 H         1 KAA         0.0346
     43 H11        62.1058  -73.4811   20.4605 H         1 KAA         0.0346
     44 H12        61.3732  -71.0286   20.7602 H         1 KAA         0.1099
     45 H13        62.0294  -70.1065   22.8652 H         1 KAA         0.2015
     46 H14        63.3735  -70.3775   21.9546 H         1 KAA         0.2015
     47 H15        63.0017  -71.3928   23.1958 H         1 KAA         0.2015
     48 H16        59.6660  -72.5475   20.6601 H         1 KAA         0.2167
     49 H17        60.8749  -75.8965   23.2016 H         1 KAA         0.0611
     50 H18        60.0779  -75.7076   21.6030 H         1 KAA         0.0611
     51 H19        59.8563  -77.9500   22.3046 H         1 KAA         0.0648
     52 H20        57.1642  -76.5214   22.5465 H         1 KAA         0.0648
     53 H21        56.9634  -77.7960   20.6106 H         1 KAA         0.2100
     54 H22        56.2716  -78.6561   23.2434 H         1 KAA         0.0676
     55 H23        57.3597  -79.8792   21.5565 H         1 KAA         0.2101
     56 H24        58.4919  -79.5399   24.6998 H         1 KAA         0.0996
     57 H25        57.0210  -75.9582   24.9304 H         1 KAA         0.1349
     58 H26        56.6714  -81.4412   28.4197 H         1 KAA         0.0996
     59 H27        54.5484  -77.8766   30.2690 H         1 KAA         0.1820
     60 H28        54.7788  -76.5258   29.1266 H         1 KAA         0.1820
@<TRIPOS>BOND
     1    1    2 1  
     2    2    3 1  
     3    3    4 1  
     4    4    5 1  
     5    5    6 1  
     6    6    7 1  
     7    6    8 1  
     8    8    9 2  
     9    8   10 am 
    10   10   11 am 
    11   11   12 2  
    12   11   13 2  
    13   11   14 1  
    14   14   15 1  
    15   15   16 1  
    16   16   17 1  
    17   16   18 1  
    18   17   22 1  
    19   18   19 1  
    20   18   20 1  
    21   20   21 1  
    22   20   22 1  
    23   22   23 1  
    24   23   24 1  
    25   23   27 1  
    26   24   25 2  
    27   25   26 1  
    28   26   27 ar 
    29   26   31 ar 
    30   27   28 ar 
    31   28   29 ar 
    32   29   30 ar 
    33   30   31 ar 
    34   31   32 1  
    35    1   33 1  
    36    1   34 1  
    37    1   35 1  
    38    2   36 1  
    39    2   37 1  
    40    3   38 1  
    41    3   39 1  
    42    4   40 1  
    43    4   41 1  
    44    5   42 1  
    45    5   43 1  
    46    6   44 1  
    47    7   45 1  
    48    7   46 1  
    49    7   47 1  
    50   10   48 1  
    51   15   49 1  
    52   15   50 1  
    53   16   51 1  
    54   18   52 1  
    55   19   53 1  
    56   20   54 1  
    57   21   55 1  
    58   22   56 1  
    59   24   57 1  
    60   29   58 1  
    61   32   59 1  
    62   32   60 1  
@<TRIPOS>SUBSTRUCTURE
     1 KAA         1

