### 
### Created by X-TOOL on Mon Sep 10 21:13:01 2018
### 

@<TRIPOS>MOLECULE
3eax_ligand
   86    90     1     0     0
SMALL
GAST_HUCK


@<TRIPOS>ATOM
      1 C1         39.0610   20.1840   66.4650 C.2       1 LZP        -0.0846
      2 C2         38.0960   19.7160   67.4540 C.2       1 LZP        -0.0903
      3 C3         37.7250   18.1870   67.5110 C.2       1 LZP        -0.0900
      4 C4         38.3640   17.2550   66.5610 C.2       1 LZP        -0.0794
      5 C5         39.3540   17.7090   65.5410 C.3       1 LZP         0.0216
      6 C6         39.6880   19.2530   65.5270 C.3       1 LZP        -0.0127
      7 C7         40.0220   16.6860   64.5380 C.3       1 LZP         0.0847
      8 C8         41.2770   14.8760   65.9010 C.ar      1 LZP         0.0970
      9 C9         42.5290   15.6950   66.0930 C.ar      1 LZP        -0.0285
     10 C10        43.6310   15.2590   66.9610 C.ar      1 LZP        -0.0646
     11 C11        43.5380   13.9930   67.6780 C.ar      1 LZP        -0.0540
     12 C12        42.3310   13.1270   67.5400 C.ar      1 LZP         0.0263
     13 C13        41.2360   13.5900   66.6570 C.ar      1 LZP        -0.0144
     14 C14        42.2480   11.8010   68.2990 C.2       1 LZP         0.1489
     15 C15        42.4710   11.7870   69.8560 C.3       1 LZP         0.1095
     16 C16        43.7370   11.0780   70.4450 C.2       1 LZP         0.2290
     17 C17        44.1490   11.3840   71.9140 C.2       1 LZP         0.2719
     18 C18        45.0980   13.0140   73.7520 C.3       1 LZP         0.0553
     19 C19        44.6430   14.5040   74.1230 C.3       1 LZP         0.0553
     20 C20        43.8990   15.0420   71.7230 C.3       1 LZP         0.0553
     21 C21        44.8680   13.8480   71.3220 C.3       1 LZP         0.0553
     22 N1         44.6740   12.6730   72.3020 N.am      1 LZP        -0.2586
     23 N2         43.4830   14.9040   73.1750 N.am      1 LZP        -0.2586
     24 O1         40.1960   15.3090   65.0470 O.3       1 LZP        -0.3141
     25 O2         42.0070   10.7380   67.7150 O.2       1 LZP        -0.3749
     26 O3         44.3940   10.2750   69.7640 O.2       1 LZP        -0.3470
     27 O4         44.0090   10.4560   72.7380 O.2       1 LZP        -0.3593
     28 C22        42.1980   15.1260   73.7160 C.2       1 LZP         0.2719
     29 C23        41.0070   15.4920   72.7960 C.2       1 LZP         0.2290
     30 C24        39.6280   14.8530   73.1470 C.3       1 LZP         0.1095
     31 C25        39.3660   13.3290   72.8740 C.2       1 LZP         0.1489
     32 C26        40.0130   12.5250   75.3030 C.ar      1 LZP        -0.0143
     33 C27        39.9440   12.2890   73.8450 C.ar      1 LZP         0.0263
     34 C28        40.4600   10.9930   73.3220 C.ar      1 LZP        -0.0540
     35 C29        41.0160    9.9890   74.2310 C.ar      1 LZP        -0.0646
     36 C30        41.0700   10.2570   75.6720 C.ar      1 LZP        -0.0283
     37 C31        40.5690   11.5400   76.2730 C.ar      1 LZP         0.0989
     38 C32        39.4760   12.0580   78.5290 C.3       1 LZP         0.0921
     39 C33        37.7170   14.1860   78.4040 C.2       1 LZP        -0.0798
     40 C34        39.1490   13.5860   78.6920 C.2       1 LZP        -0.0441
     41 C35        40.1980   14.5460   79.1300 C.2       1 LZP        -0.0905
     42 C36        39.9270   15.9840   79.2900 C.3       1 LZP        -0.0268
     43 C37        38.4840   16.5360   78.9900 C.3       1 LZP        -0.0198
     44 C38        37.4390   15.6140   78.5600 C.2       1 LZP        -0.0828
     45 O5         41.9550   15.0220   74.9460 O.2       1 LZP        -0.3593
     46 O6         41.1340   16.2490   71.8240 O.2       1 LZP        -0.3470
     47 O7         38.6990   12.9980   71.8830 O.2       1 LZP        -0.3749
     48 O8         40.6430   11.7700   77.6880 O.3       1 LZP        -0.3082
     49 H1         39.3182   21.2414   66.4245 H         1 LZP         0.0606
     50 H2         37.6360   20.4186   68.1473 H         1 LZP         0.0402
     51 H3         37.0057   17.8213   68.2423 H         1 LZP         0.0402
     52 H4         38.1036   16.1986   66.6062 H         1 LZP         0.0610
     53 H5         38.5451   17.8725   64.8137 H         1 LZP         0.0524
     54 H6         40.7730   19.3361   65.6875 H         1 LZP         0.0466
     55 H7         39.4377   19.6144   64.5187 H         1 LZP         0.0466
     56 H8         41.0154   17.0752   64.2702 H         1 LZP         0.0645
     57 H9         39.3926   16.6361   63.6372 H         1 LZP         0.0645
     58 H10        42.6189   16.6407   65.5709 H         1 LZP         0.0580
     59 H11        44.5138   15.8789   67.0685 H         1 LZP         0.0601
     60 H12        44.3542   13.6777   68.3179 H         1 LZP         0.0578
     61 H13        40.3586   12.9618   66.5544 H         1 LZP         0.0594
     62 H14        41.5929   11.2963   70.3011 H         1 LZP         0.0717
     63 H15        42.5100   12.8364   70.1836 H         1 LZP         0.0717
     64 H16        44.6229   12.3051   74.4461 H         1 LZP         0.0544
     65 H17        46.1917   12.9353   73.8391 H         1 LZP         0.0544
     66 H18        45.4880   15.1957   73.9906 H         1 LZP         0.0544
     67 H19        44.3000   14.5399   75.1675 H         1 LZP         0.0544
     68 H20        43.0045   15.0163   71.0834 H         1 LZP         0.0544
     69 H21        44.4225   15.9993   71.5831 H         1 LZP         0.0544
     70 H22        45.9116   14.1929   71.3660 H         1 LZP         0.0544
     71 H23        44.6347   13.5146   70.3000 H         1 LZP         0.0544
     72 H24        38.8682   15.4104   72.5796 H         1 LZP         0.0717
     73 H25        39.4713   15.0122   74.2241 H         1 LZP         0.0717
     74 H26        39.6384   13.4667   75.6875 H         1 LZP         0.0594
     75 H27        40.4234   10.7913   72.2576 H         1 LZP         0.0578
     76 H28        41.3873    9.0488   73.8395 H         1 LZP         0.0601
     77 H29        41.4869    9.5014   76.3280 H         1 LZP         0.0580
     78 H30        38.6003   11.5655   78.0811 H         1 LZP         0.0734
     79 H31        39.6615   11.6382   79.5287 H         1 LZP         0.0734
     80 H32        36.9172   13.5210   78.0815 H         1 LZP         0.0406
     81 H33        41.1993   14.1725   79.3391 H         1 LZP         0.0428
     82 H34        40.6193   16.5169   78.6216 H         1 LZP         0.0419
     83 H35        40.1568   16.2391   80.3350 H         1 LZP         0.0419
     84 H36        38.5887   17.2929   78.1987 H         1 LZP         0.0463
     85 H37        38.1269   17.0170   79.9125 H         1 LZP         0.0463
     86 H38        36.4394   15.9931   78.3525 H         1 LZP         0.0627
@<TRIPOS>BOND
     1    1    2 2  
     2    6    1 1  
     3    3    2 1  
     4    4    3 2  
     5    5    4 1  
     6    5    6 1  
     7    7    5 1  
     8   24    7 1  
     9    8    9 ar 
    10   13    8 ar 
    11    8   24 1  
    12   10    9 ar 
    13   11   10 ar 
    14   12   11 ar 
    15   12   13 ar 
    16   14   12 1  
    17   15   14 1  
    18   14   25 2  
    19   16   15 1  
    20   17   16 1  
    21   16   26 2  
    22   22   17 am 
    23   17   27 2  
    24   19   18 1  
    25   18   22 1  
    26   23   19 1  
    27   20   21 1  
    28   23   20 1  
    29   21   22 1  
    30   28   23 am 
    31   29   28 1  
    32   28   45 2  
    33   30   29 1  
    34   29   46 2  
    35   31   30 1  
    36   33   31 1  
    37   31   47 2  
    38   32   33 ar 
    39   37   32 ar 
    40   33   34 ar 
    41   35   34 ar 
    42   36   35 ar 
    43   37   36 ar 
    44   48   37 1  
    45   38   40 1  
    46   38   48 1  
    47   40   39 1  
    48   39   44 2  
    49   40   41 2  
    50   41   42 1  
    51   42   43 1  
    52   43   44 1  
    53    1   49 1  
    54    2   50 1  
    55    3   51 1  
    56    4   52 1  
    57    5   53 1  
    58    6   54 1  
    59    6   55 1  
    60    7   56 1  
    61    7   57 1  
    62    9   58 1  
    63   10   59 1  
    64   11   60 1  
    65   13   61 1  
    66   15   62 1  
    67   15   63 1  
    68   18   64 1  
    69   18   65 1  
    70   19   66 1  
    71   19   67 1  
    72   20   68 1  
    73   20   69 1  
    74   21   70 1  
    75   21   71 1  
    76   30   72 1  
    77   30   73 1  
    78   32   74 1  
    79   34   75 1  
    80   35   76 1  
    81   36   77 1  
    82   38   78 1  
    83   38   79 1  
    84   39   80 1  
    85   41   81 1  
    86   42   82 1  
    87   42   83 1  
    88   43   84 1  
    89   43   85 1  
    90   44   86 1  
@<TRIPOS>SUBSTRUCTURE
     1 LZP         1

