### 
### Created by X-TOOL on Mon Sep 10 21:13:01 2018
### 

@<TRIPOS>MOLECULE
3eb1_ligand
   51    53     1     0     0
SMALL
GAST_HUCK


@<TRIPOS>ATOM
      1 C01        45.7950   12.1820    2.5370 C.ar      1 LZQ        -0.0710
      2 C07        45.9480   14.6770    2.4470 C.3       1 LZQ         0.1021
      3 C09        47.5190   15.6020    4.2050 C.2       1 LZQ         0.1759
      4 C10        48.3580   16.5460    4.6460 C.2       1 LZQ         0.1251
      5 C13        49.3320   10.5080   -1.7620 C.ar      1 LZQ        -0.0214
      6 C19        45.6650   10.4560   -3.5510 C.ar      1 LZQ        -0.0214
      7 N01        47.0600   11.8680   -1.7400 N.pl3     1 LZQ        -0.2877
      8 O01        47.9190   17.9470    4.6180 O.co2     1 LZQ        -0.5464
      9 C02        45.9150   10.8880    1.9000 C.ar      1 LZQ        -0.0801
     10 C14        50.0300   10.3850   -0.4630 C.ar      1 LZQ        -0.0584
     11 C20        45.3730   10.4520   -5.0080 C.ar      1 LZQ        -0.0584
     12 O02        44.7160   14.9850    2.8530 O.3       1 LZQ        -0.3771
     13 O10        47.2810   14.6120    4.8970 O.2       1 LZQ        -0.3574
     14 O11        49.4750   16.2240    5.0680 O.co2     1 LZQ        -0.5464
     15 C03        46.3250   10.7710    0.5060 C.ar      1 LZQ        -0.0510
     16 C15        50.7470    9.1410   -0.1130 C.ar      1 LZQ        -0.0685
     17 C21        45.0670    9.1890   -5.7110 C.ar      1 LZQ        -0.0685
     18 C04        46.6270   11.9700   -0.2760 C.ar      1 LZQ         0.0370
     19 C16        50.7810    8.0080   -1.0460 C.ar      1 LZQ        -0.0687
     20 C22        45.0480    7.9240   -4.9730 C.ar      1 LZQ        -0.0687
     21 C05        46.5010   13.2990    0.3830 C.ar      1 LZQ        -0.0407
     22 C17        50.0990    8.1100   -2.3370 C.ar      1 LZQ        -0.0685
     23 C23        45.3350    7.9210   -3.5350 C.ar      1 LZQ        -0.0685
     24 C06        46.0780   13.4110    1.8110 C.ar      1 LZQ        -0.0244
     25 C18        49.3750    9.3550   -2.6990 C.ar      1 LZQ        -0.0584
     26 C24        45.6420    9.1770   -2.8200 C.ar      1 LZQ        -0.0584
     27 C08        46.8660   15.8140    2.7950 C.3       1 LZQ         0.0664
     28 C11        48.5580   11.8510   -2.1390 C.3       1 LZQ         0.0624
     29 C12        45.9870   11.8400   -2.8210 C.3       1 LZQ         0.0624
     30 H1         45.4883   12.2368    3.5753 H         1 LZQ         0.0448
     31 H2         46.2169   14.1873    3.3946 H         1 LZQ         0.0781
     32 H3         45.6965    9.9914    2.4686 H         1 LZQ         0.0566
     33 H4         50.0153   11.2129    0.2366 H         1 LZQ         0.0557
     34 H5         45.3846   11.3846   -5.5604 H         1 LZQ         0.0557
     35 H6         44.1308   14.9964    2.1047 H         1 LZQ         0.2132
     36 H7         46.4064    9.7922    0.0472 H         1 LZQ         0.0459
     37 H8         51.2531    9.0643    0.8426 H         1 LZQ         0.0599
     38 H9         44.8563    9.1986   -6.7743 H         1 LZQ         0.0599
     39 H10        51.3091    7.0995   -0.7798 H         1 LZQ         0.0559
     40 H11        44.8233    6.9961   -5.4864 H         1 LZQ         0.0559
     41 H12        46.7194   14.1982   -0.1816 H         1 LZQ         0.0451
     42 H13        50.1224    7.2762   -3.0293 H         1 LZQ         0.0599
     43 H14        45.3217    6.9846   -2.9891 H         1 LZQ         0.0599
     44 H15        48.8724    9.4237   -3.6570 H         1 LZQ         0.0557
     45 H16        45.8505    9.1575   -1.7564 H         1 LZQ         0.0557
     46 H17        46.2900   16.7511    2.8033 H         1 LZQ         0.0546
     47 H18        47.6608   15.8788    2.0373 H         1 LZQ         0.0546
     48 H19        48.6242   11.9907   -3.2281 H         1 LZQ         0.0679
     49 H20        49.0576   12.6889   -1.6307 H         1 LZQ         0.0679
     50 H21        45.0516   12.1858   -2.3568 H         1 LZQ         0.0679
     51 H22        46.2949   12.5525   -3.6004 H         1 LZQ         0.0679
@<TRIPOS>BOND
     1    9    1 ar 
     2    1   24 ar 
     3    2   12 1  
     4   24    2 1  
     5    2   27 1  
     6    3    4 1  
     7    3   13 2  
     8   27    3 1  
     9    4    8 ar 
    10    4   14 ar 
    11    5   10 ar 
    12    5   25 ar 
    13   28    5 1  
    14    6   11 ar 
    15    6   26 ar 
    16   29    6 1  
    17   18    7 1  
    18    7   28 1  
    19    7   29 1  
    20   15    9 ar 
    21   10   16 ar 
    22   11   17 ar 
    23   15   18 ar 
    24   16   19 ar 
    25   17   20 ar 
    26   18   21 ar 
    27   19   22 ar 
    28   20   23 ar 
    29   21   24 ar 
    30   22   25 ar 
    31   23   26 ar 
    32    1   30 1  
    33    2   31 1  
    34    9   32 1  
    35   10   33 1  
    36   11   34 1  
    37   12   35 1  
    38   15   36 1  
    39   16   37 1  
    40   17   38 1  
    41   19   39 1  
    42   20   40 1  
    43   21   41 1  
    44   22   42 1  
    45   23   43 1  
    46   25   44 1  
    47   26   45 1  
    48   27   46 1  
    49   27   47 1  
    50   28   48 1  
    51   28   49 1  
    52   29   50 1  
    53   29   51 1  
@<TRIPOS>SUBSTRUCTURE
     1 LZQ         1

