### 
### Created by X-TOOL on Mon Sep 10 21:13:00 2018
### 

@<TRIPOS>MOLECULE
3ebb_ligand
   62    62     1     0     0
SMALL
GAST_HUCK


@<TRIPOS>ATOM
      1 N           8.4020  -14.3700   33.6810 N.4       1 ASP         0.2391
      2 CA          9.2080  -14.6810   34.8950 C.3       1 ASP         0.0764
      3 C          10.6930  -14.3150   34.7240 C.2       1 ASP         0.2284
      4 O          11.4620  -14.2970   35.6940 O.2       1 ASP        -0.3906
      5 CB          9.0610  -16.1650   35.2460 C.3       1 ASP         0.0607
      6 CG          9.0250  -16.4170   36.7540 C.2       1 ASP         0.0425
      7 OD1         8.3940  -17.4210   37.1610 O.co2     1 ASP        -0.5686
      8 OD2         9.6150  -15.6230   37.5290 O.co2     1 ASP        -0.5686
      9 N          11.0860  -14.0170   33.4900 N.am      1 LEU        -0.2609
     10 CA         12.4850  -13.7400   33.1640 C.3       1 LEU         0.1313
     11 C          13.0690  -12.4520   33.7730 C.2       1 LEU         0.2040
     12 O          14.2250  -12.4480   34.2100 O.2       1 LEU        -0.3944
     13 CB         12.6700  -13.7380   31.6410 C.3       1 LEU        -0.0101
     14 CG         13.0920  -15.0030   30.8720 C.3       1 LEU        -0.0425
     15 CD1        12.9670  -16.2920   31.6820 C.3       1 LEU        -0.0625
     16 CD2        12.3150  -15.0980   29.5740 C.3       1 LEU        -0.0625
     17 N          12.2770  -11.3780   33.8020 N.am      1 TYR        -0.2621
     18 CA         12.7950  -10.0210   34.0590 C.3       1 TYR         0.1390
     19 C          12.1860   -9.3340   35.2960 C.2       1 TYR         0.2050
     20 O          11.1650   -9.7960   35.8110 O.2       1 TYR        -0.3943
     21 CB         12.5770   -9.1440   32.8190 C.3       1 TYR         0.0163
     22 CG         13.2730   -9.6750   31.5900 C.ar      1 TYR        -0.0493
     23 CD1        14.6530   -9.5160   31.4170 C.ar      1 TYR        -0.0685
     24 CD2        12.5590  -10.3480   30.6040 C.ar      1 TYR        -0.0685
     25 CE1        15.2970  -10.0190   30.2870 C.ar      1 TYR        -0.0398
     26 CE2        13.1950  -10.8590   29.4720 C.ar      1 TYR        -0.0398
     27 CZ         14.5570  -10.6910   29.3200 C.ar      1 TYR         0.0805
     28 OH         15.1690  -11.1920   28.1920 O.3       1 TYR        -0.3376
     29 N          12.8020   -8.2470   35.7850 N.am      1 GLY        -0.2720
     30 CA         14.1050   -7.7360   35.3050 C.3       1 GLY         0.0833
     31 C          14.0590   -6.4160   34.5480 C.2       1 GLY         0.0570
     32 O          13.0520   -5.6920   34.5710 O.co2     1 GLY        -0.5669
     33 O1         15.0655   -6.0510   33.8837 O.co2     1 GLY        -0.5669
     34 H1          7.4404  -14.6264   33.8414 H         1 ASP         0.2016
     35 H2          8.7620  -14.8903   32.8963 H         1 ASP         0.2016
     36 H3          8.4582  -13.3830   33.4841 H         1 ASP         0.2016
     37 H4          8.8083  -14.0860   35.7294 H         1 ASP         0.1117
     38 H5          9.9133  -16.7133   34.8184 H         1 ASP         0.0512
     39 H6          8.1255  -16.5395   34.8048 H         1 ASP         0.0512
     40 H7         10.4031  -13.9809   32.7604 H         1 LEU         0.1885
     41 H8         13.0746  -14.5743   33.5717 H         1 LEU         0.0800
     42 H9         13.4330  -12.9760   31.4238 H         1 LEU         0.0315
     43 H10        11.7063  -13.4242   31.2135 H         1 LEU         0.0315
     44 H11        14.1559  -14.8876   30.6174 H         1 LEU         0.0298
     45 H12        13.2858  -17.1451   31.0651 H         1 LEU         0.0232
     46 H13        11.9200  -16.4323   31.9886 H         1 LEU         0.0232
     47 H14        13.6052  -16.2269   32.5755 H         1 LEU         0.0232
     48 H15        12.4227  -14.1582   29.0126 H         1 LEU         0.0232
     49 H16        11.2518  -15.2733   29.7951 H         1 LEU         0.0232
     50 H17        12.7067  -15.9314   28.9723 H         1 LEU         0.0232
     51 H18        11.2969  -11.4977   33.6438 H         1 TYR         0.1885
     52 H19        13.8775  -10.1099   34.2328 H         1 TYR         0.0821
     53 H20        12.9617   -8.1355   33.0311 H         1 TYR         0.0453
     54 H21        11.4977   -9.0892   32.6141 H         1 TYR         0.0453
     55 H22        15.2294   -8.9943   32.1724 H         1 TYR         0.0530
     56 H23        11.4888  -10.4779   30.7171 H         1 TYR         0.0530
     57 H24        16.3658   -9.8873   30.1633 H         1 TYR         0.0525
     58 H25        12.6230  -11.3849   28.7162 H         1 TYR         0.0525
     59 H26        14.7903  -10.7862   27.4209 H         1 TYR         0.2458
     60 H27        12.3496   -7.7482   36.5243 H         1 GLY         0.1873
     61 H28        14.5395   -8.4938   34.6365 H         1 GLY         0.0689
     62 H29        14.7580   -7.6011   36.1799 H         1 GLY         0.0689
@<TRIPOS>BOND
     1    1    2 1  
     2    2    3 1  
     3    2    5 1  
     4    3    4 2  
     5    3    9 am 
     6    5    6 1  
     7    6    7 ar 
     8    6    8 ar 
     9    9   10 1  
    10   10   11 1  
    11   10   13 1  
    12   11   12 2  
    13   11   17 am 
    14   13   14 1  
    15   14   15 1  
    16   14   16 1  
    17   17   18 1  
    18   18   19 1  
    19   18   21 1  
    20   19   20 2  
    21   19   29 am 
    22   21   22 1  
    23   22   23 ar 
    24   22   24 ar 
    25   23   25 ar 
    26   24   26 ar 
    27   25   27 ar 
    28   26   27 ar 
    29   27   28 1  
    30   29   30 1  
    31   30   31 1  
    32   31   32 ar 
    33   31   33 ar 
    34    1   34 1  
    35    1   35 1  
    36    1   36 1  
    37    2   37 1  
    38    5   38 1  
    39    5   39 1  
    40    9   40 1  
    41   10   41 1  
    42   13   42 1  
    43   13   43 1  
    44   14   44 1  
    45   15   45 1  
    46   15   46 1  
    47   15   47 1  
    48   16   48 1  
    49   16   49 1  
    50   16   50 1  
    51   17   51 1  
    52   18   52 1  
    53   21   53 1  
    54   21   54 1  
    55   23   55 1  
    56   24   56 1  
    57   25   57 1  
    58   26   58 1  
    59   28   59 1  
    60   29   60 1  
    61   30   61 1  
    62   30   62 1  
@<TRIPOS>SUBSTRUCTURE
     1 ASP         1

