### 
### Created by X-TOOL on Mon Sep 10 21:13:00 2018
### 

@<TRIPOS>MOLECULE
3ebh_ligand
   46    46     1     0     0
SMALL
GAST_HUCK


@<TRIPOS>ATOM
      1 N2         11.3060   12.6890   12.1390 N.4       1 BES         0.2258
      2 C1         12.5960   12.0440   12.3500 C.3       1 BES         0.0291
      3 C6         13.2840   12.6490   13.5710 C.3       1 BES         0.0287
      4 C7         12.9890   11.9410   14.8790 C.ar      1 BES        -0.0374
      5 C8         12.2340   12.6020   15.8500 C.ar      1 BES        -0.0601
      6 C12        13.4890   10.6600   15.1410 C.ar      1 BES        -0.0601
      7 C9         11.9640   11.9770   17.0700 C.ar      1 BES        -0.0686
      8 C11        13.2190   10.0330   16.3650 C.ar      1 BES        -0.0686
      9 C10        12.4510   10.6950   17.3250 C.ar      1 BES        -0.0687
     10 C2         13.5130   12.1940   11.1330 C.3       1 BES         0.1881
     11 O2         12.8050   12.5270    9.9360 O.3       1 BES        -0.3664
     12 C3         14.1970   10.8890   10.8790 C.2       1 BES         0.2125
     13 O3         13.5530    9.9260   10.4990 O.2       1 BES        -0.3939
     14 N1         15.5040   10.8900   11.0810 N.am      1 BES        -0.2691
     15 C4         16.3580    9.7220   10.9190 C.3       1 BES         0.0946
     16 C13        17.1280    9.9220    9.6130 C.3       1 BES        -0.0156
     17 C14        17.1910    8.6810    8.7150 C.3       1 BES        -0.0431
     18 C15        15.9300    7.8190    8.7240 C.3       1 BES        -0.0625
     19 C16        17.5190    9.0630    7.2790 C.3       1 BES        -0.0625
     20 C5         17.2760    9.7200   12.1000 C.2       1 BES         0.0601
     21 O1         17.8430    8.6680   12.4740 O.co2     1 BES        -0.5666
     22 O4         17.4090   10.8100   12.6840 O.co2     1 BES        -0.5666
     23 H1         10.7323   12.5691   12.9591 H         1 BES         0.2001
     24 H2         10.8476   12.2715   11.3443 H         1 BES         0.2001
     25 H3         11.4460   13.6724   11.9679 H         1 BES         0.2001
     26 H4         12.4243   10.9725   12.5299 H         1 BES         0.0926
     27 H5         12.9566   13.6948   13.6659 H         1 BES         0.0484
     28 H6         14.3706   12.6188   13.4023 H         1 BES         0.0484
     29 H7         11.8574   13.6000   15.6572 H         1 BES         0.0557
     30 H8         14.0874   10.1509   14.3941 H         1 BES         0.0557
     31 H9         11.3741   12.4900   17.8209 H         1 BES         0.0599
     32 H10        13.6042    9.0397   16.5653 H         1 BES         0.0599
     33 H11        12.2328   10.2117   18.2704 H         1 BES         0.0559
     34 H12        14.2573   12.9761   11.3436 H         1 BES         0.0898
     35 H13        12.3497   13.3519   10.0578 H         1 BES         0.2136
     36 H14        15.9332   11.7480   11.3631 H         1 BES         0.1875
     37 H15        15.7714    8.7922   10.8821 H         1 BES         0.0726
     38 H16        18.1576   10.2175    9.8631 H         1 BES         0.0308
     39 H17        16.6414   10.7306    9.0478 H         1 BES         0.0308
     40 H18        18.0131    8.0565    9.0947 H         1 BES         0.0297
     41 H19        16.0698    6.9577    8.0542 H         1 BES         0.0232
     42 H20        15.0743    8.4174    8.3780 H         1 BES         0.0232
     43 H21        15.7378    7.4610    9.7462 H         1 BES         0.0232
     44 H22        18.4265    9.6844    7.2631 H         1 BES         0.0232
     45 H23        16.6795    9.6291    6.8492 H         1 BES         0.0232
     46 H24        17.6882    8.1517    6.6866 H         1 BES         0.0232
@<TRIPOS>BOND
     1    1    2 1  
     2    2    3 1  
     3    2   10 1  
     4    3    4 1  
     5    4    5 ar 
     6    4    6 ar 
     7    5    7 ar 
     8    6    8 ar 
     9    7    9 ar 
    10    8    9 ar 
    11   10   11 1  
    12   10   12 1  
    13   12   13 2  
    14   12   14 am 
    15   14   15 1  
    16   15   16 1  
    17   15   20 1  
    18   16   17 1  
    19   17   18 1  
    20   17   19 1  
    21   20   21 ar 
    22   20   22 ar 
    23    1   23 1  
    24    1   24 1  
    25    1   25 1  
    26    2   26 1  
    27    3   27 1  
    28    3   28 1  
    29    5   29 1  
    30    6   30 1  
    31    7   31 1  
    32    8   32 1  
    33    9   33 1  
    34   10   34 1  
    35   11   35 1  
    36   14   36 1  
    37   15   37 1  
    38   16   38 1  
    39   16   39 1  
    40   17   40 1  
    41   18   41 1  
    42   18   42 1  
    43   18   43 1  
    44   19   44 1  
    45   19   45 1  
    46   19   46 1  
@<TRIPOS>SUBSTRUCTURE
     1 BES         1

