### 
### Created by X-TOOL on Mon Sep 10 21:12:58 2018
### 

@<TRIPOS>MOLECULE
3ebl_ligand
   47    51     1     0     0
SMALL
GAST_HUCK


@<TRIPOS>ATOM
      1 C1         30.5200   46.4740   14.2660 C.3       1 GA4        -0.0167
      2 C2         29.4360   46.2260   13.2200 C.3       1 GA4        -0.0244
      3 C3         29.5620   44.8060   12.5960 C.3       1 GA4         0.0689
      4 O31        29.0310   43.8480   13.5190 O.3       1 GA4        -0.3924
      5 C4         31.0090   44.4270   12.2010 C.3       1 GA4         0.0927
      6 C5         31.8400   44.4800   13.4730 C.3       1 GA4         0.0230
      7 C6         33.3390   44.1100   13.4810 C.3       1 GA4         0.0255
      8 C7         33.5560   42.6400   13.7310 C.2       1 GA4         0.0388
      9 O71        32.9360   41.9780   14.6060 O.co2     1 GA4        -0.5687
     10 O72        34.3980   42.1300   12.9970 O.co2     1 GA4        -0.5687
     11 C8         34.0370   45.0690   14.4660 C.3       1 GA4         0.0051
     12 C9         33.0680   46.2830   14.6080 C.3       1 GA4         0.0026
     13 C10        31.8900   45.9970   13.7050 C.3       1 GA4         0.1053
     14 C11        33.7810   47.6300   14.3220 C.3       1 GA4        -0.0440
     15 C12        35.1130   47.7710   15.1060 C.3       1 GA4        -0.0379
     16 C13        35.8650   46.4110   15.2250 C.3       1 GA4        -0.0055
     17 C14        35.4170   45.5810   14.0360 C.3       1 GA4        -0.0284
     18 C15        34.3550   44.5090   15.8530 C.3       1 GA4        -0.0098
     19 C16        35.3230   45.5530   16.3290 C.2       1 GA4        -0.0698
     20 C17        35.6760   45.6310   17.6050 C.2       1 GA4        -0.1287
     21 C18        31.0990   43.0840   11.4690 C.3       1 GA4        -0.0493
     22 C19        31.5600   45.5790   11.4220 C.2       1 GA4         0.2650
     23 O91        31.5890   45.7400   10.1990 O.2       1 GA4        -0.3119
     24 O92        32.0940   46.4940   12.3580 O.3       1 GA4        -0.2699
     25 H1         30.2824   45.9137   15.1823 H         1 GA4         0.0297
     26 H2         30.5706   47.5485   14.4960 H         1 GA4         0.0297
     27 H3         29.5305   46.9771   12.4219 H         1 GA4         0.0289
     28 H4         28.4496   46.3205   13.6976 H         1 GA4         0.0289
     29 H5         28.9521   44.7846   11.6808 H         1 GA4         0.0584
     30 H6         29.1036   42.9771   13.1465 H         1 GA4         0.2096
     31 H7         31.3254   43.9254   14.2715 H         1 GA4         0.0345
     32 H8         33.7462   44.3168   12.4803 H         1 GA4         0.0476
     33 H9         32.7036   46.3235   15.6451 H         1 GA4         0.0341
     34 H10        33.1113   48.4530   14.6121 H         1 GA4         0.0271
     35 H11        33.9962   47.6945   13.2452 H         1 GA4         0.0271
     36 H12        34.8927   48.1450   16.1167 H         1 GA4         0.0294
     37 H13        35.7597   48.4900   14.5818 H         1 GA4         0.0294
     38 H14        36.9534   46.5559   15.2911 H         1 GA4         0.0495
     39 H15        35.3434   46.1989   13.1290 H         1 GA4         0.0303
     40 H16        36.1090   44.7453   13.8552 H         1 GA4         0.0303
     41 H17        34.8205   43.5139   15.7964 H         1 GA4         0.0466
     42 H18        33.4597   44.4594   16.4901 H         1 GA4         0.0466
     43 H19        36.3798   46.3960   17.9295 H         1 GA4         0.0075
     44 H20        35.2620   44.9300   18.3283 H         1 GA4         0.0075
     45 H21        30.4761   43.1178   10.5630 H         1 GA4         0.0222
     46 H22        30.7410   42.2812   12.1303 H         1 GA4         0.0222
     47 H23        32.1445   42.8888   11.1881 H         1 GA4         0.0222
@<TRIPOS>BOND
     1    1    2 1  
     2    1   13 1  
     3    2    3 1  
     4    3    4 1  
     5    3    5 1  
     6    5    6 1  
     7    5   21 1  
     8    5   22 1  
     9    6    7 1  
    10    6   13 1  
    11    7    8 1  
    12    7   11 1  
    13    8    9 ar 
    14    8   10 ar 
    15   11   12 1  
    16   11   17 1  
    17   11   18 1  
    18   12   13 1  
    19   12   14 1  
    20   13   24 1  
    21   14   15 1  
    22   15   16 1  
    23   16   17 1  
    24   16   19 1  
    25   18   19 1  
    26   19   20 2  
    27   22   23 2  
    28   22   24 1  
    29    1   25 1  
    30    1   26 1  
    31    2   27 1  
    32    2   28 1  
    33    3   29 1  
    34    4   30 1  
    35    6   31 1  
    36    7   32 1  
    37   12   33 1  
    38   14   34 1  
    39   14   35 1  
    40   15   36 1  
    41   15   37 1  
    42   16   38 1  
    43   17   39 1  
    44   17   40 1  
    45   18   41 1  
    46   18   42 1  
    47   20   43 1  
    48   20   44 1  
    49   21   45 1  
    50   21   46 1  
    51   21   47 1  
@<TRIPOS>SUBSTRUCTURE
     1 GA4         1

