### 
### Created by X-TOOL on Mon Sep 10 21:13:00 2018
### 

@<TRIPOS>MOLECULE
3ebo_ligand
   29    31     1     0     0
SMALL
GAST_HUCK


@<TRIPOS>ATOM
      1 C2         38.0080   34.8180   29.2280 C.2       1 57D         0.1434
      2 C3         37.1260   34.2620   30.1620 C.2       1 57D         0.0085
      3 C4         36.9250   34.8990   31.3890 C.2       1 57D         0.1012
      4 C5         37.6280   36.0800   31.6630 C.ar      1 57D         0.0778
      5 C6         37.5320   36.7360   32.8950 C.ar      1 57D         0.0936
      6 C7         38.2630   37.9000   33.1250 C.ar      1 57D        -0.0085
      7 C8         39.1070   38.4050   32.1410 C.ar      1 57D         0.0776
      8 C9         39.2260   37.7520   30.9250 C.ar      1 57D        -0.0032
      9 C10        38.4930   36.5890   30.6900 C.ar      1 57D         0.1294
     10 O1         38.6660   35.9860   29.4870 O.3       1 57D        -0.2412
     11 O4         36.1450   34.4180   32.2160 O.2       1 57D        -0.4247
     12 O5         36.7190   36.2810   33.8900 O.3       1 57D        -0.3325
     13 O7         39.8200   39.5380   32.3690 O.3       1 57D        -0.3350
     14 C2'        38.6830   35.0410   26.9230 C.ar      1 57D        -0.0449
     15 C3'        38.9820   34.4750   25.6860 C.ar      1 57D        -0.0570
     16 C4'        38.8890   33.0960   25.5120 C.ar      1 57D        -0.0581
     17 C5'        38.4960   32.2820   26.5760 C.ar      1 57D        -0.0570
     18 C6'        38.2010   32.8460   27.8160 C.ar      1 57D        -0.0449
     19 C1'        38.2770   34.2310   27.9910 C.ar      1 57D         0.0307
     20 H1         36.5988   33.3370   29.9332 H         1 57D         0.0422
     21 H2         38.1736   38.4143   34.0750 H         1 57D         0.0403
     22 H3         39.8861   38.1434   30.1594 H         1 57D         0.0401
     23 H4         36.2834   35.4870   33.6033 H         1 57D         0.2503
     24 H5         39.5806   40.1961   31.7270 H         1 57D         0.2494
     25 H6         38.7649   36.1132   27.0597 H         1 57D         0.0661
     26 H7         39.2867   35.1069   24.8596 H         1 57D         0.0628
     27 H8         39.1220   32.6546   24.5497 H         1 57D         0.0648
     28 H9         38.4202   31.2096   26.4375 H         1 57D         0.0628
     29 H10        37.9124   32.2103   28.6453 H         1 57D         0.0661
@<TRIPOS>BOND
     1    1    2 2  
     2    1   10 1  
     3   19    1 1  
     4    2    3 1  
     5    3    4 1  
     6    3   11 2  
     7    4    5 ar 
     8    9    4 ar 
     9    5    6 ar 
    10    5   12 1  
    11    7    6 ar 
    12    8    7 ar 
    13    7   13 1  
    14    9    8 ar 
    15   10    9 1  
    16   14   15 ar 
    17   14   19 ar 
    18   15   16 ar 
    19   16   17 ar 
    20   17   18 ar 
    21   18   19 ar 
    22    2   20 1  
    23    6   21 1  
    24    8   22 1  
    25   12   23 1  
    26   13   24 1  
    27   14   25 1  
    28   15   26 1  
    29   16   27 1  
    30   17   28 1  
    31   18   29 1  
@<TRIPOS>SUBSTRUCTURE
     1 57D         1

