### 
### Created by X-TOOL on Mon Sep 10 21:12:58 2018
### 

@<TRIPOS>MOLECULE
3ecn_ligand
   30    31     1     0     0
SMALL
GAST_HUCK


@<TRIPOS>ATOM
      1 N9         -1.3710  -10.2650   19.1130 N.2       1 IBM        -0.2860
      2 C8         -1.6880   -9.5450   20.2390 C.2       1 IBM         0.0953
      3 N7         -1.5960  -10.2340   21.3490 N.pl3     1 IBM        -0.2657
      4 C5         -1.1910  -11.4920   20.9250 C.2       1 IBM         0.1602
      5 C4         -1.0490  -11.5280   19.5530 C.2       1 IBM         0.1379
      6 N3         -0.6760  -12.5810   18.7920 N.am      1 IBM        -0.1992
      7 C2         -0.4000  -13.7210   19.4950 C.2       1 IBM         0.3179
      8 N1         -0.5190  -13.7800   20.8890 N.am      1 IBM        -0.1740
      9 C6         -0.9150  -12.6740   21.6040 C.2       1 IBM         0.2295
     10 O6         -1.0170  -12.7230   22.8260 O.2       1 IBM        -0.4007
     11 O2         -0.0400  -14.7230   18.8870 O.2       1 IBM        -0.3873
     12 C10        -0.2280  -15.0230   21.5860 C.3       1 IBM         0.0477
     13 C11        -0.6190  -12.5140   17.3340 C.3       1 IBM         0.0580
     14 C12         0.8320  -12.3490   16.8690 C.3       1 IBM        -0.0214
     15 C13         1.4340  -13.7060   16.5190 C.3       1 IBM        -0.0604
     16 C14         0.8870  -11.4190   15.6580 C.3       1 IBM        -0.0604
     17 H1         -1.9880   -8.4985   20.2113 H         1 IBM         0.1261
     18 H2         -1.7809   -9.9166   22.3113 H         1 IBM         0.2315
     19 H3          0.0708  -15.7908   20.8571 H         1 IBM         0.0539
     20 H4         -1.1254  -15.3595   22.1259 H         1 IBM         0.0539
     21 H5          0.5907  -14.8589   22.3020 H         1 IBM         0.0539
     22 H6         -1.2120  -11.6554   16.9861 H         1 IBM         0.0587
     23 H7         -1.0330  -13.4412   16.9110 H         1 IBM         0.0587
     24 H8          1.4177  -11.9027   17.6862 H         1 IBM         0.0320
     25 H9          2.4742  -13.5711   16.1875 H         1 IBM         0.0233
     26 H10         0.8488  -14.1694   15.7110 H         1 IBM         0.0233
     27 H11         1.4133  -14.3561   17.4061 H         1 IBM         0.0233
     28 H12         0.4503  -10.4450   15.9236 H         1 IBM         0.0233
     29 H13         0.3166  -11.8627   14.8287 H         1 IBM         0.0233
     30 H14         1.9337  -11.2797   15.3499 H         1 IBM         0.0233
@<TRIPOS>BOND
     1    1    2 2  
     2    1    5 1  
     3    2    3 1  
     4    3    4 1  
     5    4    5 2  
     6    4    9 1  
     7    5    6 1  
     8    6    7 am 
     9    6   13 1  
    10    7    8 am 
    11    7   11 2  
    12    8    9 am 
    13    8   12 1  
    14    9   10 2  
    15   13   14 1  
    16   14   15 1  
    17   14   16 1  
    18    2   17 1  
    19    3   18 1  
    20   12   19 1  
    21   12   20 1  
    22   12   21 1  
    23   13   22 1  
    24   13   23 1  
    25   14   24 1  
    26   15   25 1  
    27   15   26 1  
    28   15   27 1  
    29   16   28 1  
    30   16   29 1  
    31   16   30 1  
@<TRIPOS>SUBSTRUCTURE
     1 IBM         1

