### 
### Created by X-TOOL on Mon Sep 10 21:13:01 2018
### 

@<TRIPOS>MOLECULE
3ed0_ligand
   30    32     1     0     0
SMALL
GAST_HUCK


@<TRIPOS>ATOM
      1 C1        -51.5740  -14.9150  -11.1270 C.ar      1 EMO         0.1040
      2 O1        -51.3360  -13.6820  -10.6100 O.3       1 EMO        -0.3292
      3 C2        -50.5300  -15.8120  -11.2790 C.ar      1 EMO         0.0054
      4 C3        -50.7680  -17.0630  -11.8140 C.ar      1 EMO         0.0903
      5 O3        -49.7460  -17.9390  -11.9680 O.3       1 EMO        -0.3313
      6 C4        -52.0550  -17.4180  -12.1930 C.ar      1 EMO        -0.0198
      7 C5        -53.1090  -16.5220  -12.0440 C.ar      1 EMO         0.0354
      8 C6        -54.4030  -16.8680  -12.4120 C.2       1 EMO         0.1600
      9 O6        -54.6280  -17.9800  -12.8850 O.2       1 EMO        -0.3614
     10 C7        -55.4450  -15.9620  -12.2490 C.ar      1 EMO         0.0369
     11 C8        -56.7360  -16.3080  -12.6130 C.ar      1 EMO        -0.0475
     12 C9        -57.7810  -15.4100  -12.4630 C.ar      1 EMO        -0.0442
     13 C10       -59.1860  -15.8240  -12.8790 C.3       1 EMO        -0.0304
     14 C16       -57.5500  -14.1510  -11.9460 C.ar      1 EMO        -0.0217
     15 C17       -56.2590  -13.8080  -11.5730 C.ar      1 EMO         0.1058
     16 O17       -56.0330  -12.5760  -11.0540 O.3       1 EMO        -0.3282
     17 C18       -55.2030  -14.7090  -11.7240 C.ar      1 EMO         0.0689
     18 C19       -53.9080  -14.3750  -11.3620 C.2       1 EMO         0.1440
     19 O19       -53.6550  -13.2770  -10.8870 O.2       1 EMO        -0.3839
     20 C20       -52.8670  -15.2710  -11.5140 C.ar      1 EMO         0.0655
     21 H1        -52.1497  -13.1932  -10.5723 H         1 EMO         0.2508
     22 H2        -49.5267  -15.5326  -10.9783 H         1 EMO         0.0512
     23 H3        -49.0917  -17.5624  -12.5448 H         1 EMO         0.2498
     24 H4        -52.2407  -18.4018  -12.6087 H         1 EMO         0.0525
     25 H5        -56.9314  -17.2934  -13.0202 H         1 EMO         0.0536
     26 H6        -59.8834  -14.9944  -12.6911 H         1 EMO         0.0399
     27 H7        -59.4969  -16.7034  -12.2960 H         1 EMO         0.0399
     28 H8        -59.1928  -16.0732  -13.9504 H         1 EMO         0.0399
     29 H9        -58.3632  -13.4431  -11.8336 H         1 EMO         0.0528
     30 H10       -55.1103  -12.4851  -10.8471 H         1 EMO         0.2509
@<TRIPOS>BOND
     1    1    2 1  
     2    1    3 ar 
     3    1   20 ar 
     4    3    4 ar 
     5    4    5 1  
     6    4    6 ar 
     7    6    7 ar 
     8    7    8 1  
     9    7   20 ar 
    10    8    9 2  
    11    8   10 1  
    12   10   11 ar 
    13   10   17 ar 
    14   11   12 ar 
    15   12   13 1  
    16   12   14 ar 
    17   14   15 ar 
    18   15   16 1  
    19   15   17 ar 
    20   17   18 1  
    21   18   19 2  
    22   18   20 1  
    23    2   21 1  
    24    3   22 1  
    25    5   23 1  
    26    6   24 1  
    27   11   25 1  
    28   13   26 1  
    29   13   27 1  
    30   13   28 1  
    31   14   29 1  
    32   16   30 1  
@<TRIPOS>SUBSTRUCTURE
     1 EMO         1

