### 
### Created by X-TOOL on Mon Sep 10 21:12:57 2018
### 

@<TRIPOS>MOLECULE
3ee2_ligand
   32    34     1     0     0
SMALL
GAST_HUCK


@<TRIPOS>ATOM
      1 O2         16.0330   14.2250   40.0370 O.2       1 NZO        -0.3632
      2 C13        17.2130   14.5730   40.0600 C.2       1 NZO         0.3618
      3 O3         17.5510   15.9890   40.2520 O.3       1 NZO        -0.2607
      4 C14        16.7870   17.0560   39.6730 C.3       1 NZO         0.0670
      5 N3         18.1990   13.6800   39.9140 N.am      1 NZO        -0.1585
      6 C12        18.5210   12.7430   40.8720 C.2       1 NZO         0.2436
      7 N1         17.8240   12.5090   42.0050 N.2       1 NZO        -0.3124
      8 C8         18.4980   11.5170   42.6420 C.ar      1 NZO         0.0147
      9 C7         18.2820   10.8450   43.8500 C.ar      1 NZO        -0.0516
     10 N2         19.5960   11.9580   40.7320 N.pl3     1 NZO        -0.2256
     11 C9         19.5930   11.1840   41.8410 C.ar      1 NZO         0.0782
     12 C10        20.4630   10.1900   42.2430 C.ar      1 NZO        -0.0403
     13 C11        20.2460    9.5260   43.4380 C.ar      1 NZO        -0.0616
     14 C6         19.1630    9.8350   44.2460 C.ar      1 NZO         0.0124
     15 C5         18.9810    9.0740   45.5410 C.2       1 NZO         0.1525
     16 O1         18.4090    9.6020   46.4570 O.2       1 NZO        -0.3807
     17 C4         19.4660    7.6870   45.7770 C.2       1 NZO         0.0825
     18 C3         19.6250    6.6270   44.9190 C.2       1 NZO        -0.0561
     19 C2         20.1060    5.5240   45.5880 C.2       1 NZO        -0.0657
     20 C1         20.2910    5.7100   46.9480 C.2       1 NZO         0.0016
     21 S          19.8880    7.3240   47.4340 S.3       1 NZO        -0.0270
     22 H1         17.2320   18.0212   39.9563 H         1 NZO         0.0575
     23 H2         15.7516   17.0074   40.0413 H         1 NZO         0.0575
     24 H3         16.7915   16.9577   38.5774 H         1 NZO         0.0575
     25 H4         18.7293   13.6933   39.0663 H         1 NZO         0.2425
     26 H5         17.4360   11.1063   44.4753 H         1 NZO         0.0568
     27 H6         20.2725   11.9461   39.9554 H         1 NZO         0.2310
     28 H7         21.3142    9.9302   41.6241 H         1 NZO         0.0541
     29 H8         20.9361    8.7496   43.7478 H         1 NZO         0.0554
     30 H9         19.4010    6.6549   43.8536 H         1 NZO         0.0520
     31 H10        20.3235    4.5813   45.0881 H         1 NZO         0.0440
     32 H11        20.6460    4.9372   47.6282 H         1 NZO         0.0807
@<TRIPOS>BOND
     1    1    2 2  
     2    2    3 1  
     3    2    5 am 
     4    3    4 1  
     5    5    6 1  
     6    6    7 2  
     7    6   10 1  
     8    7    8 1  
     9    8    9 ar 
    10    8   11 ar 
    11    9   14 ar 
    12   10   11 1  
    13   11   12 ar 
    14   12   13 ar 
    15   13   14 ar 
    16   14   15 1  
    17   15   16 2  
    18   15   17 1  
    19   17   18 2  
    20   17   21 1  
    21   18   19 1  
    22   19   20 2  
    23   20   21 1  
    24    4   22 1  
    25    4   23 1  
    26    4   24 1  
    27    5   25 1  
    28    9   26 1  
    29   10   27 1  
    30   12   28 1  
    31   13   29 1  
    32   18   30 1  
    33   19   31 1  
    34   20   32 1  
@<TRIPOS>SUBSTRUCTURE
     1 NZO         1

