### 
### Created by X-TOOL on Mon Sep 10 21:12:59 2018
### 

@<TRIPOS>MOLECULE
3efj_ligand
   61    65     1     0     0
SMALL
GAST_HUCK


@<TRIPOS>ATOM
      1 N1         62.4910   15.2630  110.3790 N.am      1 MT3        -0.1808
      2 N3         64.0070   12.8630  121.0900 N.ar      1 MT3        -0.3285
      3 C4         66.9580   15.6790  106.7630 C.ar      1 MT3        -0.0681
      4 C5         65.7570   16.0580  106.1680 C.ar      1 MT3        -0.0677
      5 C6         64.7190   16.5520  106.9520 C.ar      1 MT3        -0.0568
      6 C7         62.6710   15.1320  112.7970 C.2       1 MT3         0.0440
      7 C8         62.1690   14.6200  111.5940 C.2       1 MT3         0.2208
      8 C10        63.4730   16.2650  112.7420 C.2       1 MT3        -0.0130
      9 C13        62.3990   13.1910  114.2650 C.ar      1 MT3        -0.0344
     10 C15        62.0720   15.4190  115.1280 C.ar      1 MT3        -0.0718
     11 C17        61.8860   12.4840  120.1070 C.ar      1 MT3         0.0273
     12 C20        60.9340   11.6390  122.5970 C.ar      1 MT3         0.1285
     13 C21        62.2640   12.0490  122.4550 C.ar      1 MT3        -0.0215
     14 C22        62.7330   12.4680  121.2150 C.ar      1 MT3         0.0171
     15 C24        63.6970   13.3260  118.7800 C.ar      1 MT3        -0.0090
     16 C26        57.9050   11.2980  120.6350 C.3       1 MT3         0.0581
     17 C28        63.7170   17.2120  109.1500 C.3       1 MT3         0.0745
     18 C27        61.2930   10.5380  124.6840 C.3       1 MT3         0.0593
     19 O2         60.3960   11.2090  123.7760 O.3       1 MT3        -0.3184
     20 C19        60.0890   11.6630  121.5050 C.ar      1 MT3         0.1283
     21 O1         58.8170   11.2440  121.7320 O.3       1 MT3        -0.3208
     22 C18        60.5570   12.0830  120.2570 C.ar      1 MT3        -0.0223
     23 C23        64.4910   13.2810  119.9240 C.ar      1 MT3        -0.0137
     24 C25        62.3700   12.9240  118.8680 C.ar      1 MT3         0.1369
     25 O3         61.5230   12.9450  117.7910 O.3       1 MT3        -0.2467
     26 C11        61.8180   13.5450  116.6020 C.ar      1 MT3         0.1521
     27 C12        62.1110   12.7070  115.5400 C.ar      1 MT3         0.1619
     28 F1         62.1220   11.3920  115.7930 F         1 MT3        -0.1894
     29 C16        61.7840   14.9240  116.4040 C.ar      1 MT3        -0.0322
     30 C14        62.3880   14.5690  114.0540 C.ar      1 MT3        -0.0377
     31 O4         61.4500   13.6140  111.5800 O.2       1 MT3        -0.4045
     32 C29        61.9550   14.7140  109.1000 C.3       1 MT3         0.0623
     33 N2         63.7680   16.8540  111.5940 N.2       1 MT3        -0.2922
     34 C9         63.3260   16.4060  110.4070 C.2       1 MT3         0.1680
     35 C1         64.8730   16.6580  108.3310 C.ar      1 MT3        -0.0196
     36 C2         66.0750   16.2860  108.9280 C.ar      1 MT3        -0.0568
     37 C3         67.1180   15.7910  108.1440 C.ar      1 MT3        -0.0677
     38 H1         67.7684   15.2970  106.1527 H         1 MT3         0.0564
     39 H2         65.6311   15.9682  105.0951 H         1 MT3         0.0601
     40 H3         63.7878   16.8551  106.4873 H         1 MT3         0.0565
     41 H4         63.8694   16.6794  113.6678 H         1 MT3         0.0818
     42 H5         62.6270   12.5094  113.4535 H         1 MT3         0.0533
     43 H6         62.0509   16.4901  114.9623 H         1 MT3         0.0519
     44 H7         62.9286   12.0400  123.3113 H         1 MT3         0.0484
     45 H8         64.1077   13.6689  117.8372 H         1 MT3         0.0547
     46 H9         56.9197   10.9317  120.9590 H         1 MT3         0.0575
     47 H10        58.2794   10.6670  119.8155 H         1 MT3         0.0575
     48 H11        57.8131   12.3369  120.2853 H         1 MT3         0.0575
     49 H12        63.9909   18.2270  109.4736 H         1 MT3         0.0728
     50 H13        62.8348   17.2615  108.4949 H         1 MT3         0.0728
     51 H14        60.7440   10.2426  125.5903 H         1 MT3         0.0578
     52 H15        62.1137   11.2174  124.9576 H         1 MT3         0.0578
     53 H16        61.7055    9.6422  124.1969 H         1 MT3         0.0578
     54 H17        59.8876   12.0975  119.4045 H         1 MT3         0.0520
     55 H18        65.5270   13.5939  119.8622 H         1 MT3         0.0771
     56 H19        61.5404   15.5963  117.2187 H         1 MT3         0.0540
     57 H20        61.3346   13.8307  109.3116 H         1 MT3         0.0602
     58 H21        62.7910   14.4265  108.4454 H         1 MT3         0.0602
     59 H22        61.3441   15.4798  108.5997 H         1 MT3         0.0602
     60 H23        66.2003   16.3809  110.0006 H         1 MT3         0.0565
     61 H24        68.0516   15.4938  108.6079 H         1 MT3         0.0601
@<TRIPOS>BOND
     1    7    1 am 
     2    1   32 1  
     3    1   34 1  
     4   14    2 ar 
     5   23    2 ar 
     6    4    3 ar 
     7    3   37 ar 
     8    5    4 ar 
     9   35    5 ar 
    10    6    7 1  
    11    6    8 2  
    12   30    6 1  
    13    7   31 2  
    14    8   33 1  
    15   27    9 ar 
    16    9   30 ar 
    17   10   29 ar 
    18   30   10 ar 
    19   11   14 ar 
    20   11   22 ar 
    21   24   11 ar 
    22   13   12 ar 
    23   12   19 1  
    24   20   12 ar 
    25   14   13 ar 
    26   15   23 ar 
    27   24   15 ar 
    28   21   16 1  
    29   34   17 1  
    30   17   35 1  
    31   19   18 1  
    32   20   21 1  
    33   22   20 ar 
    34   25   24 1  
    35   26   25 1  
    36   26   27 ar 
    37   26   29 ar 
    38   27   28 1  
    39   33   34 2  
    40   35   36 ar 
    41   36   37 ar 
    42    3   38 1  
    43    4   39 1  
    44    5   40 1  
    45    8   41 1  
    46    9   42 1  
    47   10   43 1  
    48   13   44 1  
    49   15   45 1  
    50   16   46 1  
    51   16   47 1  
    52   16   48 1  
    53   17   49 1  
    54   17   50 1  
    55   18   51 1  
    56   18   52 1  
    57   18   53 1  
    58   22   54 1  
    59   23   55 1  
    60   29   56 1  
    61   32   57 1  
    62   32   58 1  
    63   32   59 1  
    64   36   60 1  
    65   37   61 1  
@<TRIPOS>SUBSTRUCTURE
     1 MT3         1

