### 
### Created by X-TOOL on Mon Sep 10 21:12:59 2018
### 

@<TRIPOS>MOLECULE
3efk_ligand
   61    65     1     0     0
SMALL
GAST_HUCK


@<TRIPOS>ATOM
      1 N1         64.5820   12.5240  121.0950 N.ar      1 MT4        -0.3094
      2 N3         65.0080   15.1890  111.0510 N.pl3     1 MT4        -0.2316
      3 C4         64.3200   13.0940  118.8090 C.ar      1 MT4         0.0099
      4 C5         62.9650   12.7540  118.8510 C.ar      1 MT4         0.1692
      5 C6         60.5950   11.4610  121.3880 C.ar      1 MT4         0.1379
      6 C7         61.4230   11.3570  122.5030 C.ar      1 MT4         0.1361
      7 C8         62.7750   11.7090  122.3980 C.ar      1 MT4        -0.0127
      8 C10        61.6580   10.8720  124.8540 C.3       1 MT4         0.0595
      9 C13        62.7350   12.8440  115.4850 C.ar      1 MT4         0.2050
     10 C15        63.3380   14.8260  114.2740 C.ar      1 MT4         0.0301
     11 C17        62.7460   14.9370  116.6600 C.ar      1 MT4         0.0116
     12 C20        64.8910   16.4950  110.7420 C.cat     1 MT4         0.2174
     13 C21        64.5090   14.6770  112.1700 C.2       1 MT4         0.1228
     14 C22        64.0480   18.7970  111.3310 C.3       1 MT4         0.0207
     15 C24        66.0660   16.3510  107.4320 C.ar      1 MT4        -0.0369
     16 C26        68.1850   15.2360  107.1250 C.ar      1 MT4         0.1227
     17 C28        67.4970   15.9060  109.3290 C.ar      1 MT4        -0.0369
     18 O2         60.8560   10.8850  123.6640 O.3       1 MT4        -0.3166
     19 O1         59.2830   11.1060  121.5270 O.3       1 MT4        -0.3154
     20 C11        58.5190   11.1880  120.3220 C.3       1 MT4         0.0601
     21 C9         61.1050   11.9240  120.1720 C.ar      1 MT4        -0.0121
     22 C1         62.4480   12.2850  120.0660 C.ar      1 MT4         0.0438
     23 C2         63.2860   12.1740  121.1850 C.ar      1 MT4         0.0338
     24 C3         65.1030   12.9730  119.9600 C.ar      1 MT4         0.0040
     25 O3         62.1320   12.8550  117.7580 O.3       1 MT4        -0.2029
     26 C12        62.5410   13.5570  116.6590 C.ar      1 MT4         0.2082
     27 C14        63.1350   13.4500  114.3020 C.ar      1 MT4         0.0073
     28 F2         62.5240   11.5250  115.5180 F         1 MT4        -0.1713
     29 C16        63.1590   15.5440  115.4680 C.ar      1 MT4        -0.0278
     30 C18        63.7970   15.4470  113.0960 C.2       1 MT4         0.1387
     31 C19        63.6630   16.8160  112.8260 C.2       1 MT4         0.2250
     32 O4         63.0700   17.5700  113.5940 O.2       1 MT4        -0.3805
     33 N2         64.2080   17.3480  111.6360 N.am      1 MT4        -0.2412
     34 N4         65.4000   17.0080  109.6040 N.pl3     1 MT4        -0.2769
     35 C23        66.3070   16.4250  108.8080 C.ar      1 MT4         0.0576
     36 C25        67.0020   15.7510  106.5880 C.ar      1 MT4        -0.0349
     37 F1         69.1000   14.6580  106.3250 F         1 MT4        -0.1909
     38 C27        68.4350   15.3150  108.4920 C.ar      1 MT4        -0.0349
     39 H1         65.5018   14.5657  110.3963 H         1 MT4         0.2417
     40 H2         64.7624   13.4507  117.8859 H         1 MT4         0.0661
     41 H3         63.4256   11.6201  123.2605 H         1 MT4         0.0542
     42 H4         61.0670   10.4699  125.6901 H         1 MT4         0.0578
     43 H5         61.9787   11.8971  125.0913 H         1 MT4         0.0578
     44 H6         62.5430   10.2390  124.6928 H         1 MT4         0.0578
     45 H7         62.5899   15.5228  117.5586 H         1 MT4         0.0698
     46 H8         64.6596   13.6180  112.3746 H         1 MT4         0.1704
     47 H9         64.5336   19.0254  110.3708 H         1 MT4         0.0481
     48 H10        64.5147   19.3934  112.1288 H         1 MT4         0.0481
     49 H11        62.9776   19.0425  111.2680 H         1 MT4         0.0481
     50 H12        65.1506   16.7604  107.0204 H         1 MT4         0.0548
     51 H13        67.6887   15.9655  110.3943 H         1 MT4         0.0548
     52 H14        57.4808   10.8862  120.5249 H         1 MT4         0.0579
     53 H15        58.9543   10.5184  119.5656 H         1 MT4         0.0579
     54 H16        58.5337   12.2224  119.9481 H         1 MT4         0.0579
     55 H17        60.4546   12.0028  119.3084 H         1 MT4         0.0578
     56 H18        66.1505   13.2497  119.9254 H         1 MT4         0.0818
     57 H19        63.2878   12.8564  113.4080 H         1 MT4         0.0706
     58 H20        63.3483   16.6113  115.4664 H         1 MT4         0.0739
     59 H21        65.0591   17.9372  109.3189 H         1 MT4         0.2080
     60 H22        66.8125   15.6849  105.5227 H         1 MT4         0.0583
     61 H23        69.3567   14.9175  108.9013 H         1 MT4         0.0583
@<TRIPOS>BOND
     1   23    1 ar 
     2   24    1 ar 
     3   12    2 ar 
     4    2   13 1  
     5    4    3 ar 
     6    3   24 ar 
     7    4   22 ar 
     8   25    4 1  
     9    5    6 ar 
    10    5   19 1  
    11   21    5 ar 
    12    7    6 ar 
    13    6   18 1  
    14   23    7 ar 
    15   18    8 1  
    16    9   26 ar 
    17   27    9 ar 
    18    9   28 1  
    19   10   27 ar 
    20   10   29 ar 
    21   30   10 1  
    22   11   26 ar 
    23   29   11 ar 
    24   12   33 ar 
    25   34   12 ar 
    26   13   30 2  
    27   33   14 1  
    28   35   15 ar 
    29   15   36 ar 
    30   36   16 ar 
    31   16   37 1  
    32   38   16 ar 
    33   35   17 ar 
    34   17   38 ar 
    35   19   20 1  
    36   22   21 ar 
    37   22   23 ar 
    38   26   25 1  
    39   31   30 1  
    40   31   32 2  
    41   33   31 am 
    42   34   35 1  
    43    2   39 1  
    44    3   40 1  
    45    7   41 1  
    46    8   42 1  
    47    8   43 1  
    48    8   44 1  
    49   11   45 1  
    50   13   46 1  
    51   14   47 1  
    52   14   48 1  
    53   14   49 1  
    54   15   50 1  
    55   17   51 1  
    56   20   52 1  
    57   20   53 1  
    58   20   54 1  
    59   21   55 1  
    60   24   56 1  
    61   27   57 1  
    62   29   58 1  
    63   34   59 1  
    64   36   60 1  
    65   38   61 1  
@<TRIPOS>SUBSTRUCTURE
     1 MT4         1

