### 
### Created by X-TOOL on Mon Sep 10 21:13:02 2018
### 

@<TRIPOS>MOLECULE
3efr_ligand
   31    32     1     0     0
SMALL
GAST_HUCK


@<TRIPOS>ATOM
      1 C11        13.1660    4.3510   12.8710 C.2       1 BTN         0.0348
      2 O11        13.0800    5.1890   11.9470 O.co2     1 BTN        -0.5690
      3 O12        14.1040    3.5220   12.8480 O.co2     1 BTN        -0.5690
      4 C10        12.1400    4.3490   13.9810 C.3       1 BTN         0.0002
      5 C9         12.7870    4.6550   15.3250 C.3       1 BTN        -0.0414
      6 C8         13.7330    3.5290   15.7180 C.3       1 BTN        -0.0505
      7 C7         13.2560    2.8390   16.9910 C.3       1 BTN        -0.0389
      8 C2         13.2070    3.7810   18.1840 C.3       1 BTN         0.0302
      9 S1         14.4560    3.3770   19.2160 S.3       1 BTN        -0.1528
     10 C6         13.4710    3.7360   20.6920 C.3       1 BTN         0.0181
     11 C5         11.9910    3.7080   20.3690 C.3       1 BTN         0.0723
     12 N1         11.3850    2.4580   20.7830 N.pl3     1 BTN        -0.2691
     13 C3         10.9950    1.7370   19.7390 C.2       1 BTN         0.2604
     14 O3         10.4040    0.4580   19.8090 O.2       1 BTN        -0.3918
     15 N2         11.2410    2.3910   18.6120 N.am      1 BTN        -0.2656
     16 C4         11.8470    3.6820   18.8610 C.3       1 BTN         0.0771
     17 H1         11.6639    3.3585   14.0286 H         1 BTN         0.0430
     18 H2         11.3776    5.1125   13.7671 H         1 BTN         0.0430
     19 H3         12.0042    4.7566   16.0911 H         1 BTN         0.0283
     20 H4         13.3521    5.5959   15.2511 H         1 BTN         0.0283
     21 H5         14.7371    3.9447   15.8880 H         1 BTN         0.0267
     22 H6         13.7745    2.7920   14.9025 H         1 BTN         0.0267
     23 H7         13.9440    2.0126   17.2228 H         1 BTN         0.0277
     24 H8         12.2466    2.4379   16.8172 H         1 BTN         0.0277
     25 H9         13.3515    4.8152   17.8384 H         1 BTN         0.0435
     26 H10        13.7389    4.7333   21.0709 H         1 BTN         0.0398
     27 H11        13.6866    2.9809   21.4623 H         1 BTN         0.0398
     28 H12        11.4805    4.5715   20.8203 H         1 BTN         0.0572
     29 H13        11.2713    2.1659   21.7642 H         1 BTN         0.1787
     30 H14        11.0332    2.0356   17.7007 H         1 BTN         0.1859
     31 H15        11.1994    4.4989   18.5100 H         1 BTN         0.0587
@<TRIPOS>BOND
     1    1    2 ar 
     2    1    3 ar 
     3    1    4 1  
     4    4    5 1  
     5    5    6 1  
     6    6    7 1  
     7    7    8 1  
     8    8    9 1  
     9    8   16 1  
    10    9   10 1  
    11   10   11 1  
    12   11   12 1  
    13   11   16 1  
    14   12   13 1  
    15   13   14 2  
    16   13   15 am 
    17   15   16 1  
    18    4   17 1  
    19    4   18 1  
    20    5   19 1  
    21    5   20 1  
    22    6   21 1  
    23    6   22 1  
    24    7   23 1  
    25    7   24 1  
    26    8   25 1  
    27   10   26 1  
    28   10   27 1  
    29   11   28 1  
    30   12   29 1  
    31   15   30 1  
    32   16   31 1  
@<TRIPOS>SUBSTRUCTURE
     1 BTN         1

