### 
### Created by X-TOOL on Mon Sep 10 21:12:59 2018
### 

@<TRIPOS>MOLECULE
3efw_ligand
   57    60     1     0     0
SMALL
GAST_HUCK


@<TRIPOS>ATOM
      1 N1         64.4400   30.4790    5.0730 N.ar      1 AK8        -0.2532
      2 N3         65.4140   26.0240    6.1320 N.ar      1 AK8        -0.2657
      3 C4         64.7660   30.2380    2.3830 C.ar      1 AK8         0.0112
      4 C5         65.2660   28.3120    5.5060 C.ar      1 AK8         0.0652
      5 C6         65.8180   28.6770    6.7320 C.ar      1 AK8        -0.0367
      6 C7         66.1570   27.6860    7.6460 C.ar      1 AK8        -0.0414
      7 C8         65.9400   26.3530    7.3060 C.ar      1 AK8         0.0032
      8 C10        63.6270   32.9120    6.1860 C.3       1 AK8         0.0194
      9 C13        65.4780   23.3750    2.5240 C.ar      1 AK8        -0.0546
     10 C15        63.4620   23.0610    3.8030 C.ar      1 AK8        -0.0464
     11 C17        62.3330   24.9370    5.0700 C.3       1 AK8        -0.0352
     12 C20        67.1230   18.0460    3.5800 C.ar      1 AK8        -0.0114
     13 C21        67.8720   16.8930    3.8070 C.ar      1 AK8        -0.0435
     14 C22        67.4390   15.6600    3.3190 C.ar      1 AK8        -0.0452
     15 C24        65.5020   16.7380    2.3730 C.ar      1 AK8        -0.0127
     16 N4         63.6130   32.6240    4.7330 N.pl3     1 AK8        -0.2927
     17 C1         64.1080   31.4820    4.2410 C.ar      1 AK8         0.1870
     18 N2         64.2750   31.3470    2.9120 N.ar      1 AK8        -0.2578
     19 C3         65.1120   29.1850    3.2220 C.ar      1 AK8        -0.0192
     20 C2         64.9300   29.3240    4.6030 C.ar      1 AK8         0.0570
     21 C9         65.0740   26.9530    5.2230 C.ar      1 AK8         0.2004
     22 O1         64.5270   26.5810    4.0250 O.3       1 AK8        -0.2465
     23 C11        64.4870   25.2480    3.7090 C.ar      1 AK8         0.1090
     24 C16        63.4600   24.4100    4.1640 C.ar      1 AK8        -0.0233
     25 C12        65.4860   24.7240    2.8850 C.ar      1 AK8        -0.0461
     26 C14        64.4660   22.5310    2.9850 C.ar      1 AK8         0.0511
     27 N5         64.4250   21.2210    2.6590 N.am      1 AK8        -0.2212
     28 C18        65.3660   20.3390    3.0270 C.2       1 AK8         0.3147
     29 O2         66.3510   20.6870    3.6840 O.2       1 AK8        -0.3813
     30 N6         65.1640   19.0720    2.6180 N.am      1 AK8        -0.2089
     31 C19        65.9340   17.9850    2.8520 C.ar      1 AK8         0.0958
     32 C23        66.2480   15.5700    2.5970 C.ar      1 AK8         0.0333
     33 C25        65.7870   14.1900    2.0580 C.3       1 AK8         0.3726
     34 F2         64.4600   14.1080    1.9760 F         1 AK8        -0.2209
     35 F3         66.2800   13.9880    0.8300 F         1 AK8        -0.2209
     36 F1         66.2280   13.2300    2.8830 F         1 AK8        -0.2209
     37 H1         64.8966   30.1518    1.3104 H         1 AK8         0.0884
     38 H2         65.9813   29.7218    6.9704 H         1 AK8         0.0741
     39 H3         66.5834   27.9466    8.6079 H         1 AK8         0.0625
     40 H4         66.2044   25.5725    8.0102 H         1 AK8         0.0815
     41 H5         63.1744   33.8978    6.3687 H         1 AK8         0.0488
     42 H6         64.6651   32.9120    6.5498 H         1 AK8         0.0488
     43 H7         63.0518   32.1402    6.7184 H         1 AK8         0.0488
     44 H8         66.2598   22.9821    1.8840 H         1 AK8         0.0424
     45 H9         62.6714   22.4126    4.1630 H         1 AK8         0.0416
     46 H10        61.6388   24.1171    5.3063 H         1 AK8         0.0370
     47 H11        61.7892   25.7393    4.5498 H         1 AK8         0.0370
     48 H12        62.7654   25.3312    6.0015 H         1 AK8         0.0370
     49 H13        67.4663   18.9967    3.9716 H         1 AK8         0.0758
     50 H14        68.7981   16.9547    4.3670 H         1 AK8         0.0664
     51 H15        68.0293   14.7692    3.5011 H         1 AK8         0.0740
     52 H16        64.5727   16.6757    1.8184 H         1 AK8         0.0709
     53 H17        63.2130   33.3188    4.0863 H         1 AK8         0.1858
     54 H18        65.5178   28.2673    2.8118 H         1 AK8         0.0655
     55 H19        66.2759   25.3715    2.5219 H         1 AK8         0.0503
     56 H20        63.6532   20.8916    2.1151 H         1 AK8         0.2230
     57 H21        64.3408   18.9150    2.0724 H         1 AK8         0.2264
@<TRIPOS>BOND
     1    1   17 ar 
     2   20    1 ar 
     3    2    7 ar 
     4   21    2 ar 
     5    3   18 ar 
     6   19    3 ar 
     7    4    5 ar 
     8    4   20 1  
     9   21    4 ar 
    10    5    6 ar 
    11    7    6 ar 
    12   16    8 1  
    13    9   25 ar 
    14   26    9 ar 
    15   10   24 ar 
    16   26   10 ar 
    17   24   11 1  
    18   12   13 ar 
    19   31   12 ar 
    20   13   14 ar 
    21   32   14 ar 
    22   31   15 ar 
    23   15   32 ar 
    24   17   16 1  
    25   17   18 ar 
    26   20   19 ar 
    27   22   21 1  
    28   23   22 1  
    29   24   23 ar 
    30   25   23 ar 
    31   27   26 1  
    32   28   27 am 
    33   28   29 2  
    34   30   28 am 
    35   30   31 1  
    36   32   33 1  
    37   33   34 1  
    38   33   35 1  
    39   33   36 1  
    40    3   37 1  
    41    5   38 1  
    42    6   39 1  
    43    7   40 1  
    44    8   41 1  
    45    8   42 1  
    46    8   43 1  
    47    9   44 1  
    48   10   45 1  
    49   11   46 1  
    50   11   47 1  
    51   11   48 1  
    52   12   49 1  
    53   13   50 1  
    54   14   51 1  
    55   15   52 1  
    56   16   53 1  
    57   19   54 1  
    58   25   55 1  
    59   27   56 1  
    60   30   57 1  
@<TRIPOS>SUBSTRUCTURE
     1 AK8         1

