### 
### Created by X-TOOL on Tue Oct 16 15:17:24 2018
### 

@<TRIPOS>MOLECULE
3egk_ligand
   55    56     1     0     0
SMALL
GAST_HUCK


@<TRIPOS>ATOM
      1 C1         13.9340  -10.4170   20.6290 C.3       1 M18         0.0818
      2 C2         14.9190  -11.5260   20.8010 C.2       1 M18         0.2455
      3 O1         15.0840  -12.3190   22.1040 O.2       1 M18        -0.3673
      4 O2         15.6860  -11.7850   19.6640 O.3       1 M18        -0.2730
      5 C3         16.4920  -12.9760   19.7510 C.3       1 M18         0.1000
      6 C4         17.7270  -12.7070   20.6530 C.3       1 M18         0.0728
      7 C5         18.7180  -11.7070   20.0080 C.3       1 M18        -0.0253
      8 C6         20.1290  -12.2110   20.3770 C.3       1 M18        -0.0303
      9 C7         19.9700  -13.7450   20.3340 C.3       1 M18         0.0344
     10 N1         18.5810  -13.8930   20.7550 N.am      1 M18        -0.2660
     11 C8         18.2180  -15.0190   21.4400 C.2       1 M18         0.2012
     12 C9         19.1740  -16.1940   21.6060 C.3       1 M18         0.1220
     13 N2         19.9790  -16.0540   22.8170 N.am      1 M18        -0.2439
     14 C10        19.3760  -16.1830   24.0180 C.2       1 M18         0.3221
     15 O3         19.7330  -15.2940   24.9400 O.3       1 M18        -0.2580
     16 C11        20.2410  -14.0690   24.7970 C.3       1 M18         0.0905
     17 C12        19.9230  -13.3640   26.1210 C.3       1 M18        -0.0320
     18 C13        21.7470  -14.2700   24.6780 C.3       1 M18        -0.0320
     19 C14        19.7880  -13.1950   23.6880 C.3       1 M18        -0.0320
     20 O4         18.5540  -17.0720   24.2370 O.2       1 M18        -0.3774
     21 O5         17.3360  -14.9830   22.2930 O.2       1 M18        -0.3947
     22 C15        12.8970  -10.2950   21.7520 C.ar      1 M18        -0.0224
     23 C16        12.9510   -9.1850   22.6030 C.ar      1 M18        -0.0440
     24 C17        12.0350   -9.0400   23.6520 C.ar      1 M18         0.0342
     25 CL1        12.1260   -7.6280   24.6940 Cl        1 M18        -0.0724
     26 C18        11.0170   -9.9820   23.8150 C.ar      1 M18        -0.0545
     27 C19        10.9720  -11.1020   22.9800 C.ar      1 M18        -0.0676
     28 C20        11.9220  -11.2780   21.9620 C.ar      1 M18        -0.0577
     29 H1         13.3962  -10.5811   19.6836 H         1 M18         0.0675
     30 H2         14.4914   -9.4703   20.5742 H         1 M18         0.0675
     31 H3         16.8300  -13.2632   18.7444 H         1 M18         0.0636
     32 H4         15.8939  -13.7916   20.1836 H         1 M18         0.0636
     33 H5         17.3895  -12.3613   21.6412 H         1 M18         0.0585
     34 H6         18.5562  -10.6956   20.4091 H         1 M18         0.0289
     35 H7         18.5905  -11.6930   18.9155 H         1 M18         0.0289
     36 H8         20.4201  -11.8715   21.3820 H         1 M18         0.0285
     37 H9         20.8751  -11.8699   19.6442 H         1 M18         0.0285
     38 H10        20.6589  -14.2423   21.0326 H         1 M18         0.0522
     39 H11        20.1287  -14.1393   19.3194 H         1 M18         0.0522
     40 H12        19.8429  -16.2382   20.7339 H         1 M18         0.0763
     41 H13        18.5910  -17.1247   21.6685 H         1 M18         0.0763
     42 H14        20.9594  -15.8659   22.7574 H         1 M18         0.1896
     43 H15        20.3107  -12.3350   26.0908 H         1 M18         0.0260
     44 H16        20.3966  -13.9100   26.9502 H         1 M18         0.0260
     45 H17        18.8336  -13.3411   26.2718 H         1 M18         0.0260
     46 H18        22.2387  -13.2936   24.5562 H         1 M18         0.0260
     47 H19        21.9647  -14.9016   23.8042 H         1 M18         0.0260
     48 H20        22.1246  -14.7597   25.5877 H         1 M18         0.0260
     49 H21        20.3191  -12.2331   23.7389 H         1 M18         0.0260
     50 H22        18.7055  -13.0213   23.7768 H         1 M18         0.0260
     51 H23        20.0035  -13.6823   22.7256 H         1 M18         0.0260
     52 H24        13.7115   -8.4282   22.4480 H         1 M18         0.0566
     53 H25        10.2660   -9.8454   24.5847 H         1 M18         0.0567
     54 H26        10.1940  -11.8436   23.1204 H         1 M18         0.0600
     55 H27        11.9012  -12.1678   21.3432 H         1 M18         0.0563
@<TRIPOS>BOND
     1    1    2 1  
     2    1   22 1  
     3    2    3 2  
     4    2    4 1  
     5    4    5 1  
     6    5    6 1  
     7    6    7 1  
     8    6   10 1  
     9    7    8 1  
    10    8    9 1  
    11    9   10 1  
    12   10   11 am 
    13   11   12 1  
    14   11   21 2  
    15   12   13 1  
    16   13   14 am 
    17   14   15 1  
    18   14   20 2  
    19   15   16 1  
    20   16   17 1  
    21   16   18 1  
    22   16   19 1  
    23   22   23 ar 
    24   22   28 ar 
    25   23   24 ar 
    26   24   25 1  
    27   24   26 ar 
    28   26   27 ar 
    29   27   28 ar 
    30    1   29 1  
    31    1   30 1  
    32    5   31 1  
    33    5   32 1  
    34    6   33 1  
    35    7   34 1  
    36    7   35 1  
    37    8   36 1  
    38    8   37 1  
    39    9   38 1  
    40    9   39 1  
    41   12   40 1  
    42   12   41 1  
    43   13   42 1  
    44   17   43 1  
    45   17   44 1  
    46   17   45 1  
    47   18   46 1  
    48   18   47 1  
    49   18   48 1  
    50   19   49 1  
    51   19   50 1  
    52   19   51 1  
    53   23   52 1  
    54   26   53 1  
    55   27   54 1  
    56   28   55 1  
@<TRIPOS>SUBSTRUCTURE
     1 M18         1

