### 
### Created by X-TOOL on Mon Sep 10 21:13:00 2018
### 

@<TRIPOS>MOLECULE
3ehn_ligand
   51    52     1     0     0
SMALL
GAST_HUCK


@<TRIPOS>ATOM
      1 C1        -43.5210  -29.7570   20.0550 C.3       1 NLC         0.1823
      2 O1        -42.3220  -30.4950   19.9390 O.3       1 NLC        -0.3651
      3 C2        -44.5710  -29.9290   18.9500 C.3       1 NLC         0.1208
      4 N         -44.0170  -29.6290   17.7450 N.am      1 NLC        -0.2766
      5 C7        -44.1270  -30.0270   16.4810 C.2       1 NLC         0.1733
      6 C8        -45.2310  -29.4760   15.5690 C.3       1 NLC         0.0257
      7 O7        -43.5130  -31.0330   16.1620 O.2       1 NLC        -0.3974
      8 C3        -45.6770  -28.8910   19.3060 C.3       1 NLC         0.1114
      9 O3        -46.7510  -28.7660   18.3820 O.3       1 NLC        -0.3867
     10 C4        -46.2940  -29.2560   20.6420 C.3       1 NLC         0.1181
     11 O4        -47.3960  -28.3960   21.1810 O.3       1 NLC        -0.3401
     12 C5        -45.1760  -29.2970   21.7650 C.3       1 NLC         0.1133
     13 C6        -45.7750  -29.5490   23.1830 C.3       1 NLC         0.0730
     14 O6        -44.6820  -29.8840   24.0440 O.3       1 NLC        -0.3924
     15 O5        -43.9730  -30.0120   21.4140 O.3       1 NLC        -0.3409
     16 C12       -49.6580  -28.3190   21.9090 C.3       1 NLC         0.1341
     17 O12       -49.2200  -28.4650   23.2670 O.3       1 NLC        -0.3841
     18 C13       -51.0450  -28.9570   21.7310 C.3       1 NLC         0.1141
     19 O13       -51.9870  -28.3060   22.5930 O.3       1 NLC        -0.3864
     20 C14       -51.4890  -28.8080   20.2520 C.3       1 NLC         0.1119
     21 C15       -50.4280  -29.5060   19.3580 C.3       1 NLC         0.1130
     22 C16       -50.8520  -29.3460   17.9010 C.3       1 NLC         0.0730
     23 C10       -48.6720  -29.0310   20.9750 C.3       1 NLC         0.1884
     24 O16       -49.9170  -29.9770   17.0170 O.3       1 NLC        -0.3924
     25 O15       -49.1160  -28.8800   19.5780 O.3       1 NLC        -0.3405
     26 O40       -51.6010  -27.4120   19.9010 O.3       1 NLC        -0.3865
     27 H1        -43.2424  -28.6941   20.0045 H         1 NLC         0.0932
     28 H2        -41.6976  -30.1862   20.5851 H         1 NLC         0.2126
     29 H3        -44.9748  -30.9521   18.9374 H         1 NLC         0.0633
     30 H4        -43.3338  -28.9043   17.8347 H         1 NLC         0.1857
     31 H5        -45.1443  -29.9320   14.5717 H         1 NLC         0.0467
     32 H6        -45.1252  -28.3844   15.4835 H         1 NLC         0.0467
     33 H7        -46.2150  -29.7166   15.9978 H         1 NLC         0.0467
     34 H8        -45.1888  -27.9087   19.3883 H         1 NLC         0.0645
     35 H9        -47.3628  -28.1104   18.6960 H         1 NLC         0.2100
     36 H10       -46.7081  -30.2679   20.5217 H         1 NLC         0.0650
     37 H11       -44.8276  -28.2552   21.8213 H         1 NLC         0.0647
     38 H12       -46.4958  -30.3791   23.1468 H         1 NLC         0.0584
     39 H13       -46.2787  -28.6415   23.5473 H         1 NLC         0.0584
     40 H14       -44.2507  -30.6648   23.7172 H         1 NLC         0.2095
     41 H15       -49.7071  -27.2503   21.6530 H         1 NLC         0.0671
     42 H16       -48.3628  -28.0679   23.3665 H         1 NLC         0.2101
     43 H17       -50.9929  -30.0247   21.9902 H         1 NLC         0.0648
     44 H18       -51.7077  -28.4026   23.4959 H         1 NLC         0.2100
     45 H19       -52.4658  -29.2937   20.1105 H         1 NLC         0.0647
     46 H20       -50.3707  -30.5748   19.6117 H         1 NLC         0.0647
     47 H21       -50.9075  -28.2744   17.6590 H         1 NLC         0.0584
     48 H22       -51.8421  -29.8049   17.7629 H         1 NLC         0.0584
     49 H23       -48.6087  -30.1001   21.2262 H         1 NLC         0.0938
     50 H24       -49.0605  -29.5816   17.1292 H         1 NLC         0.2095
     51 H25       -52.2526  -26.9986   20.4551 H         1 NLC         0.2100
@<TRIPOS>BOND
     1    1    2 1  
     2    3    1 1  
     3   15    1 1  
     4    3    4 1  
     5    8    3 1  
     6    4    5 am 
     7    5    6 1  
     8    5    7 2  
     9    8    9 1  
    10   10    8 1  
    11   11   10 1  
    12   10   12 1  
    13   23   11 1  
    14   12   13 1  
    15   12   15 1  
    16   13   14 1  
    17   16   17 1  
    18   16   18 1  
    19   16   23 1  
    20   18   19 1  
    21   18   20 1  
    22   20   21 1  
    23   20   26 1  
    24   21   22 1  
    25   21   25 1  
    26   22   24 1  
    27   23   25 1  
    28    1   27 1  
    29    2   28 1  
    30    3   29 1  
    31    4   30 1  
    32    6   31 1  
    33    6   32 1  
    34    6   33 1  
    35    8   34 1  
    36    9   35 1  
    37   10   36 1  
    38   12   37 1  
    39   13   38 1  
    40   13   39 1  
    41   14   40 1  
    42   16   41 1  
    43   17   42 1  
    44   18   43 1  
    45   19   44 1  
    46   20   45 1  
    47   21   46 1  
    48   22   47 1  
    49   22   48 1  
    50   23   49 1  
    51   24   50 1  
    52   26   51 1  
@<TRIPOS>SUBSTRUCTURE
     1 NLC         1

