### 
### Created by X-TOOL on Mon Sep 10 21:12:59 2018
### 

@<TRIPOS>MOLECULE
3ehx_ligand
   44    45     1     0     0
SMALL
GAST_HUCK


@<TRIPOS>ATOM
      1 O4         -2.0470   -1.5510   -5.7620 O.co2     1 BDL        -0.5670
      2 C15        -1.8680   -1.9680   -4.6530 C.2       1 BDL         0.0564
      3 O3         -2.8710   -2.0680   -3.8170 O.co2     1 BDL        -0.5670
      4 C17        -0.4830   -2.3220   -4.2560 C.3       1 BDL         0.0901
      5 C16        -0.0920   -1.5770   -2.9890 C.3       1 BDL        -0.0191
      6 C14         1.3030   -2.0450   -2.5650 C.3       1 BDL        -0.0435
      7 C18         2.3790   -0.9590   -2.6380 C.3       1 BDL        -0.0625
      8 C13         1.2740   -2.6230   -1.1470 C.3       1 BDL        -0.0625
      9 N1         -0.3040   -3.7240   -4.0580 N.am      1 BDL        -0.2314
     10 S1         -0.6340   -5.0940   -4.8830 S.o2      1 BDL         0.0699
     11 O1          0.4830   -5.3780   -5.7600 O.2       1 BDL        -0.1502
     12 O2         -0.7140   -5.9230   -3.7080 O.2       1 BDL        -0.1502
     13 C7         -2.0190   -5.3460   -5.6640 C.ar      1 BDL         0.1083
     14 C5         -2.0790   -5.3950   -7.0520 C.ar      1 BDL        -0.0345
     15 C3         -3.2650   -5.7050   -7.7020 C.ar      1 BDL        -0.0522
     16 C6         -3.1590   -5.6180   -4.9190 C.ar      1 BDL        -0.0345
     17 C4         -4.3560   -5.8960   -5.5740 C.ar      1 BDL        -0.0522
     18 C1         -4.4270   -5.9370   -6.9690 C.ar      1 BDL        -0.0178
     19 C2         -5.6910   -6.3160   -7.6470 C.ar      1 BDL        -0.0179
     20 C9         -6.8140   -6.6450   -6.8800 C.ar      1 BDL        -0.0540
     21 C12        -7.9830   -7.0450   -7.4940 C.ar      1 BDL        -0.0612
     22 C11        -8.0280   -7.1810   -8.8820 C.ar      1 BDL        -0.0617
     23 C10        -6.9100   -6.9040   -9.6560 C.ar      1 BDL        -0.0612
     24 C8         -5.7460   -6.4950   -9.0290 C.ar      1 BDL        -0.0540
     25 H1          0.1897   -2.0062   -5.0670 H         1 BDL         0.0680
     26 H2         -0.8161   -1.7962   -2.1905 H         1 BDL         0.0304
     27 H3         -0.0775   -0.4945   -3.1839 H         1 BDL         0.0304
     28 H4          1.5983   -2.8483   -3.2560 H         1 BDL         0.0297
     29 H5          3.3447   -1.3776   -2.3183 H         1 BDL         0.0232
     30 H6          2.1037   -0.1249   -1.9758 H         1 BDL         0.0232
     31 H7          2.4620   -0.5940   -3.6723 H         1 BDL         0.0232
     32 H8          0.5028   -3.4049   -1.0855 H         1 BDL         0.0232
     33 H9          1.0423   -1.8223   -0.4293 H         1 BDL         0.0232
     34 H10         2.2560   -3.0570   -0.9078 H         1 BDL         0.0232
     35 H11         0.1407   -3.9186   -3.1837 H         1 BDL         0.1697
     36 H12        -1.1880   -5.1884   -7.6338 H         1 BDL         0.0637
     37 H13        -3.2876   -5.7669   -8.7840 H         1 BDL         0.0624
     38 H14        -3.1174   -5.6139   -3.8358 H         1 BDL         0.0637
     39 H15        -5.2500   -6.0842   -4.9905 H         1 BDL         0.0624
     40 H16        -6.7654   -6.5854   -5.7987 H         1 BDL         0.0624
     41 H17        -8.8650   -7.2533   -6.8992 H         1 BDL         0.0618
     42 H18        -8.9449   -7.5061   -9.3602 H         1 BDL         0.0618
     43 H19        -6.9478   -7.0063  -10.7345 H         1 BDL         0.0618
     44 H20        -4.8591   -6.3100   -9.6241 H         1 BDL         0.0624
@<TRIPOS>BOND
     1    1    2 ar 
     2    2    3 ar 
     3    2    4 1  
     4    4    5 1  
     5    4    9 1  
     6    5    6 1  
     7    6    7 1  
     8    6    8 1  
     9    9   10 am 
    10   10   11 2  
    11   10   12 2  
    12   10   13 1  
    13   13   14 ar 
    14   13   16 ar 
    15   14   15 ar 
    16   15   18 ar 
    17   16   17 ar 
    18   17   18 ar 
    19   18   19 1  
    20   19   20 ar 
    21   19   24 ar 
    22   20   21 ar 
    23   21   22 ar 
    24   22   23 ar 
    25   23   24 ar 
    26    4   25 1  
    27    5   26 1  
    28    5   27 1  
    29    6   28 1  
    30    7   29 1  
    31    7   30 1  
    32    7   31 1  
    33    8   32 1  
    34    8   33 1  
    35    8   34 1  
    36    9   35 1  
    37   14   36 1  
    38   15   37 1  
    39   16   38 1  
    40   17   39 1  
    41   20   40 1  
    42   21   41 1  
    43   22   42 1  
    44   23   43 1  
    45   24   44 1  
@<TRIPOS>SUBSTRUCTURE
     1 BDL         1

