### 
### Created by X-TOOL on Mon Sep 10 21:12:58 2018
### 

@<TRIPOS>MOLECULE
3eid_ligand
   67    71     1     0     0
SMALL
GAST_HUCK


@<TRIPOS>ATOM
      1 N1        -15.0850  204.8870  113.8830 N.pl3     1 PO5        -0.0886
      2 C4        -13.0640  205.6640  115.4820 C.2       1 PO5         0.0015
      3 C5        -13.0360  206.0050  114.1930 C.2       1 PO5        -0.0024
      4 C6        -14.0690  205.6130  113.3380 C.2       1 PO5         0.1415
      5 C7        -14.3690  205.7680  112.0050 C.2       1 PO5         0.0254
      6 C8        -15.5990  205.0890  111.8460 C.2       1 PO5         0.0064
      7 C10       -13.5590  206.4510  111.0320 C.ar      1 PO5         0.0258
      8 C15       -14.1460  206.8730  109.8670 C.ar      1 PO5        -0.0318
      9 C17        -9.5580  207.6650  111.8420 C.ar      1 PO5         0.0549
     10 C20        -8.4210  208.0610  114.3300 C.ar      1 PO5         0.0798
     11 C21        -7.6510  207.5770  113.2970 C.ar      1 PO5        -0.0419
     12 C22        -8.2260  207.3850  112.0600 C.ar      1 PO5        -0.0461
     13 C24        -6.5770  207.6490  115.5730 C.3       1 PO5         0.0989
     14 N2        -15.1920  204.4950  115.1580 N.2       1 PO5        -0.1239
     15 C3        -14.2250  204.8660  115.9410 C.2       1 PO5         0.1555
     16 N9        -16.0300  204.5520  112.9900 N.2       1 PO5        -0.1877
     17 N11       -12.2620  206.6290  111.3020 N.ar      1 PO5        -0.2674
     18 C12       -11.5280  207.2610  110.3770 C.ar      1 PO5         0.1934
     19 N13       -12.0090  207.7070  109.2140 N.ar      1 PO5        -0.2662
     20 C14       -13.3060  207.5030  108.9860 C.ar      1 PO5         0.0015
     21 N16       -10.1600  207.4830  110.5870 N.pl3     1 PO5        -0.2500
     22 C18       -10.3100  208.1490  112.8870 C.ar      1 PO5        -0.0461
     23 C19        -9.7520  208.3440  114.1300 C.ar      1 PO5        -0.0419
     24 O23        -7.8670  208.2500  115.5810 O.3       1 PO5        -0.3225
     25 C25        -5.7950  208.2190  116.7330 C.3       1 PO5         0.1219
     26 O26        -5.3740  209.5290  116.3640 O.3       1 PO5        -0.3839
     27 C27        -6.6950  208.2700  117.9540 C.3       1 PO5        -0.0032
     28 N28        -5.8870  208.5500  119.1700 N.4       1 PO5         0.2328
     29 C29        -6.6890  209.1390  120.2750 C.3       1 PO5        -0.0433
     30 C30        -5.1000  207.3680  119.6020 C.3       1 PO5        -0.0433
     31 N31       -14.2360  204.5130  117.2700 N.pl3     1 PO5        -0.2847
     32 C32       -14.6560  205.4510  118.3030 C.3       1 PO5         0.0532
     33 C33       -15.2310  204.6720  119.4700 C.3       1 PO5         0.0676
     34 O34       -14.2910  203.6760  119.8860 O.3       1 PO5        -0.3758
     35 C35       -14.1470  202.6900  118.8680 C.3       1 PO5         0.0676
     36 C36       -13.4640  203.3500  117.6940 C.3       1 PO5         0.0532
     37 H1        -12.2696  205.9587  116.1661 H         1 PO5         0.0699
     38 H2        -12.2044  206.5915  113.8053 H         1 PO5         0.0759
     39 H3        -16.1330  205.0128  110.9000 H         1 PO5         0.0692
     40 H4        -15.1985  206.7195  109.6578 H         1 PO5         0.0593
     41 H5         -6.6031  207.3493  113.4551 H         1 PO5         0.0516
     42 H6         -7.6206  207.0072  111.2440 H         1 PO5         0.0512
     43 H7         -6.0636  207.8774  114.6274 H         1 PO5         0.0637
     44 H8         -6.6713  206.5588  115.6850 H         1 PO5         0.0637
     45 H9        -13.7210  207.8560  108.0489 H         1 PO5         0.0852
     46 H10        -9.5502  207.5150  109.7575 H         1 PO5         0.2148
     47 H11       -11.3573  208.3802  112.7294 H         1 PO5         0.0512
     48 H12       -10.3582  208.7186  114.9468 H         1 PO5         0.0516
     49 H13        -4.9180  207.5903  116.9466 H         1 PO5         0.0674
     50 H14        -6.1363  210.0658  116.1815 H         1 PO5         0.2101
     51 H15        -7.2057  207.3028  118.0708 H         1 PO5         0.0841
     52 H16        -7.4428  209.0659  117.8224 H         1 PO5         0.0841
     53 H17        -5.2160  209.2542  118.9057 H         1 PO5         0.2029
     54 H18        -6.0384  209.3227  121.1427 H         1 PO5         0.0777
     55 H19        -7.4904  208.4410  120.5589 H         1 PO5         0.0777
     56 H20        -7.1315  210.0890  119.9409 H         1 PO5         0.0777
     57 H21        -4.5290  206.9756  118.7476 H         1 PO5         0.0777
     58 H22        -5.7820  206.5900  119.9756 H         1 PO5         0.0777
     59 H23        -4.4057  207.6624  120.4028 H         1 PO5         0.0777
     60 H24       -15.4224  206.1279  117.8976 H         1 PO5         0.0539
     61 H25       -13.7902  206.0386  118.6422 H         1 PO5         0.0539
     62 H26       -16.1680  204.1858  119.1607 H         1 PO5         0.0580
     63 H27       -15.4325  205.3583  120.3057 H         1 PO5         0.0580
     64 H28       -15.1357  202.3147  118.5654 H         1 PO5         0.0580
     65 H29       -13.5349  201.8542  119.2379 H         1 PO5         0.0580
     66 H30       -12.4538  203.6691  117.9901 H         1 PO5         0.0539
     67 H31       -13.3932  202.6342  116.8618 H         1 PO5         0.0539
@<TRIPOS>BOND
     1    4    1 1  
     2    1   14 1  
     3   16    1 1  
     4    3    2 2  
     5    2   15 1  
     6    4    3 1  
     7    5    4 2  
     8    5    6 1  
     9    7    5 1  
    10    6   16 2  
    11    7    8 ar 
    12   17    7 ar 
    13    8   20 ar 
    14    9   12 ar 
    15   21    9 1  
    16    9   22 ar 
    17   11   10 ar 
    18   10   23 ar 
    19   10   24 1  
    20   12   11 ar 
    21   24   13 1  
    22   13   25 1  
    23   14   15 2  
    24   15   31 1  
    25   18   17 ar 
    26   18   19 ar 
    27   18   21 1  
    28   19   20 ar 
    29   22   23 ar 
    30   25   26 1  
    31   25   27 1  
    32   27   28 1  
    33   28   29 1  
    34   28   30 1  
    35   31   32 1  
    36   31   36 1  
    37   32   33 1  
    38   33   34 1  
    39   34   35 1  
    40   35   36 1  
    41    2   37 1  
    42    3   38 1  
    43    6   39 1  
    44    8   40 1  
    45   11   41 1  
    46   12   42 1  
    47   13   43 1  
    48   13   44 1  
    49   20   45 1  
    50   21   46 1  
    51   22   47 1  
    52   23   48 1  
    53   25   49 1  
    54   26   50 1  
    55   27   51 1  
    56   27   52 1  
    57   28   53 1  
    58   29   54 1  
    59   29   55 1  
    60   29   56 1  
    61   30   57 1  
    62   30   58 1  
    63   30   59 1  
    64   32   60 1  
    65   32   61 1  
    66   33   62 1  
    67   33   63 1  
    68   35   64 1  
    69   35   65 1  
    70   36   66 1  
    71   36   67 1  
@<TRIPOS>SUBSTRUCTURE
     1 PO5         1

