### 
### Created by X-TOOL on Mon Sep 10 21:13:00 2018
### 

@<TRIPOS>MOLECULE
3eig_ligand
   53    55     1     0     0
SMALL
GAST_HUCK


@<TRIPOS>ATOM
      1 N1         13.7900   -8.0710  -15.3750 N.ar      1 MTX        -0.2668
      2 C2         13.5670   -8.1020  -14.0340 C.ar      1 MTX         0.1670
      3 NA2        13.3220   -9.3020  -13.4380 N.pl3     1 MTX        -0.3051
      4 N3         13.6170   -6.9460  -13.2890 N.ar      1 MTX        -0.2298
      5 C4         13.8530   -5.7390  -13.8280 C.ar      1 MTX         0.1540
      6 NA4        13.8750   -4.5690  -13.1010 N.pl3     1 MTX        -0.3052
      7 C4A        14.0970   -5.6660  -15.2410 C.ar      1 MTX         0.1326
      8 N5         14.3620   -4.4500  -15.8140 N.ar      1 MTX        -0.2616
      9 C6         14.5570   -4.4340  -17.1310 C.ar      1 MTX         0.0826
     10 C7         14.5080   -5.6550  -17.8760 C.ar      1 MTX         0.0478
     11 N8         14.2620   -6.8530  -17.3460 N.ar      1 MTX        -0.2649
     12 C8A        14.0540   -6.8690  -15.9790 C.ar      1 MTX         0.1183
     13 C9         14.8270   -3.0620  -17.6710 C.3       1 MTX         0.0825
     14 N10        14.7650   -3.0040  -19.1580 N.pl3     1 MTX        -0.2945
     15 CM         15.9530   -2.9930  -20.0180 C.3       1 MTX         0.0191
     16 C11        10.9830   -3.6320  -20.9860 C.ar      1 MTX         0.0362
     17 C12        11.0400   -3.5140  -19.5840 C.ar      1 MTX        -0.0535
     18 C13        12.2910   -3.2950  -19.0170 C.ar      1 MTX        -0.0379
     19 C14        13.4950   -3.2140  -19.7500 C.ar      1 MTX         0.0476
     20 C15        13.3980   -3.3460  -21.1550 C.ar      1 MTX        -0.0379
     21 C16        12.1630   -3.5410  -21.7330 C.ar      1 MTX        -0.0535
     22 C           9.7410   -3.8570  -21.7510 C.2       1 MTX         0.1968
     23 O           9.6030   -3.5050  -22.9290 O.2       1 MTX        -0.3908
     24 N           8.6850   -4.2550  -20.9790 N.am      1 MTX        -0.2725
     25 CA          7.3350   -4.2060  -21.5260 C.3       1 MTX         0.0951
     26 CT          6.3420   -4.3580  -20.3940 C.2       1 MTX         0.0601
     27 O1          5.1360   -4.2550  -20.6600 O.co2     1 MTX        -0.5666
     28 O2          6.7960   -4.5330  -19.2370 O.co2     1 MTX        -0.5666
     29 CB          7.1010   -5.3000  -22.5740 C.3       1 MTX        -0.0064
     30 CG          7.2440   -6.6640  -21.9120 C.3       1 MTX         0.0038
     31 CD          7.3410   -7.7990  -22.9150 C.2       1 MTX         0.0350
     32 OE1         7.3160   -7.5450  -24.1450 O.co2     1 MTX        -0.5690
     33 OE2         7.4500   -8.9540  -22.4650 O.co2     1 MTX        -0.5690
     34 H          13.3083  -10.1554  -13.9964 H         1 MTX         0.1844
     35 H          13.1522   -9.3472  -12.4332 H         1 MTX         0.1844
     36 H          13.7060   -4.5902  -12.0953 H         1 MTX         0.1886
     37 H          14.0603   -3.6815  -13.5684 H         1 MTX         0.1886
     38 H          14.6839   -5.6016  -18.9504 H         1 MTX         0.0952
     39 H          15.8342   -2.7763  -17.3677 H         1 MTX         0.0719
     40 H          14.0615   -2.3925  -17.2788 H         1 MTX         0.0719
     41 H          16.5640   -2.1222  -19.7803 H         1 MTX         0.0482
     42 H          16.5312   -3.9013  -19.8484 H         1 MTX         0.0482
     43 H          15.6437   -2.9474  -21.0622 H         1 MTX         0.0482
     44 H          10.1428   -3.5909  -18.9698 H         1 MTX         0.0636
     45 H          12.3455   -3.1781  -17.9347 H         1 MTX         0.0530
     46 H          14.2930   -3.2939  -21.7750 H         1 MTX         0.0530
     47 H          12.1022   -3.6281  -22.8178 H         1 MTX         0.0636
     48 H           8.8411   -4.5841  -20.0263 H         1 MTX         0.1864
     49 H           7.2019   -3.2456  -22.0240 H         1 MTX         0.0726
     50 H           7.8338   -5.2028  -23.3750 H         1 MTX         0.0323
     51 H           6.0994   -5.1988  -22.9920 H         1 MTX         0.0323
     52 H           6.3565   -6.8331  -21.3021 H         1 MTX         0.0432
     53 H           8.1641   -6.6560  -21.3277 H         1 MTX         0.0432
@<TRIPOS>BOND
     1    1    2 ar 
     2   12    1 ar 
     3    2    3 1  
     4    4    2 ar 
     5    5    4 ar 
     6    5    6 1  
     7    7    5 ar 
     8    8    7 ar 
     9    7   12 ar 
    10    9    8 ar 
    11    9   10 ar 
    12   13    9 1  
    13   10   11 ar 
    14   11   12 ar 
    15   14   13 1  
    16   14   15 1  
    17   19   14 1  
    18   17   16 ar 
    19   16   21 ar 
    20   16   22 1  
    21   18   17 ar 
    22   18   19 ar 
    23   19   20 ar 
    24   20   21 ar 
    25   22   23 2  
    26   22   24 am 
    27   24   25 1  
    28   25   26 1  
    29   25   29 1  
    30   26   27 ar 
    31   26   28 ar 
    32   29   30 1  
    33   30   31 1  
    34   31   32 ar 
    35   31   33 ar 
    36    3   34 1  
    37    3   35 1  
    38    6   36 1  
    39    6   37 1  
    40   10   38 1  
    41   13   39 1  
    42   13   40 1  
    43   15   41 1  
    44   15   42 1  
    45   15   43 1  
    46   17   44 1  
    47   18   45 1  
    48   20   46 1  
    49   21   47 1  
    50   24   48 1  
    51   25   49 1  
    52   29   50 1  
    53   29   51 1  
    54   30   52 1  
    55   30   53 1  
@<TRIPOS>SUBSTRUCTURE
     1 MTX         1

