### 
### Created by X-TOOL on Mon Sep 10 21:12:59 2018
### 

@<TRIPOS>MOLECULE
3eio_ligand
   57    59     1     0     0
SMALL
GAST_HUCK


@<TRIPOS>ATOM
      1 CAP        47.1420   12.6010   25.7920 C.ar      1 AJH        -0.0386
      2 CAX        48.2620   13.3960   26.0230 C.ar      1 AJH        -0.0423
      3 CAO        49.4480   12.8340   26.4830 C.ar      1 AJH         0.0142
      4 CAJ        50.6800   13.7150   26.7320 C.2       1 AJH         0.0654
      5 OAW        51.3530   13.5240   27.7710 O.co2     1 AJH        -0.5596
      6 OBD        50.9230   14.6170   25.9020 O.co2     1 AJH        -0.5596
      7 CAY        49.5030   11.4630   26.7020 C.ar      1 AJH        -0.0423
      8 CAQ        48.3860   10.6680   26.4550 C.ar      1 AJH        -0.0386
      9 CAB        47.1800   11.2160   25.9980 C.ar      1 AJH         0.0524
     10 CAA        46.0970   10.4340   25.9740 C.2       1 AJH         0.2091
     11 OAN        46.3140    9.2230   25.9940 O.2       1 AJH        -0.3835
     12 NAD        44.8490   10.8940   25.8590 N.am      1 AJH        -0.2701
     13 CAR        44.5380   12.3120   26.0820 C.3       1 AJH         0.0538
     14 CAS        44.3550   12.5150   27.5900 C.3       1 AJH         0.0542
     15 CBE        43.7150    9.9610   25.7600 C.3       1 AJH         0.0353
     16 CBC        43.3280    9.3210   27.0980 C.3       1 AJH        -0.0121
     17 CBF        43.6260   10.1780   28.3340 C.3       1 AJH         0.0358
     18 NAE        43.3280   11.6040   28.1220 N.am      1 AJH        -0.2710
     19 CAC        42.1270   12.1140   28.4300 C.2       1 AJH         0.1841
     20 OAU        41.8570   13.3010   28.2770 O.2       1 AJH        -0.3967
     21 CAF        41.0720   11.1610   29.0030 C.3       1 AJH         0.0819
     22 CAV        39.7140   11.8580   29.1450 C.3       1 AJH         0.0010
     23 NBG        38.7830   11.0590   29.9550 N.4       1 AJH         0.2238
     24 CAT        39.1140   12.1380   27.7660 C.3       1 AJH         0.0243
     25 CAG        37.6740   12.6500   27.8790 C.ar      1 AJH        -0.0094
     26 CAM        37.5060   13.9820   28.2430 C.ar      1 AJH        -0.0298
     27 CAL        36.2430   14.5630   28.3470 C.ar      1 AJH         0.1544
     28 FBB        36.1480   15.8530   28.7240 F         1 AJH        -0.1895
     29 CAK        35.1200   13.7810   28.0760 C.ar      1 AJH         0.1560
     30 FBA        33.8770   14.2970   28.0310 F         1 AJH        -0.1911
     31 CAH        35.2830   12.4410   27.7350 C.ar      1 AJH        -0.0030
     32 CAI        36.5480   11.8800   27.6290 C.ar      1 AJH         0.1274
     33 FAZ        36.6430   10.5820   27.2530 F         1 AJH        -0.1934
     34 H1         46.2240   13.0625   25.4465 H         1 AJH         0.0675
     35 H2         48.2087   14.4635   25.8424 H         1 AJH         0.0662
     36 H3         50.4182   11.0105   27.0663 H         1 AJH         0.0662
     37 H4         48.4514    9.5987   26.6205 H         1 AJH         0.0675
     38 H5         43.6121   12.5807   25.5524 H         1 AJH         0.0542
     39 H6         45.3646   12.9392   25.7168 H         1 AJH         0.0542
     40 H7         44.0473   13.5541   27.7788 H         1 AJH         0.0542
     41 H8         45.3101   12.3172   28.0986 H         1 AJH         0.0542
     42 H9         43.9844    9.1596   25.0563 H         1 AJH         0.0522
     43 H10        42.8447   10.5113   25.3732 H         1 AJH         0.0522
     44 H11        43.8807    8.3751   27.1968 H         1 AJH         0.0304
     45 H12        42.2478    9.1142   27.0781 H         1 AJH         0.0304
     46 H13        44.6920   10.0749   28.5851 H         1 AJH         0.0523
     47 H14        43.0148    9.8116   29.1720 H         1 AJH         0.0523
     48 H15        41.4022   10.8136   29.9931 H         1 AJH         0.0560
     49 H16        40.9638   10.2984   28.3290 H         1 AJH         0.0560
     50 H17        39.8738   12.8194   29.6551 H         1 AJH         0.0898
     51 H18        37.9019   11.5429   30.0294 H         1 AJH         0.2000
     52 H19        39.1703   10.9227   30.8756 H         1 AJH         0.2000
     53 H20        38.6384   10.1635   29.5154 H         1 AJH         0.2000
     54 H21        39.1187   11.2086   27.1777 H         1 AJH         0.0467
     55 H22        39.7254   12.8975   27.2567 H         1 AJH         0.0467
     56 H23        38.3820   14.5854   28.4517 H         1 AJH         0.0522
     57 H24        34.4091   11.8269   27.5496 H         1 AJH         0.0562
@<TRIPOS>BOND
     1    1    2 ar 
     2    1    9 ar 
     3    2    3 ar 
     4    3    4 1  
     5    3    7 ar 
     6    4    5 ar 
     7    4    6 ar 
     8    7    8 ar 
     9    8    9 ar 
    10    9   10 1  
    11   10   11 2  
    12   10   12 am 
    13   12   13 1  
    14   12   15 1  
    15   13   14 1  
    16   14   18 1  
    17   15   16 1  
    18   16   17 1  
    19   17   18 1  
    20   18   19 am 
    21   19   20 2  
    22   19   21 1  
    23   21   22 1  
    24   22   23 1  
    25   22   24 1  
    26   24   25 1  
    27   25   26 ar 
    28   25   32 ar 
    29   26   27 ar 
    30   27   28 1  
    31   27   29 ar 
    32   29   30 1  
    33   29   31 ar 
    34   31   32 ar 
    35   32   33 1  
    36    1   34 1  
    37    2   35 1  
    38    7   36 1  
    39    8   37 1  
    40   13   38 1  
    41   13   39 1  
    42   14   40 1  
    43   14   41 1  
    44   15   42 1  
    45   15   43 1  
    46   16   44 1  
    47   16   45 1  
    48   17   46 1  
    49   17   47 1  
    50   21   48 1  
    51   21   49 1  
    52   22   50 1  
    53   23   51 1  
    54   23   52 1  
    55   23   53 1  
    56   24   54 1  
    57   24   55 1  
    58   26   56 1  
    59   31   57 1  
@<TRIPOS>SUBSTRUCTURE
     1 AJH         1

