### 
### Created by X-TOOL on Mon Sep 10 21:12:58 2018
### 

@<TRIPOS>MOLECULE
3ej1_ligand
   31    34     1     0     0
SMALL
GAST_HUCK


@<TRIPOS>ATOM
      1 N1        -16.2450  204.1280  113.0590 N.2       1 5BP        -0.1813
      2 C4        -14.3580  205.3010  113.4970 C.2       1 5BP         0.1500
      3 C5        -13.4450  205.8700  114.4040 C.2       1 5BP         0.0002
      4 C6        -13.6340  205.7480  115.7200 C.2       1 5BP        -0.0214
      5 C7        -14.8390  204.9860  116.0980 C.2       1 5BP         0.0614
      6 C10       -13.5460  205.7910  111.1780 C.ar      1 5BP         0.0258
      7 C15       -13.9900  206.1410  109.9270 C.ar      1 5BP        -0.0322
      8 C17        -9.8570  207.4100  112.2300 C.3       1 5BP         0.0418
      9 C2        -15.6650  204.4950  111.9130 C.2       1 5BP         0.0091
     10 C3        -14.4760  205.2330  112.1260 C.2       1 5BP         0.0288
     11 N8        -15.7110  204.4420  115.3080 N.2       1 5BP        -0.1209
     12 N9        -15.4350  204.6290  114.0080 N.pl3     1 5BP        -0.0713
     13 N11       -12.2730  205.9310  111.5630 N.ar      1 5BP        -0.2704
     14 C12       -11.4200  206.4450  110.6690 C.ar      1 5BP         0.1753
     15 N13       -11.7470  206.8210  109.4300 N.ar      1 5BP        -0.2692
     16 C14       -13.0290  206.6590  109.0930 C.ar      1 5BP         0.0008
     17 N16       -10.0850  206.6090  111.0340 N.pl3     1 5BP        -0.2886
     18 C18        -9.2160  206.8080  113.4420 C.3       1 5BP        -0.0275
     19 C19        -8.4760  207.8230  112.6280 C.3       1 5BP        -0.0275
     20 H1        -12.5785  206.4135  114.0301 H         1 5BP         0.0768
     21 H2        -12.9537  206.1763  116.4547 H         1 5BP         0.0722
     22 H3        -15.0169  204.8664  117.1657 H         1 5BP         0.0958
     23 H4        -15.0223  206.0178  109.6200 H         1 5BP         0.0590
     24 H5        -10.6904  208.1177  112.3505 H         1 5BP         0.0560
     25 H6        -16.0615  204.2540  110.9278 H         1 5BP         0.0708
     26 H7        -13.3314  206.9559  108.0953 H         1 5BP         0.0851
     27 H8         -9.3122  206.1925  110.4952 H         1 5BP         0.1863
     28 H9         -8.8975  205.7552  113.4304 H         1 5BP         0.0288
     29 H10        -9.5830  207.0691  114.4456 H         1 5BP         0.0288
     30 H11        -8.2987  208.8299  113.0338 H         1 5BP         0.0288
     31 H12        -7.6132  207.5160  112.0186 H         1 5BP         0.0288
@<TRIPOS>BOND
     1    9    1 2  
     2    1   12 1  
     3    2    3 1  
     4   10    2 2  
     5    2   12 1  
     6    3    4 2  
     7    4    5 1  
     8   11    5 2  
     9    6    7 ar 
    10    6   10 1  
    11   13    6 ar 
    12    7   16 ar 
    13   17    8 1  
    14    8   18 1  
    15    8   19 1  
    16   10    9 1  
    17   12   11 1  
    18   14   13 ar 
    19   14   15 ar 
    20   14   17 1  
    21   15   16 ar 
    22   18   19 1  
    23    3   20 1  
    24    4   21 1  
    25    5   22 1  
    26    7   23 1  
    27    8   24 1  
    28    9   25 1  
    29   16   26 1  
    30   17   27 1  
    31   18   28 1  
    32   18   29 1  
    33   19   30 1  
    34   19   31 1  
@<TRIPOS>SUBSTRUCTURE
     1 5BP         1

