### 
### Created by X-TOOL on Mon Sep 10 21:13:00 2018
### 

@<TRIPOS>MOLECULE
3ej5_ligand
   36    37     1     0     0
SMALL
GAST_HUCK


@<TRIPOS>ATOM
      1 CAF        -2.0670    9.4530    5.1680 C.ar      1 EJ5        -0.0566
      2 CAH        -1.5940   10.5040    5.9710 C.ar      1 EJ5        -0.0543
      3 CAR        -0.4380   10.3470    6.7590 C.ar      1 EJ5         0.0032
      4 CAO         0.1290   11.4790    7.6570 C.2       1 EJ5         0.0584
      5 OAD         0.2580   11.2490    8.8900 O.co2     1 EJ5        -0.5625
      6 OAB         0.4480   12.5620    7.1000 O.co2     1 EJ5        -0.5625
      7 CAI         0.2330    9.1280    6.7280 C.ar      1 EJ5        -0.0543
      8 CAG        -0.2370    8.0980    5.9230 C.ar      1 EJ5        -0.0566
      9 CAQ        -1.3890    8.2380    5.1420 C.ar      1 EJ5        -0.0398
     10 CAK        -1.8800    7.0610    4.2680 C.3       1 EJ5        -0.0132
     11 CAJ        -0.8590    5.9010    4.2900 C.3       1 EJ5        -0.0171
     12 CAL        -0.9480    5.1070    5.6270 C.3       1 EJ5         0.0465
     13 CAT         0.3430    4.6980    6.3930 C.2       1 EJ5         0.2133
     14 CAS         0.2860    4.0320    7.6490 C.2       1 EJ5         0.3486
     15 OAE        -0.8760    3.7150    8.2490 O.3       1 EJ5        -0.2253
     16 NAM         1.3560    3.6380    8.3530 N.pl3     1 EJ5        -0.1864
     17 CAP         2.5830    3.8560    7.8980 C.cat     1 EJ5         0.2004
     18 NAA         3.6170    3.4450    8.6410 N.pl3     1 EJ5        -0.3341
     19 NAN         2.7330    4.5090    6.6480 N.am      1 EJ5        -0.2461
     20 CAU         1.6290    4.9290    5.8980 C.2       1 EJ5         0.2725
     21 OAC         1.8260    5.4980    4.8130 O.2       1 EJ5        -0.3499
     22 H1         -2.9600    9.5884    4.5686 H         1 EJ5         0.0564
     23 H2         -2.1261   11.4483    5.9841 H         1 EJ5         0.0634
     24 H3          1.1216    8.9824    7.3315 H         1 EJ5         0.0634
     25 H4          0.3043    7.1591    5.8994 H         1 EJ5         0.0564
     26 H5         -2.0085    7.4092    3.2325 H         1 EJ5         0.0436
     27 H6         -2.8441    6.7007    4.6561 H         1 EJ5         0.0436
     28 H7          0.1556    6.3122    4.1823 H         1 EJ5         0.0346
     29 H8         -1.0695    5.2200    3.4522 H         1 EJ5         0.0346
     30 H9         -1.4901    4.1760    5.4046 H         1 EJ5         0.0690
     31 H10        -1.5429    5.7214    6.3188 H         1 EJ5         0.0690
     32 H11        -1.6003    4.0146    7.7122 H         1 EJ5         0.2999
     33 H12         1.2245    3.1611    9.2564 H         1 EJ5         0.2469
     34 H13         4.5809    3.6007    8.3131 H         1 EJ5         0.1765
     35 H14         3.4491    2.9729    9.5409 H         1 EJ5         0.1765
     36 H15         3.6532    4.6738    6.2929 H         1 EJ5         0.1819
@<TRIPOS>BOND
     1    1    2 ar 
     2    1    9 ar 
     3    2    3 ar 
     4    3    4 1  
     5    3    7 ar 
     6    4    5 ar 
     7    4    6 ar 
     8    7    8 ar 
     9    8    9 ar 
    10    9   10 1  
    11   10   11 1  
    12   11   12 1  
    13   12   13 1  
    14   13   14 2  
    15   13   20 1  
    16   14   15 1  
    17   14   16 1  
    18   16   17 ar 
    19   17   18 ar 
    20   17   19 ar 
    21   19   20 am 
    22   20   21 2  
    23    1   22 1  
    24    2   23 1  
    25    7   24 1  
    26    8   25 1  
    27   10   26 1  
    28   10   27 1  
    29   11   28 1  
    30   11   29 1  
    31   12   30 1  
    32   12   31 1  
    33   15   32 1  
    34   16   33 1  
    35   18   34 1  
    36   18   35 1  
    37   19   36 1  
@<TRIPOS>SUBSTRUCTURE
     1 EJ5         1

