### 
### Created by X-TOOL on Mon Sep 10 21:12:59 2018
### 

@<TRIPOS>MOLECULE
3ejp_ligand
   43    45     1     0     0
SMALL
GAST_HUCK


@<TRIPOS>ATOM
      1 O10        26.6650   64.9740    8.2370 O.2       1 HN2        -0.3782
      2 C10        27.0590   65.9600    8.8340 C.2       1 HN2         0.1383
      3 C11        26.0720   66.7920    9.5970 C.ar      1 HN2         0.0328
      4 C16        24.7310   66.3860    9.6100 C.ar      1 HN2        -0.0430
      5 C15        23.7820   67.1520   10.2960 C.ar      1 HN2        -0.0559
      6 C14        24.1800   68.3120   10.9560 C.ar      1 HN2        -0.0572
      7 C13        25.5150   68.7390   10.9300 C.ar      1 HN2        -0.0559
      8 C12        26.4770   67.9610   10.2510 C.ar      1 HN2        -0.0430
      9 C9         28.5080   66.4140    8.7470 C.3       1 HN2         0.0655
     10 C5         29.4370   65.3600    8.1190 C.3       1 HN2        -0.0050
     11 C6         29.2540   65.2260    6.5980 C.3       1 HN2        -0.0050
     12 C7         29.7610   66.4630    5.8420 C.3       1 HN2        -0.0162
     13 C8         31.2370   66.7280    6.1220 C.3       1 HN2         0.1004
     14 O8         31.6270   67.9650    5.5350 O.3       1 HN2        -0.3861
     15 C8A        31.4430   66.8220    7.6290 C.3       1 HN2         0.0353
     16 C1         32.8910   66.8780    8.1160 C.3       1 HN2         0.1307
     17 O1         33.8100   66.0680    7.3210 O.3       1 HN2        -0.3833
     18 N4         30.8950   65.6350    8.3190 N.4       1 HN2         0.2468
     19 C3         31.3510   65.8120    9.7250 C.3       1 HN2        -0.0017
     20 C2         32.7910   66.3340    9.5530 C.3       1 HN2         0.1259
     21 O2         33.7650   65.2820    9.7520 O.3       1 HN2        -0.3837
     22 H1         24.4302   65.4830    9.0912 H         1 HN2         0.0672
     23 H2         22.7428   66.8442   10.3136 H         1 HN2         0.0630
     24 H3         23.4448   68.8947   11.4992 H         1 HN2         0.0655
     25 H4         25.8055   69.6577   11.4266 H         1 HN2         0.0630
     26 H5         27.5173   68.2654   10.2362 H         1 HN2         0.0672
     27 H6         28.8667   66.6351    9.7631 H         1 HN2         0.0541
     28 H7         28.5521   67.3274    8.1357 H         1 HN2         0.0541
     29 H8         29.1954   64.3959    8.5902 H         1 HN2         0.0877
     30 H9         28.1842   65.0915    6.3803 H         1 HN2         0.0322
     31 H10        29.8126   64.3446    6.2502 H         1 HN2         0.0322
     32 H11        29.1752   67.3389    6.1576 H         1 HN2         0.0294
     33 H12        29.6262   66.3014    4.7623 H         1 HN2         0.0294
     34 H13        31.8462   65.9106    5.7088 H         1 HN2         0.0651
     35 H14        32.5466   68.1229    5.7135 H         1 HN2         0.2100
     36 H15        30.9203   67.7267    7.9730 H         1 HN2         0.0904
     37 H16        33.2501   67.9177    8.1168 H         1 HN2         0.0679
     38 H17        33.5361   65.1589    7.3510 H         1 HN2         0.2102
     39 H18        31.3661   64.8249    7.9479 H         1 HN2         0.2043
     40 H19        31.3383   64.8561   10.2691 H         1 HN2         0.0841
     41 H20        30.7247   66.5443   10.2556 H         1 HN2         0.0841
     42 H21        32.9819   67.1410   10.2757 H         1 HN2         0.0675
     43 H22        34.6394   65.6360    9.6392 H         1 HN2         0.2101
@<TRIPOS>BOND
     1    1    2 2  
     2    2    3 1  
     3    2    9 1  
     4    3    4 ar 
     5    3    8 ar 
     6    4    5 ar 
     7    5    6 ar 
     8    6    7 ar 
     9    7    8 ar 
    10    9   10 1  
    11   10   11 1  
    12   10   18 1  
    13   11   12 1  
    14   12   13 1  
    15   13   14 1  
    16   13   15 1  
    17   15   16 1  
    18   15   18 1  
    19   16   17 1  
    20   16   20 1  
    21   18   19 1  
    22   19   20 1  
    23   20   21 1  
    24    4   22 1  
    25    5   23 1  
    26    6   24 1  
    27    7   25 1  
    28    8   26 1  
    29    9   27 1  
    30    9   28 1  
    31   10   29 1  
    32   11   30 1  
    33   11   31 1  
    34   12   32 1  
    35   12   33 1  
    36   13   34 1  
    37   14   35 1  
    38   15   36 1  
    39   16   37 1  
    40   17   38 1  
    41   18   39 1  
    42   19   40 1  
    43   19   41 1  
    44   20   42 1  
    45   21   43 1  
@<TRIPOS>SUBSTRUCTURE
     1 HN2         1

