### 
### Created by X-TOOL on Mon Sep 10 21:12:59 2018
### 

@<TRIPOS>MOLECULE
3ejq_ligand
   46    48     1     0     0
SMALL
GAST_HUCK


@<TRIPOS>ATOM
      1 O10        26.6200   64.7430    8.3600 O.2       1 HN3        -0.3816
      2 C10        26.9930   65.7670    8.9290 C.2       1 HN3         0.1332
      3 C11        25.9870   66.6230    9.6770 C.ar      1 HN3         0.0257
      4 C16        24.6300   66.2660    9.6760 C.ar      1 HN3        -0.0496
      5 C15        23.6840   67.0410   10.3690 C.ar      1 HN3        -0.0544
      6 C14        24.0850   68.1920   11.0510 C.ar      1 HN3        -0.0410
      7 C17        23.0870   69.0480   11.8070 C.3       1 HN3        -0.0287
      8 C13        25.4320   68.5470   11.0650 C.ar      1 HN3        -0.0544
      9 C12        26.3820   67.7620   10.3840 C.ar      1 HN3        -0.0496
     10 C9         28.4510   66.2020    8.8990 C.3       1 HN3         0.0644
     11 C5         29.4070   65.1710    8.2640 C.3       1 HN3        -0.0051
     12 C6         29.1920   65.0480    6.7480 C.3       1 HN3        -0.0050
     13 C7         29.6850   66.3060    6.0170 C.3       1 HN3        -0.0162
     14 C8         31.1660   66.5640    6.3250 C.3       1 HN3         0.1004
     15 O8         31.5610   67.8000    5.7420 O.3       1 HN3        -0.3861
     16 C8A        31.3950   66.6400    7.8310 C.3       1 HN3         0.0353
     17 C1         32.8470   66.6870    8.3160 C.3       1 HN3         0.1307
     18 O1         33.7550   65.8780    7.5320 O.3       1 HN3        -0.3833
     19 N4         30.8600   65.4260    8.4820 N.4       1 HN3         0.2468
     20 C3         31.3070   65.5850    9.8940 C.3       1 HN3        -0.0017
     21 C2         32.7440   66.1190    9.7330 C.3       1 HN3         0.1259
     22 O2         33.6730   65.0420    9.9000 O.3       1 HN3        -0.3837
     23 H1         24.3079   65.3835    9.1352 H         1 HN3         0.0655
     24 H2         22.6413   66.7448   10.3741 H         1 HN3         0.0571
     25 H3         23.6092   69.8993   12.2681 H         1 HN3         0.0402
     26 H4         22.6061   68.4446   12.5910 H         1 HN3         0.0402
     27 H5         22.3219   69.4210   11.1103 H         1 HN3         0.0402
     28 H6         25.7505   69.4325   11.6031 H         1 HN3         0.0571
     29 H7         27.4285   68.0435   10.4083 H         1 HN3         0.0655
     30 H8         28.7779   66.3837    9.9335 H         1 HN3         0.0540
     31 H9         28.5201   67.1366    8.3230 H         1 HN3         0.0540
     32 H10        29.1701   64.2001    8.7237 H         1 HN3         0.0877
     33 H11        28.1191   64.9126    6.5469 H         1 HN3         0.0322
     34 H12        29.7479   64.1749    6.3757 H         1 HN3         0.0322
     35 H13        29.0912   67.1715    6.3462 H         1 HN3         0.0294
     36 H14        29.5602   66.1666    4.9330 H         1 HN3         0.0294
     37 H15        31.7711   65.7473    5.9046 H         1 HN3         0.0651
     38 H16        32.4778   67.9600    5.9325 H         1 HN3         0.2100
     39 H17        30.8700   67.5332    8.2005 H         1 HN3         0.0904
     40 H18        33.2124   67.7245    8.3283 H         1 HN3         0.0679
     41 H19        33.4769   64.9702    7.5643 H         1 HN3         0.2102
     42 H20        31.3353   64.6259    8.0946 H         1 HN3         0.2043
     43 H21        31.2985   64.6213   10.4242 H         1 HN3         0.0841
     44 H22        30.6736   66.3054   10.4324 H         1 HN3         0.0841
     45 H23        32.9476   66.9049   10.4753 H         1 HN3         0.0675
     46 H24        34.5587   65.3710    9.8008 H         1 HN3         0.2101
@<TRIPOS>BOND
     1    1    2 2  
     2    2    3 1  
     3    2   10 1  
     4    3    4 ar 
     5    3    9 ar 
     6    4    5 ar 
     7    5    6 ar 
     8    6    7 1  
     9    6    8 ar 
    10    8    9 ar 
    11   10   11 1  
    12   11   12 1  
    13   11   19 1  
    14   12   13 1  
    15   13   14 1  
    16   14   15 1  
    17   14   16 1  
    18   16   17 1  
    19   16   19 1  
    20   17   18 1  
    21   17   21 1  
    22   19   20 1  
    23   20   21 1  
    24   21   22 1  
    25    4   23 1  
    26    5   24 1  
    27    7   25 1  
    28    7   26 1  
    29    7   27 1  
    30    8   28 1  
    31    9   29 1  
    32   10   30 1  
    33   10   31 1  
    34   11   32 1  
    35   12   33 1  
    36   12   34 1  
    37   13   35 1  
    38   13   36 1  
    39   14   37 1  
    40   15   38 1  
    41   16   39 1  
    42   17   40 1  
    43   18   41 1  
    44   19   42 1  
    45   20   43 1  
    46   20   44 1  
    47   21   45 1  
    48   22   46 1  
@<TRIPOS>SUBSTRUCTURE
     1 HN3         1

