### 
### Created by X-TOOL on Mon Sep 10 21:12:59 2018
### 

@<TRIPOS>MOLECULE
3ejr_ligand
   55    57     1     0     0
SMALL
GAST_HUCK


@<TRIPOS>ATOM
      1 O10        26.6190   65.3360    8.2760 O.2       1 HN4        -0.3651
      2 C10        27.1140   66.3070    8.8450 C.2       1 HN4         0.1575
      3 C11        26.2040   67.2360    9.5930 C.ar      1 HN4         0.0598
      4 C12        26.7170   68.2930   10.3440 C.ar      1 HN4        -0.0155
      5 C13        25.8570   69.1650   11.0190 C.ar      1 HN4        -0.0354
      6 C14        24.4690   68.9810   10.9580 C.ar      1 HN4        -0.0449
      7 C17        23.5580   69.9420   11.7050 C.3       1 HN4        -0.0433
      8 C18        23.8080   71.3640   11.1980 C.3       1 HN4        -0.0831
      9 C19        22.0780   69.6540   11.4300 C.3       1 HN4        -0.0831
     10 C20        23.8610   69.8360   13.2000 C.3       1 HN4        -0.0831
     11 C15        23.9660   67.9210   10.2020 C.ar      1 HN4        -0.0354
     12 C16        24.8190   67.0450    9.5270 C.ar      1 HN4        -0.0155
     13 C9         28.5960   66.6670    8.7690 C.3       1 HN4         0.0697
     14 C5         29.4440   65.5890    8.0940 C.3       1 HN4        -0.0046
     15 N4         30.9050   65.8080    8.2860 N.4       1 HN4         0.2468
     16 C3         31.3810   65.9710    9.6880 C.3       1 HN4        -0.0017
     17 C2         32.8160   66.4900    9.4920 C.3       1 HN4         0.1259
     18 O2         33.7760   65.4340    9.7020 O.3       1 HN4        -0.3837
     19 C1         32.9100   67.0370    8.0610 C.3       1 HN4         0.1307
     20 O1         33.7960   66.2070    7.2620 O.3       1 HN4        -0.3833
     21 C8A        31.4610   67.0010    7.5760 C.3       1 HN4         0.0353
     22 C8         31.2190   66.9180    6.0770 C.3       1 HN4         0.1004
     23 O8         31.6320   68.1290    5.4500 O.3       1 HN4        -0.3861
     24 C7         29.7240   66.6980    5.7970 C.3       1 HN4        -0.0162
     25 C6         29.1970   65.4830    6.5740 C.3       1 HN4        -0.0050
     26 H1         27.7893   68.4397   10.4050 H         1 HN4         0.0743
     27 H2         26.2665   69.9884   11.5930 H         1 HN4         0.0855
     28 H3         23.1518   72.0652   11.7345 H         1 HN4         0.0140
     29 H4         23.5930   71.4122   10.1203 H         1 HN4         0.0140
     30 H5         24.8588   71.6369   11.3749 H         1 HN4         0.0140
     31 H6         21.8320   68.6386   11.7742 H         1 HN4         0.0140
     32 H7         21.8837   69.7322   10.3501 H         1 HN4         0.0140
     33 H8         21.4561   70.3843   11.9683 H         1 HN4         0.0140
     34 H9         24.9266   70.0461   13.3739 H         1 HN4         0.0140
     35 H10        23.6256   68.8204   13.5508 H         1 HN4         0.0140
     36 H11        23.2489   70.5653   13.7508 H         1 HN4         0.0140
     37 H12        22.8938   67.7750   10.1376 H         1 HN4         0.0855
     38 H13        24.4101   66.2205    8.9543 H         1 HN4         0.0743
     39 H14        28.9720   66.8180    9.7917 H         1 HN4         0.0545
     40 H15        28.6999   67.6016    8.1984 H         1 HN4         0.0545
     41 H16        29.1739   64.6273    8.5546 H         1 HN4         0.0877
     42 H17        31.3510   64.9869    7.9080 H         1 HN4         0.2043
     43 H18        31.3751   65.0107   10.2244 H         1 HN4         0.0841
     44 H19        30.7654   66.7003   10.2349 H         1 HN4         0.0841
     45 H20        33.0159   67.2996   10.2093 H         1 HN4         0.0675
     46 H21        34.6534   65.7756    9.5763 H         1 HN4         0.2101
     47 H22        33.2886   68.0698    8.0593 H         1 HN4         0.0679
     48 H23        34.6624   66.2044    7.6515 H         1 HN4         0.2102
     49 H24        30.9546   67.9116    7.9287 H         1 HN4         0.0904
     50 H25        31.7956   66.0773    5.6638 H         1 HN4         0.0651
     51 H26        32.5579   68.2678    5.6108 H         1 HN4         0.2100
     52 H27        29.5801   66.5274    4.7199 H         1 HN4         0.0294
     53 H28        29.1639   67.5934    6.1045 H         1 HN4         0.0294
     54 H29        28.1143   65.3974    6.3994 H         1 HN4         0.0322
     55 H30        29.7015   64.5805    6.1985 H         1 HN4         0.0322
@<TRIPOS>BOND
     1    1    2 2  
     2    2    3 1  
     3    2   13 1  
     4    3    4 ar 
     5    3   12 ar 
     6    4    5 ar 
     7    5    6 ar 
     8    6    7 1  
     9    6   11 ar 
    10    7    8 1  
    11    7    9 1  
    12    7   10 1  
    13   11   12 ar 
    14   13   14 1  
    15   14   15 1  
    16   14   25 1  
    17   15   16 1  
    18   15   21 1  
    19   16   17 1  
    20   17   18 1  
    21   17   19 1  
    22   19   20 1  
    23   19   21 1  
    24   21   22 1  
    25   22   23 1  
    26   22   24 1  
    27   24   25 1  
    28    4   26 1  
    29    5   27 1  
    30    8   28 1  
    31    8   29 1  
    32    8   30 1  
    33    9   31 1  
    34    9   32 1  
    35    9   33 1  
    36   10   34 1  
    37   10   35 1  
    38   10   36 1  
    39   11   37 1  
    40   12   38 1  
    41   13   39 1  
    42   13   40 1  
    43   14   41 1  
    44   15   42 1  
    45   16   43 1  
    46   16   44 1  
    47   17   45 1  
    48   18   46 1  
    49   19   47 1  
    50   20   48 1  
    51   21   49 1  
    52   22   50 1  
    53   23   51 1  
    54   24   52 1  
    55   24   53 1  
    56   25   54 1  
    57   25   55 1  
@<TRIPOS>SUBSTRUCTURE
     1 HN4         1

