### 
### Created by X-TOOL on Mon Sep 10 21:13:00 2018
### 

@<TRIPOS>MOLECULE
3ejs_ligand
   56    58     1     0     0
SMALL
GAST_HUCK


@<TRIPOS>ATOM
      1 O8         31.7270   68.3070    5.5800 O.3       1 HN5        -0.3861
      2 C8         31.3450   67.1010    6.2580 C.3       1 HN5         0.1004
      3 C8A        31.6100   67.2370    7.7550 C.3       1 HN5         0.0351
      4 N4         31.0420   66.0860    8.4860 N.4       1 HN5         0.2453
      5 C3         31.5260   66.2780    9.8770 C.3       1 HN5        -0.0019
      6 C2         32.9780   66.8100    9.6640 C.3       1 HN5         0.1259
      7 O2         33.8820   65.7420    9.8920 O.3       1 HN5        -0.3837
      8 C1         33.0670   67.2960    8.2000 C.3       1 HN5         0.1307
      9 O1         33.9480   66.5200    7.3370 O.3       1 HN5        -0.3833
     10 C7         29.8470   66.8210    5.9950 C.3       1 HN5        -0.0164
     11 C6         29.2860   65.6580    6.8280 C.3       1 HN5        -0.0069
     12 C5         29.5610   65.9080    8.3120 C.3       1 HN5        -0.0177
     13 C9         28.6910   67.0580    8.8870 C.3       1 HN5         0.0048
     14 C10        28.3100   66.9230   10.3790 C.3       1 HN5         0.0012
     15 C11        27.3150   67.9850   10.8550 C.ar      1 HN5        -0.0111
     16 C16        27.7100   68.8050   11.9080 C.ar      1 HN5        -0.0285
     17 C15        26.8310   69.7870   12.4160 C.ar      1 HN5        -0.0450
     18 C14        25.5610   69.9880   11.8470 C.ar      1 HN5        -0.0568
     19 C17        24.6220   71.0490   12.4040 C.3       1 HN5        -0.0520
     20 C20        24.0110   71.8660   11.2700 C.3       1 HN5        -0.0877
     21 C19        25.3140   71.9660   13.3990 C.3       1 HN5        -0.0877
     22 C18        23.5070   70.3000   13.1220 C.3       1 HN5        -0.0877
     23 C13        25.0740   69.1100   10.7100 C.ar      1 HN5        -0.0450
     24 C12        26.0560   68.1010   10.2600 C.ar      1 HN5        -0.0285
     25 H1         32.6525   68.4684    5.7206 H         1 HN5         0.2100
     26 H2         31.9403   66.2632    5.8661 H         1 HN5         0.0651
     27 H3         31.1146   68.1616    8.0861 H         1 HN5         0.0904
     28 H4         31.4636   65.2442    8.1258 H         1 HN5         0.2042
     29 H5         31.5290   65.3276   10.4308 H         1 HN5         0.0841
     30 H6         30.9088   67.0134   10.4139 H         1 HN5         0.0841
     31 H7         33.1941   67.6388   10.3541 H         1 HN5         0.0675
     32 H8         34.7720   66.0496    9.7662 H         1 HN5         0.2101
     33 H9         33.4232   68.3366    8.1820 H         1 HN5         0.0679
     34 H10        34.8321   66.5455    7.6838 H         1 HN5         0.2102
     35 H11        29.7197   66.5793    4.9295 H         1 HN5         0.0294
     36 H12        29.2753   67.7294    6.2359 H         1 HN5         0.0294
     37 H13        29.7704   64.7199    6.5193 H         1 HN5         0.0321
     38 H14        28.2009   65.5814    6.6650 H         1 HN5         0.0321
     39 H15        29.2762   64.9994    8.8627 H         1 HN5         0.0853
     40 H16        27.7603   67.1035    8.3025 H         1 HN5         0.0351
     41 H17        29.2479   67.9985    8.7634 H         1 HN5         0.0351
     42 H18        29.2263   67.0099   10.9814 H         1 HN5         0.0501
     43 H19        27.8612   65.9309   10.5352 H         1 HN5         0.0501
     44 H20        28.6973   68.6894   12.3404 H         1 HN5         0.0652
     45 H21        27.1405   70.3955   13.2581 H         1 HN5         0.0833
     46 H22        23.3361   72.6270   11.6888 H         1 HN5         0.0126
     47 H23        23.4439   71.2003   10.6027 H         1 HN5         0.0126
     48 H24        24.8123   72.3599   10.7008 H         1 HN5         0.0126
     49 H25        25.7496   71.3645   14.2104 H         1 HN5         0.0126
     50 H26        24.5816   72.6716   13.8182 H         1 HN5         0.0126
     51 H27        26.1117   72.5256   12.8886 H         1 HN5         0.0126
     52 H28        22.9976   69.6320   12.4119 H         1 HN5         0.0126
     53 H29        22.7839   71.0217   13.5297 H         1 HN5         0.0126
     54 H30        23.9342   69.7053   13.9429 H         1 HN5         0.0126
     55 H31        24.0906   69.2136   10.2658 H         1 HN5         0.0833
     56 H32        25.7926   67.4337    9.4473 H         1 HN5         0.0652
@<TRIPOS>BOND
     1    1    2 1  
     2    2    3 1  
     3    2   10 1  
     4    3    4 1  
     5    3    8 1  
     6    4    5 1  
     7    4   12 1  
     8    5    6 1  
     9    6    7 1  
    10    6    8 1  
    11    8    9 1  
    12   10   11 1  
    13   11   12 1  
    14   12   13 1  
    15   13   14 1  
    16   14   15 1  
    17   15   16 ar 
    18   15   24 ar 
    19   16   17 ar 
    20   17   18 ar 
    21   18   19 1  
    22   18   23 ar 
    23   19   20 1  
    24   19   21 1  
    25   19   22 1  
    26   23   24 ar 
    27    1   25 1  
    28    2   26 1  
    29    3   27 1  
    30    4   28 1  
    31    5   29 1  
    32    5   30 1  
    33    6   31 1  
    34    7   32 1  
    35    8   33 1  
    36    9   34 1  
    37   10   35 1  
    38   10   36 1  
    39   11   37 1  
    40   11   38 1  
    41   12   39 1  
    42   13   40 1  
    43   13   41 1  
    44   14   42 1  
    45   14   43 1  
    46   16   44 1  
    47   17   45 1  
    48   20   46 1  
    49   20   47 1  
    50   20   48 1  
    51   21   49 1  
    52   21   50 1  
    53   21   51 1  
    54   22   52 1  
    55   22   53 1  
    56   22   54 1  
    57   23   55 1  
    58   24   56 1  
@<TRIPOS>SUBSTRUCTURE
     1 HN5         1

