### 
### Created by X-TOOL on Mon Sep 10 21:12:59 2018
### 

@<TRIPOS>MOLECULE
3ejt_ligand
   56    58     1     0     0
SMALL
GAST_HUCK


@<TRIPOS>ATOM
      1 O8         31.6620   68.1280    5.5310 O.3       1 HN6        -0.3861
      2 C8         31.2180   66.9840    6.2620 C.3       1 HN6         0.1004
      3 C8A        31.5400   67.1860    7.7460 C.3       1 HN6         0.0351
      4 N4         30.9670   66.0770    8.5610 N.4       1 HN6         0.2453
      5 C3         31.5310   66.3360    9.9100 C.3       1 HN6        -0.0019
      6 C2         32.9870   66.7810    9.6160 C.3       1 HN6         0.1259
      7 O2         33.8760   65.6690    9.8450 O.3       1 HN6        -0.3837
      8 C1         33.0060   67.2790    8.1520 C.3       1 HN6         0.1307
      9 O1         33.8650   66.4510    7.3280 O.3       1 HN6        -0.3833
     10 C7         29.6980   66.8210    6.0820 C.3       1 HN6        -0.0164
     11 C6         29.0960   65.7580    7.0170 C.3       1 HN6        -0.0069
     12 C5         29.4700   66.0340    8.4830 C.3       1 HN6        -0.0177
     13 C9         28.9000   64.9820    9.4540 C.3       1 HN6         0.0048
     14 C10        27.3750   64.8140    9.4710 C.3       1 HN6         0.0012
     15 C11        26.6520   65.9430   10.1830 C.ar      1 HN6        -0.0111
     16 C16        26.7780   66.1430   11.5640 C.ar      1 HN6        -0.0285
     17 C15        26.0880   67.1910   12.1890 C.ar      1 HN6        -0.0450
     18 C14        25.2410   68.0560   11.4820 C.ar      1 HN6        -0.0568
     19 C17        24.4990   69.1990   12.1570 C.3       1 HN6        -0.0520
     20 C20        24.9130   70.5210   11.5070 C.3       1 HN6        -0.0877
     21 C19        24.8300   69.2840   13.6470 C.3       1 HN6        -0.0877
     22 C18        22.9930   69.0090   11.9880 C.3       1 HN6        -0.0877
     23 C13        25.0610   67.8600    9.9950 C.ar      1 HN6        -0.0450
     24 C12        25.8210   66.7540    9.4220 C.ar      1 HN6        -0.0285
     25 H1         32.5995   68.2311    5.6452 H         1 HN6         0.2100
     26 H2         31.7315   66.0848    5.8910 H         1 HN6         0.0651
     27 H3         31.0582   68.1295    8.0422 H         1 HN6         0.0904
     28 H4         31.3108   65.1915    8.2237 H         1 HN6         0.2042
     29 H5         31.5155   65.4236   10.5242 H         1 HN6         0.0841
     30 H6         30.9726   67.1329   10.4230 H         1 HN6         0.0841
     31 H7         33.2725   67.6065   10.2847 H         1 HN6         0.0675
     32 H8         34.7695   65.9373    9.6660 H         1 HN6         0.2101
     33 H9         33.3563   68.3203    8.0975 H         1 HN6         0.0679
     34 H10        34.7511   66.4778    7.6695 H         1 HN6         0.2102
     35 H11        29.4971   66.5274    5.0411 H         1 HN6         0.0294
     36 H12        29.2141   67.7866    6.2905 H         1 HN6         0.0294
     37 H13        29.4789   64.7679    6.7289 H         1 HN6         0.0321
     38 H14        28.0006   65.7707    6.9173 H         1 HN6         0.0321
     39 H15        29.0664   67.0160    8.7708 H         1 HN6         0.0853
     40 H16        29.2158   65.2607   10.4702 H         1 HN6         0.0351
     41 H17        29.3394   64.0095    9.1872 H         1 HN6         0.0351
     42 H18        27.1339   63.8695    9.9806 H         1 HN6         0.0501
     43 H19        27.0173   64.7716    8.4317 H         1 HN6         0.0501
     44 H20        27.4103   65.4861   12.1503 H         1 HN6         0.0652
     45 H21        26.2137   67.3376   13.2557 H         1 HN6         0.0833
     46 H22        24.3787   71.3512   11.9921 H         1 HN6         0.0126
     47 H23        24.6606   70.4982   10.4366 H         1 HN6         0.0126
     48 H24        25.9972   70.6640   11.6251 H         1 HN6         0.0126
     49 H25        24.5420   68.3442   14.1408 H         1 HN6         0.0126
     50 H26        24.2760   70.1201   14.0986 H         1 HN6         0.0126
     51 H27        25.9102   69.4487   13.7739 H         1 HN6         0.0126
     52 H28        22.7491   68.9472   10.9172 H         1 HN6         0.0126
     53 H29        22.4632   69.8626   12.4360 H         1 HN6         0.0126
     54 H30        22.6820   68.0804   12.4890 H         1 HN6         0.0126
     55 H31        24.4153   68.4938    9.3980 H         1 HN6         0.0833
     56 H32        25.7332   66.5577    8.3595 H         1 HN6         0.0652
@<TRIPOS>BOND
     1    1    2 1  
     2    2    3 1  
     3    2   10 1  
     4    3    4 1  
     5    3    8 1  
     6    4    5 1  
     7    4   12 1  
     8    5    6 1  
     9    6    7 1  
    10    6    8 1  
    11    8    9 1  
    12   10   11 1  
    13   11   12 1  
    14   12   13 1  
    15   13   14 1  
    16   14   15 1  
    17   15   16 ar 
    18   15   24 ar 
    19   16   17 ar 
    20   17   18 ar 
    21   18   19 1  
    22   18   23 ar 
    23   19   20 1  
    24   19   21 1  
    25   19   22 1  
    26   23   24 ar 
    27    1   25 1  
    28    2   26 1  
    29    3   27 1  
    30    4   28 1  
    31    5   29 1  
    32    5   30 1  
    33    6   31 1  
    34    7   32 1  
    35    8   33 1  
    36    9   34 1  
    37   10   35 1  
    38   10   36 1  
    39   11   37 1  
    40   11   38 1  
    41   12   39 1  
    42   13   40 1  
    43   13   41 1  
    44   14   42 1  
    45   14   43 1  
    46   16   44 1  
    47   17   45 1  
    48   20   46 1  
    49   20   47 1  
    50   20   48 1  
    51   21   49 1  
    52   21   50 1  
    53   21   51 1  
    54   22   52 1  
    55   22   53 1  
    56   22   54 1  
    57   23   55 1  
    58   24   56 1  
@<TRIPOS>SUBSTRUCTURE
     1 HN6         1

