### 
### Created by X-TOOL on Mon Sep 10 21:12:59 2018
### 

@<TRIPOS>MOLECULE
3eju_ligand
   55    57     1     0     0
SMALL
GAST_HUCK


@<TRIPOS>ATOM
      1 O10        26.5920   65.0700    8.4450 O.2       1 HN7        -0.3651
      2 C10        27.2110   65.8110    9.1850 C.2       1 HN7         0.1575
      3 C11        26.4650   66.9340    9.8800 C.ar      1 HN7         0.0598
      4 C12        25.0730   67.0250    9.7010 C.ar      1 HN7        -0.0155
      5 C13        24.3250   68.0300   10.3160 C.ar      1 HN7        -0.0354
      6 C14        24.9350   68.9750   11.1410 C.ar      1 HN7        -0.0449
      7 C17        24.0930   70.0490   11.8230 C.3       1 HN7        -0.0433
      8 C18        22.6060   69.8890   11.4900 C.3       1 HN7        -0.0831
      9 C19        24.2180   69.9020   13.3420 C.3       1 HN7        -0.0831
     10 C20        24.5180   71.4470   11.3840 C.3       1 HN7        -0.0831
     11 C15        26.3300   68.8900   11.3300 C.ar      1 HN7        -0.0354
     12 C16        27.0950   67.8780   10.7080 C.ar      1 HN7        -0.0155
     13 C9         28.6950   65.5350    9.3510 C.3       1 HN7         0.0697
     14 C5         29.4720   66.3800    8.3310 C.3       1 HN7        -0.0046
     15 C6         29.1120   66.0840    6.8610 C.3       1 HN7        -0.0050
     16 C7         29.7750   67.1320    5.9530 C.3       1 HN7        -0.0162
     17 C8         31.2890   67.2570    6.1620 C.3       1 HN7         0.1004
     18 O8         31.7830   68.3980    5.4500 O.3       1 HN7        -0.3861
     19 N4         30.9630   66.3100    8.4360 N.4       1 HN7         0.2468
     20 C3         31.5130   66.4940    9.8040 C.3       1 HN7        -0.0017
     21 C2         32.9750   66.9300    9.5360 C.3       1 HN7         0.1259
     22 O2         33.8590   65.8390    9.8190 O.3       1 HN7        -0.3837
     23 C1         33.0530   67.4310    8.0790 C.3       1 HN7         0.1307
     24 O1         33.8830   66.5840    7.2510 O.3       1 HN7        -0.3833
     25 C8A        31.5880   67.4230    7.6540 C.3       1 HN7         0.0353
     26 H1         24.5704   66.2991    9.0720 H         1 HN7         0.0743
     27 H2         23.2548   68.0769   10.1502 H         1 HN7         0.0855
     28 H3         22.0299   70.6773   11.9966 H         1 HN7         0.0140
     29 H4         22.2577   68.9032   11.8319 H         1 HN7         0.0140
     30 H5         22.4628   69.9717   10.4025 H         1 HN7         0.0140
     31 H6         25.2728   70.0094   13.6352 H         1 HN7         0.0140
     32 H7         23.8522   68.9101   13.6458 H         1 HN7         0.0140
     33 H8         23.6190   70.6810   13.8363 H         1 HN7         0.0140
     34 H9         24.4215   71.5334   10.2917 H         1 HN7         0.0140
     35 H10        25.5647   71.6202   11.6745 H         1 HN7         0.0140
     36 H11        23.8741   72.1953   11.8692 H         1 HN7         0.0140
     37 H12        26.8252   69.6156   11.9651 H         1 HN7         0.0855
     38 H13        28.1659   67.8301   10.8694 H         1 HN7         0.0743
     39 H14        28.8946   64.4676    9.1754 H         1 HN7         0.0545
     40 H15        29.0095   65.8041   10.3702 H         1 HN7         0.0545
     41 H16        29.1853   67.4226    8.5328 H         1 HN7         0.0877
     42 H17        28.0201   66.1268    6.7346 H         1 HN7         0.0322
     43 H18        29.4736   65.0813    6.5892 H         1 HN7         0.0322
     44 H19        29.3142   68.1098    6.1567 H         1 HN7         0.0294
     45 H20        29.5908   66.8508    4.9056 H         1 HN7         0.0294
     46 H21        31.7852   66.3494    5.7877 H         1 HN7         0.0651
     47 H22        32.7209   68.4710    5.5826 H         1 HN7         0.2100
     48 H23        31.2599   65.4171    8.0746 H         1 HN7         0.2043
     49 H24        31.4790   65.5536   10.3736 H         1 HN7         0.0841
     50 H25        30.9618   67.2736   10.3502 H         1 HN7         0.0841
     51 H26        33.2351   67.7632   10.2054 H         1 HN7         0.0675
     52 H27        34.7551   66.1080    9.6542 H         1 HN7         0.2101
     53 H28        33.4563   68.4538    8.0444 H         1 HN7         0.0679
     54 H29        34.7649   66.5646    7.6037 H         1 HN7         0.2102
     55 H30        31.1422   68.3797    7.9638 H         1 HN7         0.0904
@<TRIPOS>BOND
     1    1    2 2  
     2    2    3 1  
     3    2   13 1  
     4    3    4 ar 
     5    3   12 ar 
     6    4    5 ar 
     7    5    6 ar 
     8    6    7 1  
     9    6   11 ar 
    10    7    8 1  
    11    7    9 1  
    12    7   10 1  
    13   11   12 ar 
    14   13   14 1  
    15   14   15 1  
    16   14   19 1  
    17   15   16 1  
    18   16   17 1  
    19   17   18 1  
    20   17   25 1  
    21   19   20 1  
    22   19   25 1  
    23   20   21 1  
    24   21   22 1  
    25   21   23 1  
    26   23   24 1  
    27   23   25 1  
    28    4   26 1  
    29    5   27 1  
    30    8   28 1  
    31    8   29 1  
    32    8   30 1  
    33    9   31 1  
    34    9   32 1  
    35    9   33 1  
    36   10   34 1  
    37   10   35 1  
    38   10   36 1  
    39   11   37 1  
    40   12   38 1  
    41   13   39 1  
    42   13   40 1  
    43   14   41 1  
    44   15   42 1  
    45   15   43 1  
    46   16   44 1  
    47   16   45 1  
    48   17   46 1  
    49   18   47 1  
    50   19   48 1  
    51   20   49 1  
    52   20   50 1  
    53   21   51 1  
    54   22   52 1  
    55   23   53 1  
    56   24   54 1  
    57   25   55 1  
@<TRIPOS>SUBSTRUCTURE
     1 HN7         1

