### 
### Created by X-TOOL on Mon Sep 10 21:13:01 2018
### 

@<TRIPOS>MOLECULE
3eka_ligand
   20    20     1     0     0
SMALL
GAST_HUCK


@<TRIPOS>ATOM
      1 C1         16.9680   -1.3800   37.3300 C.2       1 ASC         0.2539
      2 C2         16.7050   -2.6430   36.7180 C.2       1 ASC         0.1683
      3 C3         15.8370   -2.4020   35.7370 C.2       1 ASC         0.1431
      4 C4         15.5180   -0.9070   35.6250 C.3       1 ASC         0.1757
      5 C5         14.1500   -0.4690   36.1490 C.3       1 ASC         0.1216
      6 C6         14.1600    1.0740   36.1530 C.3       1 ASC         0.0751
      7 O1         17.4850   -1.2550   38.4420 O.2       1 ASC        -0.3847
      8 O2         17.2450   -3.7940   37.1220 O.3       1 ASC        -0.3616
      9 O3         15.3060   -3.3330   34.9470 O.3       1 ASC        -0.3275
     10 O4         16.5010   -0.2680   36.4830 O.3       1 ASC        -0.2611
     11 O5         13.9870   -0.9890   37.4800 O.3       1 ASC        -0.3841
     12 O6         13.1650    1.6290   37.3630 O.3       1 ASC        -0.3922
     13 H1         15.6237   -0.5858   34.5783 H         1 ASC         0.0885
     14 H2         13.3444   -0.8432   35.5001 H         1 ASC         0.0673
     15 H3         13.8001    1.4459   35.1824 H         1 ASC         0.0586
     16 H4         15.1848    1.4340   36.3265 H         1 ASC         0.0586
     17 H5         17.8307   -3.6289   37.8515 H         1 ASC         0.2284
     18 H6         15.6433   -4.1861   35.1938 H         1 ASC         0.2522
     19 H7         13.1643   -0.6802   37.8409 H         1 ASC         0.2103
     20 H8         13.4768    1.3069   38.2006 H         1 ASC         0.2095
@<TRIPOS>BOND
     1    1    2 1  
     2    1    7 2  
     3    1   10 1  
     4    2    3 2  
     5    2    8 1  
     6    3    4 1  
     7    3    9 1  
     8    4    5 1  
     9    4   10 1  
    10    5    6 1  
    11    5   11 1  
    12    6   12 1  
    13    4   13 1  
    14    5   14 1  
    15    6   15 1  
    16    6   16 1  
    17    8   17 1  
    18    9   18 1  
    19   11   19 1  
    20   12   20 1  
@<TRIPOS>SUBSTRUCTURE
     1 ASC         1

