### 
### Created by X-TOOL on Mon Sep 10 21:12:58 2018
### 

@<TRIPOS>MOLECULE
3ekn_ligand
   70    74     1     0     0
SMALL
GAST_HUCK


@<TRIPOS>ATOM
      1 C1         -0.1160   19.8720   20.5510 C.3       1 GS3         0.0568
      2 O1          1.1320   19.6690   19.8980 O.3       1 GS3        -0.3281
      3 C2          2.1620   19.9550   20.7960 C.ar      1 GS3         0.1045
      4 C3          1.9380   20.0890   22.1500 C.ar      1 GS3        -0.0243
      5 C4          2.9770   20.3930   23.0060 C.ar      1 GS3         0.0204
      6 C5          4.2390   20.5370   22.4590 C.ar      1 GS3        -0.0644
      7 C6          4.4710   20.3870   21.1080 C.ar      1 GS3        -0.0571
      8 C7          3.4240   20.0980   20.2550 C.ar      1 GS3         0.0817
      9 N1          3.5460   19.9380   18.8540 N.pl3     1 GS3        -0.2606
     10 C8          4.5960   20.3360   18.0130 C.ar      1 GS3         0.1687
     11 N2          5.5630   21.1190   18.5050 N.ar      1 GS3        -0.2519
     12 C9          6.5870   21.4970   17.7270 C.ar      1 GS3         0.1293
     13 N3          7.6380   22.3170   18.1720 N.pl3     1 GS3        -0.2527
     14 C10         7.8220   22.8100   19.4740 C.ar      1 GS3         0.0843
     15 C11         6.7660   23.1650   20.2890 C.ar      1 GS3        -0.0357
     16 C12         6.9930   23.6530   21.5570 C.ar      1 GS3        -0.0685
     17 C13         8.2760   23.7990   22.0410 C.ar      1 GS3        -0.0336
     18 C14         9.3380   23.4520   21.2340 C.ar      1 GS3         0.1446
     19 F1         10.6180   23.5780   21.6590 F         1 GS3        -0.1804
     20 C15         9.1010   22.9680   19.9660 C.ar      1 GS3         0.1061
     21 C16        10.2740   22.6070   19.1560 C.2       1 GS3         0.1952
     22 O2         10.3760   22.9480   17.9880 O.2       1 GS3        -0.3937
     23 N4         11.1900   21.8690   19.8610 N.am      1 GS3        -0.3028
     24 C17         6.6000   21.0560   16.4150 C.ar      1 GS3         0.0359
     25 C18         7.4660   21.2280   15.3050 C.2       1 GS3        -0.0617
     26 C19         6.9240   20.5330   14.2520 C.2       1 GS3         0.0189
     27 N5          5.7700   19.9490   14.6840 N.pl3     1 GS3        -0.2726
     28 C20         5.5610   20.2590   16.0010 C.ar      1 GS3         0.1203
     29 N6          4.5360   19.8650   16.7570 N.ar      1 GS3        -0.2664
     30 N7          2.7470   20.5310   24.3950 N.pl3     1 GS3        -0.3065
     31 C21         3.9970   20.4540   25.1270 C.3       1 GS3         0.0648
     32 C22         3.6580   20.1650   26.5660 C.3       1 GS3        -0.0118
     33 N8          2.8420   21.3040   27.0630 N.4       1 GS3         0.2397
     34 C23         1.6210   21.5860   26.2310 C.3       1 GS3        -0.0118
     35 C24         1.9850   21.7250   24.7590 C.3       1 GS3         0.0648
     36 C25         2.5960   21.2030   28.5410 C.3       1 GS3        -0.0265
     37 C26         3.9100   21.3890   29.2750 C.3       1 GS3        -0.0218
     38 C27         1.7140   22.3510   28.9620 C.3       1 GS3        -0.0218
     39 H1         -0.9359   19.6494   19.8523 H         1 GS3         0.0573
     40 H2         -0.1906   20.9182   20.8824 H         1 GS3         0.0573
     41 H3         -0.1863   19.2052   21.4230 H         1 GS3         0.0573
     42 H4          0.9376   19.9545   22.5453 H         1 GS3         0.0409
     43 H5          5.0709   20.7750   23.1120 H         1 GS3         0.0397
     44 H6          5.4755   20.4960   20.7154 H         1 GS3         0.0473
     45 H7          2.7575   19.4656   18.3892 H         1 GS3         0.2099
     46 H8          8.3452   22.5835   17.4721 H         1 GS3         0.2200
     47 H9          5.7494   23.0588   19.9281 H         1 GS3         0.0517
     48 H10         6.1513   23.9261   22.1831 H         1 GS3         0.0614
     49 H11         8.4467   24.1809   23.0410 H         1 GS3         0.0521
     50 H12        12.0325   21.5624   19.4180 H         1 GS3         0.1802
     51 H13        11.0155   21.6375   20.8180 H         1 GS3         0.1802
     52 H14         8.3898   21.8045   15.2905 H         1 GS3         0.0294
     53 H15         7.3420   20.4609   13.2490 H         1 GS3         0.0872
     54 H16         5.1496   19.3634   14.1069 H         1 GS3         0.2296
     55 H17         4.5362   21.4098   25.0523 H         1 GS3         0.0563
     56 H18         4.6230   19.6469   24.7186 H         1 GS3         0.0563
     57 H19         4.5797   20.0746   27.1595 H         1 GS3         0.0834
     58 H20         3.0828   19.2301   26.6372 H         1 GS3         0.0834
     59 H21         3.4234   22.1194   26.9482 H         1 GS3         0.2037
     60 H22         1.1579   22.5218   26.5771 H         1 GS3         0.0834
     61 H23         0.9064   20.7580   26.3483 H         1 GS3         0.0834
     62 H24         1.0725   21.7920   24.1485 H         1 GS3         0.0563
     63 H25         2.5968   22.6259   24.6042 H         1 GS3         0.0563
     64 H26         2.1359   20.2358   28.7916 H         1 GS3         0.0846
     65 H27         3.7379   21.3163   30.3590 H         1 GS3         0.0284
     66 H28         4.3270   22.3783   29.0355 H         1 GS3         0.0284
     67 H29         4.6182   20.6073   28.9630 H         1 GS3         0.0284
     68 H30         1.5248   22.2904   30.0439 H         1 GS3         0.0284
     69 H31         0.7588   22.2977   28.4192 H         1 GS3         0.0284
     70 H32         2.2150   23.3025   28.7302 H         1 GS3         0.0284
@<TRIPOS>BOND
     1    1    2 1  
     2    2    3 1  
     3    3    4 ar 
     4    3    8 ar 
     5    4    5 ar 
     6    5    6 ar 
     7    5   30 1  
     8    6    7 ar 
     9    7    8 ar 
    10    8    9 1  
    11    9   10 1  
    12   10   11 ar 
    13   10   29 ar 
    14   11   12 ar 
    15   12   13 1  
    16   12   24 ar 
    17   13   14 1  
    18   14   15 ar 
    19   14   20 ar 
    20   15   16 ar 
    21   16   17 ar 
    22   17   18 ar 
    23   18   19 1  
    24   18   20 ar 
    25   20   21 1  
    26   21   22 2  
    27   21   23 am 
    28   24   25 1  
    29   24   28 ar 
    30   25   26 2  
    31   26   27 1  
    32   27   28 1  
    33   28   29 ar 
    34   30   31 1  
    35   30   35 1  
    36   31   32 1  
    37   32   33 1  
    38   33   34 1  
    39   33   36 1  
    40   34   35 1  
    41   36   37 1  
    42   36   38 1  
    43    1   39 1  
    44    1   40 1  
    45    1   41 1  
    46    4   42 1  
    47    6   43 1  
    48    7   44 1  
    49    9   45 1  
    50   13   46 1  
    51   15   47 1  
    52   16   48 1  
    53   17   49 1  
    54   23   50 1  
    55   23   51 1  
    56   25   52 1  
    57   26   53 1  
    58   27   54 1  
    59   31   55 1  
    60   31   56 1  
    61   32   57 1  
    62   32   58 1  
    63   33   59 1  
    64   34   60 1  
    65   34   61 1  
    66   35   62 1  
    67   35   63 1  
    68   36   64 1  
    69   37   65 1  
    70   37   66 1  
    71   37   67 1  
    72   38   68 1  
    73   38   69 1  
    74   38   70 1  
@<TRIPOS>SUBSTRUCTURE
     1 GS3         1

