### 
### Created by X-TOOL on Mon Sep 10 21:12:57 2018
### 

@<TRIPOS>MOLECULE
3eko_ligand
   25    26     1     0     0
SMALL
GAST_HUCK


@<TRIPOS>ATOM
      1 N1         17.3300   -3.7920   51.3110 N.am      1 PYU        -0.2015
      2 C4         15.0750   -1.4890   50.6690 C.ar      1 PYU         0.0955
      3 C5         16.5860    0.6050   49.4790 C.ar      1 PYU        -0.0097
      4 C6         14.5470   -0.1700   50.6470 C.ar      1 PYU        -0.0097
      5 C7         17.8580   -5.0670   51.3870 C.2       1 PYU         0.0396
      6 C8         17.2880   -3.2890   52.6110 C.2       1 PYU         0.0396
      7 C10        18.1380   -5.3550   52.7030 C.2       1 PYU        -0.0903
      8 C11        17.7790   -4.2340   53.4710 C.2       1 PYU        -0.0903
      9 C1         16.3580   -1.7640   50.0990 C.ar      1 PYU         0.1153
     10 C9         15.3090    0.8690   50.0510 C.ar      1 PYU         0.0764
     11 C3         17.1030   -0.7160   49.5080 C.ar      1 PYU         0.0955
     12 C2         16.9180   -3.1330   50.1250 C.2       1 PYU         0.2635
     13 O1         17.0400   -3.7310   49.0500 O.2       1 PYU        -0.3585
     14 O4         14.7860    2.1290   50.0470 O.3       1 PYU        -0.3350
     15 O2         18.3320   -0.9270   48.9500 O.3       1 PYU        -0.3326
     16 O3         14.3520   -2.5010   51.2450 O.3       1 PYU        -0.3326
     17 H1         17.1581    1.4062   49.0254 H         1 PYU         0.0390
     18 H2         13.5755    0.0401   51.0795 H         1 PYU         0.0390
     19 H3         18.0251   -5.7347   50.5431 H         1 PYU         0.0800
     20 H4         16.9233   -2.3032   52.8960 H         1 PYU         0.0800
     21 H5         18.5615   -6.2842   53.0814 H         1 PYU         0.0231
     22 H6         17.8740   -4.1354   54.5514 H         1 PYU         0.0231
     23 H7         15.3940    2.7217   49.6209 H         1 PYU         0.2496
     24 H8         18.6685   -0.1069   48.6085 H         1 PYU         0.2505
     25 H9         13.5304   -2.1548   51.5729 H         1 PYU         0.2505
@<TRIPOS>BOND
     1    1    5 1  
     2    1    6 1  
     3   12    1 am 
     4    2    4 ar 
     5    9    2 ar 
     6    2   16 1  
     7    3   10 ar 
     8   11    3 ar 
     9    4   10 ar 
    10    5    7 2  
    11    6    8 2  
    12    8    7 1  
    13    9   11 ar 
    14    9   12 1  
    15   10   14 1  
    16   11   15 1  
    17   12   13 2  
    18    3   17 1  
    19    4   18 1  
    20    5   19 1  
    21    6   20 1  
    22    7   21 1  
    23    8   22 1  
    24   14   23 1  
    25   15   24 1  
    26   16   25 1  
@<TRIPOS>SUBSTRUCTURE
     1 PYU         1

