### 
### Created by X-TOOL on Mon Sep 10 21:13:00 2018
### 

@<TRIPOS>MOLECULE
3ekp_ligand
   70    72     1     0     0
SMALL
GAST_HUCK


@<TRIPOS>ATOM
      1 C1          8.9390  -22.2750   29.7780 C.3       1 478         0.0782
      2 C2         11.2180  -21.6590   30.2550 C.3       1 478         0.0034
      3 C3         10.5500  -21.7060   33.0940 C.2       1 478         0.3203
      4 C4          9.8070  -21.5610   30.8000 C.3       1 478         0.1134
      5 C5         11.4930  -22.2660   35.2750 C.3       1 478         0.0807
      6 C6         13.0050  -22.4800   35.3110 C.3       1 478         0.0967
      7 C7         10.7460  -23.1270   36.3000 C.3       1 478         0.0064
      8 C8          9.2470  -22.9340   36.2130 C.ar      1 478        -0.0408
      9 C9          8.4250  -24.0460   36.0350 C.ar      1 478        -0.0603
     10 C10         8.6840  -21.6700   36.3870 C.ar      1 478        -0.0603
     11 C11         7.0410  -23.8890   35.9890 C.ar      1 478        -0.0686
     12 C12         7.2920  -21.5090   36.3190 C.ar      1 478        -0.0686
     13 C13         6.4610  -22.6200   36.1160 C.ar      1 478        -0.0687
     14 C14        13.5660  -21.9700   36.6200 C.3       1 478         0.0578
     15 C15        14.8790  -19.9830   36.4360 C.3       1 478         0.0319
     16 C16        15.1890  -19.7540   34.9570 C.3       1 478        -0.0296
     17 C17        13.3940  -19.9120   39.2240 C.ar      1 478         0.0949
     18 C18        12.9440  -20.7710   40.2300 C.ar      1 478        -0.0471
     19 C19        13.5190  -20.7590   41.5010 C.ar      1 478        -0.0429
     20 C20        14.5570  -19.8820   41.7540 C.ar      1 478         0.0353
     21 C21        14.9640  -18.9770   40.7930 C.ar      1 478        -0.0429
     22 C22        14.3850  -19.0030   39.5310 C.ar      1 478        -0.0471
     23 C23        14.2380  -18.7110   34.3880 C.3       1 478        -0.0612
     24 C24        16.6320  -19.2980   34.7960 C.3       1 478        -0.0612
     25 C25        11.0610  -22.2220   28.8520 C.3       1 478         0.0505
     26 N1         10.9400  -22.5900   33.9950 N.am      1 478        -0.2550
     27 N2         13.5230  -20.5180   36.5670 N.am      1 478        -0.2327
     28 N3         15.1500  -19.8640   42.9550 N.pl3     1 478        -0.3369
     29 O1          9.7400  -22.2630   32.0180 O.3       1 478        -0.2582
     30 O2         10.7900  -20.5310   33.1220 O.2       1 478        -0.3775
     31 O3         13.3960  -23.8410   35.2460 O.3       1 478        -0.3877
     32 O4         11.3890  -20.5000   37.9220 O.2       1 478        -0.1518
     33 O5         12.4170  -18.5160   37.4030 O.2       1 478        -0.1518
     34 O6          9.8140  -22.8970   28.8210 O.3       1 478        -0.3768
     35 S1         12.6720  -19.8610   37.7860 S.o2      1 478         0.0648
     36 H1          8.2837  -21.5510   29.2716 H         1 478         0.0589
     37 H2          8.3248  -23.0394   30.2765 H         1 478         0.0589
     38 H3         11.8261  -22.3332   30.8760 H         1 478         0.0316
     39 H4         11.6894  -20.6657   30.2222 H         1 478         0.0316
     40 H5          9.4970  -20.5142   30.9341 H         1 478         0.0671
     41 H6         11.2983  -21.2054   35.4923 H         1 478         0.0604
     42 H7         13.4527  -21.9328   34.4684 H         1 478         0.0634
     43 H8         11.0823  -22.8498   37.3100 H         1 478         0.0449
     44 H9         10.9798  -24.1855   36.1133 H         1 478         0.0449
     45 H10         8.8624  -25.0325   35.9324 H         1 478         0.0557
     46 H11         9.3210  -20.8132   36.5745 H         1 478         0.0557
     47 H12         6.4068  -24.7576   35.8536 H         1 478         0.0599
     48 H13         6.8571  -20.5216   36.4238 H         1 478         0.0599
     49 H14         5.3853  -22.4988   36.0582 H         1 478         0.0559
     50 H15        14.6039  -22.3123   36.7446 H         1 478         0.0504
     51 H16        12.9562  -22.3350   37.4596 H         1 478         0.0504
     52 H17        14.9521  -19.0292   36.9791 H         1 478         0.0480
     53 H18        15.5995  -20.7003   36.8560 H         1 478         0.0480
     54 H19        15.0507  -20.6988   34.4110 H         1 478         0.0311
     55 H20        12.1335  -21.4592   40.0190 H         1 478         0.0602
     56 H21        13.1583  -21.4254   42.2762 H         1 478         0.0515
     57 H22        15.7331  -18.2486   41.0233 H         1 478         0.0515
     58 H23        14.7166  -18.2989   38.7764 H         1 478         0.0602
     59 H24        14.4649  -18.5497   33.3238 H         1 478         0.0233
     60 H25        14.3602  -17.7653   34.9364 H         1 478         0.0233
     61 H26        13.2015  -19.0641   34.4924 H         1 478         0.0233
     62 H27        17.3063  -20.0614   35.2114 H         1 478         0.0233
     63 H28        16.7785  -18.3486   35.3319 H         1 478         0.0233
     64 H29        16.8543  -19.1545   33.7283 H         1 478         0.0233
     65 H30        11.8780  -22.9248   28.6319 H         1 478         0.0561
     66 H31        11.0693  -21.4070   28.1133 H         1 478         0.0561
     67 H32        10.8415  -23.5583   33.7656 H         1 478         0.1873
     68 H33        14.8588  -20.5318   43.6832 H         1 478         0.1719
     69 H34        15.8971  -19.1824   43.1503 H         1 478         0.1719
     70 H35        13.0331  -24.3094   35.9886 H         1 478         0.2100
@<TRIPOS>BOND
     1    4    1 1  
     2    1   34 1  
     3    4    2 1  
     4    2   25 1  
     5   26    3 am 
     6    3   29 1  
     7    3   30 2  
     8   29    4 1  
     9    6    5 1  
    10    5    7 1  
    11    5   26 1  
    12   14    6 1  
    13    6   31 1  
    14    7    8 1  
    15    8    9 ar 
    16    8   10 ar 
    17    9   11 ar 
    18   10   12 ar 
    19   11   13 ar 
    20   12   13 ar 
    21   27   14 1  
    22   15   16 1  
    23   27   15 1  
    24   16   23 1  
    25   16   24 1  
    26   17   18 ar 
    27   17   22 ar 
    28   35   17 1  
    29   18   19 ar 
    30   19   20 ar 
    31   21   20 ar 
    32   20   28 1  
    33   22   21 ar 
    34   25   34 1  
    35   27   35 am 
    36   35   32 2  
    37   35   33 2  
    38    1   36 1  
    39    1   37 1  
    40    2   38 1  
    41    2   39 1  
    42    4   40 1  
    43    5   41 1  
    44    6   42 1  
    45    7   43 1  
    46    7   44 1  
    47    9   45 1  
    48   10   46 1  
    49   11   47 1  
    50   12   48 1  
    51   13   49 1  
    52   14   50 1  
    53   14   51 1  
    54   15   52 1  
    55   15   53 1  
    56   16   54 1  
    57   18   55 1  
    58   19   56 1  
    59   21   57 1  
    60   22   58 1  
    61   23   59 1  
    62   23   60 1  
    63   23   61 1  
    64   24   62 1  
    65   24   63 1  
    66   24   64 1  
    67   25   65 1  
    68   25   66 1  
    69   26   67 1  
    70   28   68 1  
    71   28   69 1  
    72   31   70 1  
@<TRIPOS>SUBSTRUCTURE
     1 478         1

