### 
### Created by X-TOOL on Mon Sep 10 21:12:57 2018
### 

@<TRIPOS>MOLECULE
3ekr_ligand
   41    43     1     0     0
SMALL
GAST_HUCK


@<TRIPOS>ATOM
      1 N1         17.1140   -3.7120   51.0650 N.am      1 PY9        -0.2626
      2 C4         15.2170    0.8970   49.6930 C.ar      1 PY9         0.0846
      3 C5         16.5820    0.6770   49.3700 C.ar      1 PY9         0.0007
      4 C6         17.1030   -0.6460   49.4040 C.ar      1 PY9         0.1008
      5 C7         16.8290   -3.1190   49.8050 C.2       1 PY9         0.1959
      6 C8         16.9380   -3.1630   52.4490 C.3       1 PY9         0.0751
      7 C10        17.8680   -5.4040   52.5880 C.3       1 PY9        -0.0287
      8 C13        14.4900   -4.0780   52.5680 C.ar      1 PY9        -0.0647
      9 C15        12.7880   -3.0890   54.0340 C.ar      1 PY9        -0.0755
     10 C17        15.0820   -2.1400   54.0060 C.ar      1 PY9        -0.0419
     11 C14        13.1620   -4.0530   53.0730 C.ar      1 PY9        -0.0754
     12 C2         14.8930   -1.5000   50.0740 C.ar      1 PY9        -0.0582
     13 C16        13.7350   -2.1430   54.4960 C.ar      1 PY9        -0.0671
     14 C3         14.3690   -0.1820   50.0430 C.ar      1 PY9        -0.0378
     15 C1         16.2670   -1.7390   49.7580 C.ar      1 PY9         0.0673
     16 C12        15.4870   -3.1320   53.0130 C.ar      1 PY9        -0.0161
     17 C9         17.8840   -4.0440   53.2820 C.3       1 PY9        -0.0190
     18 C11        17.6810   -5.0660   51.1140 C.3       1 PY9         0.0354
     19 C18        16.0250   -1.0880   54.5570 C.3       1 PY9        -0.0336
     20 O3         17.0280   -3.6660   48.7170 O.2       1 PY9        -0.3954
     21 O2         14.6890    2.1500   49.6810 O.3       1 PY9        -0.3324
     22 O1         18.4180   -0.8030   49.0880 O.3       1 PY9        -0.3304
     23 H1         17.2212    1.5098   49.0999 H         1 PY9         0.0475
     24 H2         17.3016   -2.1249   52.4617 H         1 PY9         0.0705
     25 H3         17.0348   -6.0206   52.9561 H         1 PY9         0.0287
     26 H4         18.8171   -5.9361   52.7493 H         1 PY9         0.0287
     27 H5         14.7615   -4.8251   51.8310 H         1 PY9         0.0538
     28 H6         11.7747   -3.0729   54.4187 H         1 PY9         0.0541
     29 H7         12.4350   -4.7753   52.7197 H         1 PY9         0.0541
     30 H8         14.2484   -2.3303   50.3386 H         1 PY9         0.0616
     31 H9         13.4357   -1.4075   55.2339 H         1 PY9         0.0537
     32 H10        13.3278   -0.0022   50.2853 H         1 PY9         0.0469
     33 H11        17.5196   -4.1330   54.3161 H         1 PY9         0.0309
     34 H12        18.9006   -3.6238   53.2863 H         1 PY9         0.0309
     35 H13        18.6492   -5.0916   50.5926 H         1 PY9         0.0523
     36 H14        16.9923   -5.7836   50.6441 H         1 PY9         0.0523
     37 H15        15.4900   -0.4618   55.2861 H         1 PY9         0.0376
     38 H16        16.3936   -0.4585   53.7336 H         1 PY9         0.0376
     39 H17        16.8755   -1.5805   55.0511 H         1 PY9         0.0376
     40 H18        15.3611    2.7732   49.4313 H         1 PY9         0.2498
     41 H19        18.7965    0.0438   48.8826 H         1 PY9         0.2506
@<TRIPOS>BOND
     1    1    5 am 
     2    6    1 1  
     3    1   18 1  
     4    3    2 ar 
     5    2   14 ar 
     6    2   21 1  
     7    4    3 ar 
     8   15    4 ar 
     9    4   22 1  
    10    5   15 1  
    11    5   20 2  
    12   16    6 1  
    13    6   17 1  
    14   17    7 1  
    15    7   18 1  
    16    8   11 ar 
    17    8   16 ar 
    18   11    9 ar 
    19    9   13 ar 
    20   13   10 ar 
    21   10   16 ar 
    22   10   19 1  
    23   14   12 ar 
    24   12   15 ar 
    25    3   23 1  
    26    6   24 1  
    27    7   25 1  
    28    7   26 1  
    29    8   27 1  
    30    9   28 1  
    31   11   29 1  
    32   12   30 1  
    33   13   31 1  
    34   14   32 1  
    35   17   33 1  
    36   17   34 1  
    37   18   35 1  
    38   18   36 1  
    39   19   37 1  
    40   19   38 1  
    41   19   39 1  
    42   21   40 1  
    43   22   41 1  
@<TRIPOS>SUBSTRUCTURE
     1 PY9         1

