### 
### Created by X-TOOL on Mon Sep 10 21:12:59 2018
### 

@<TRIPOS>MOLECULE
3eks_ligand
   74    77     1     0     0
SMALL
GAST_HUCK


@<TRIPOS>ATOM
      1 C1        159.7530  -16.4910   31.3260 C.2       1 CY9         0.2131
      2 C5        157.0340  -14.9310   29.8150 C.3       1 CY9        -0.0013
      3 C4        157.5720  -16.2730   30.3190 C.3       1 CY9         0.0204
      4 C3        158.6160  -16.8420   29.3530 C.3       1 CY9         0.0570
      5 O1        160.6910  -16.3750   32.1150 O.2       1 CY9        -0.3435
      6 C6        158.1750  -13.9180   29.8910 C.2       1 CY9        -0.0405
      7 C25       157.1910  -18.0370   26.6500 C.ar      1 CY9        -0.0603
      8 C26       156.1200  -18.1900   25.7780 C.ar      1 CY9        -0.0686
      9 C27       154.9140  -18.7000   26.2460 C.ar      1 CY9        -0.0687
     10 C28       154.7780  -19.0550   27.5830 C.ar      1 CY9        -0.0686
     11 C29       155.8490  -18.9020   28.4560 C.ar      1 CY9        -0.0603
     12 C24       157.0570  -18.3950   27.9880 C.ar      1 CY9        -0.0408
     13 C10       158.2550  -18.2670   28.9290 C.3       1 CY9         0.0044
     14 N2        159.9060  -16.8640   30.0590 N.am      1 CY9        -0.2798
     15 C9        158.3000  -16.1490   31.6630 C.3       1 CY9         0.1293
     16 C11       156.5080  -15.0410   28.3820 C.3       1 CY9        -0.0501
     17 C12       158.6530  -13.2530   28.7680 C.2       1 CY9        -0.1262
     18 C7        158.8180  -13.7030   31.2600 C.3       1 CY9         0.0995
     19 O7        158.5050  -12.3810   31.7060 O.3       1 CY9        -0.3746
     20 C8        158.2280  -14.7270   32.2330 C.3       1 CY9         0.0342
     21 C13       158.9940  -14.5870   33.5520 C.2       1 CY9        -0.0907
     22 C14       158.3960  -13.9600   34.6390 C.2       1 CY9        -0.0959
     23 C15       159.0790  -13.8060   35.8420 C.3       1 CY9        -0.0196
     24 C16       158.8530  -14.9530   36.8280 C.3       1 CY9         0.0258
     25 C22       159.2980  -14.5540   38.2370 C.3       1 CY9        -0.0464
     26 C17       159.6250  -16.2010   36.3920 C.2       1 CY9         0.1026
     27 O17       160.8520  -16.1800   36.3050 O.2       1 CY9        -0.3649
     28 C18       158.8540  -17.4850   36.0850 C.3       1 CY9         0.0863
     29 O18       159.7870  -18.5200   35.7610 O.3       1 CY9        -0.4424
     30 C23       158.0240  -17.8740   37.3100 C.3       1 CY9        -0.0700
     31 C19       158.0210  -17.2360   35.0000 C.2       1 CY9        -0.0482
     32 C20       158.4930  -17.4350   33.7080 C.2       1 CY9         0.0208
     33 C21       157.6790  -17.1820   32.6090 C.3       1 CY9         0.1785
     34 O21       156.3950  -16.7120   33.0430 O.3       1 CY9        -0.2385
     35 C30       155.4260  -17.6380   32.8130 C.2       1 CY9         0.2363
     36 C31       154.1030  -17.3380   33.1180 C.3       1 CY9         0.0376
     37 O30       155.7080  -18.7260   32.3130 O.2       1 CY9        -0.3703
     38 H1        156.2109  -14.6034   30.4670 H         1 CY9         0.0495
     39 H2        156.7290  -16.9727   30.4175 H         1 CY9         0.0353
     40 H3        158.6838  -16.2017   28.4612 H         1 CY9         0.0584
     41 H4        158.1317  -17.6384   26.2876 H         1 CY9         0.0557
     42 H5        156.2244  -17.9124   24.7353 H         1 CY9         0.0599
     43 H6        154.0780  -18.8210   25.5666 H         1 CY9         0.0559
     44 H7        153.8363  -19.4514   27.9451 H         1 CY9         0.0599
     45 H8        155.7431  -19.1772   29.4991 H         1 CY9         0.0557
     46 H9        158.0335  -18.8445   29.8386 H         1 CY9         0.0449
     47 H10       159.1300  -18.7011   28.4231 H         1 CY9         0.0449
     48 H11       160.7778  -17.1236   29.6435 H         1 CY9         0.1862
     49 H12       156.1306  -14.0613   28.0538 H         1 CY9         0.0259
     50 H13       155.6928  -15.7787   28.3462 H         1 CY9         0.0259
     51 H14       157.3225  -15.3620   27.7160 H         1 CY9         0.0259
     52 H15       159.4685  -12.5378   28.8647 H         1 CY9         0.0076
     53 H16       158.2120  -13.4472   27.7914 H         1 CY9         0.0076
     54 H17       159.9086  -13.8299   31.1937 H         1 CY9         0.0814
     55 H18       157.5622  -12.2850   31.7715 H         1 CY9         0.2139
     56 H19       157.1695  -14.4853   32.4097 H         1 CY9         0.0472
     57 H20       160.0066  -14.9785   33.6382 H         1 CY9         0.0454
     58 H21       157.3781  -13.5837   34.5480 H         1 CY9         0.0452
     59 H22       158.7440  -12.8708   36.3144 H         1 CY9         0.0415
     60 H23       160.1554  -13.7419   35.6246 H         1 CY9         0.0415
     61 H24       157.7789  -15.1892   36.8488 H         1 CY9         0.0528
     62 H25       159.1261  -15.3931   38.9272 H         1 CY9         0.0258
     63 H26       158.7190  -13.6803   38.5708 H         1 CY9         0.0258
     64 H27       160.3687  -14.3019   38.2258 H         1 CY9         0.0258
     65 H28       160.3686  -18.6627   36.4984 H         1 CY9         0.1873
     66 H29       157.4660  -18.7976   37.0966 H         1 CY9         0.0102
     67 H30       157.3171  -17.0649   37.5460 H         1 CY9         0.0102
     68 H31       158.6920  -18.0392   38.1681 H         1 CY9         0.0102
     69 H32       157.0025  -16.8863   35.1619 H         1 CY9         0.0513
     70 H33       159.5101  -17.7925   33.5547 H         1 CY9         0.1566
     71 H34       157.5437  -18.1233   32.0562 H         1 CY9         0.1085
     72 H35       153.4648  -18.1982   32.8674 H         1 CY9         0.0483
     73 H36       153.7821  -16.4616   32.5358 H         1 CY9         0.0483
     74 H37       154.0153  -17.1170   34.1920 H         1 CY9         0.0483
@<TRIPOS>BOND
     1    1    5 2  
     2   14    1 am 
     3    1   15 1  
     4    3    2 1  
     5    2    6 1  
     6    2   16 1  
     7    4    3 1  
     8    3   15 1  
     9   13    4 1  
    10    4   14 1  
    11    6   17 2  
    12    6   18 1  
    13    7    8 ar 
    14   12    7 ar 
    15    8    9 ar 
    16   10    9 ar 
    17   11   10 ar 
    18   12   11 ar 
    19   12   13 1  
    20   15   20 1  
    21   15   33 1  
    22   18   19 1  
    23   18   20 1  
    24   20   21 1  
    25   21   22 2  
    26   22   23 1  
    27   23   24 1  
    28   24   25 1  
    29   24   26 1  
    30   26   27 2  
    31   26   28 1  
    32   28   29 1  
    33   28   30 1  
    34   28   31 1  
    35   31   32 2  
    36   32   33 1  
    37   33   34 1  
    38   34   35 1  
    39   35   36 1  
    40   35   37 2  
    41    2   38 1  
    42    3   39 1  
    43    4   40 1  
    44    7   41 1  
    45    8   42 1  
    46    9   43 1  
    47   10   44 1  
    48   11   45 1  
    49   13   46 1  
    50   13   47 1  
    51   14   48 1  
    52   16   49 1  
    53   16   50 1  
    54   16   51 1  
    55   17   52 1  
    56   17   53 1  
    57   18   54 1  
    58   19   55 1  
    59   20   56 1  
    60   21   57 1  
    61   22   58 1  
    62   23   59 1  
    63   23   60 1  
    64   24   61 1  
    65   25   62 1  
    66   25   63 1  
    67   25   64 1  
    68   29   65 1  
    69   30   66 1  
    70   30   67 1  
    71   30   68 1  
    72   31   69 1  
    73   32   70 1  
    74   33   71 1  
    75   36   72 1  
    76   36   73 1  
    77   36   74 1  
@<TRIPOS>SUBSTRUCTURE
     1 CY9         1

