### 
### Created by X-TOOL on Mon Sep 10 21:13:00 2018
### 

@<TRIPOS>MOLECULE
3ekv_ligand
   70    72     1     0     0
SMALL
GAST_HUCK


@<TRIPOS>ATOM
      1 C1         23.4000   25.8700   10.7830 C.3       1 478         0.0782
      2 C2         24.4520   27.7830   11.7810 C.3       1 478         0.0034
      3 C3         21.4400   28.2740   12.7340 C.2       1 478         0.3203
      4 C4         23.1200   27.2820   11.2620 C.3       1 478         0.1134
      5 C5         19.5870   28.8070   14.2580 C.3       1 478         0.0807
      6 C6         19.9690   29.1940   15.6810 C.3       1 478         0.0967
      7 C7         18.2760   28.0360   14.1060 C.3       1 478         0.0064
      8 C8         18.0450   27.6520   12.6600 C.ar      1 478        -0.0408
      9 C9         18.4240   26.3950   12.1820 C.ar      1 478        -0.0603
     10 C10        17.4570   28.5580   11.7890 C.ar      1 478        -0.0603
     11 C11        18.2320   26.0650   10.8410 C.ar      1 478        -0.0686
     12 C12        17.2640   28.2280   10.4520 C.ar      1 478        -0.0686
     13 C13        17.6400   26.9730    9.9760 C.ar      1 478        -0.0687
     14 C14        19.0380   30.2540   16.2520 C.3       1 478         0.0578
     15 C15        20.1020   32.4520   16.4680 C.3       1 478         0.0319
     16 C16        21.6130   32.2010   16.4280 C.3       1 478        -0.0296
     17 C17        17.1060   33.0120   15.7110 C.ar      1 478         0.0949
     18 C18        16.0720   32.3350   16.3650 C.ar      1 478        -0.0471
     19 C19        15.1760   32.9770   17.2100 C.ar      1 478        -0.0429
     20 C20        15.2810   34.3520   17.3990 C.ar      1 478         0.0353
     21 C21        16.2840   35.0510   16.7400 C.ar      1 478        -0.0429
     22 C22        17.1860   34.3810   15.9070 C.ar      1 478        -0.0471
     23 C23        22.2520   32.2430   15.0420 C.3       1 478        -0.0612
     24 C24        22.3240   33.2540   17.2740 C.3       1 478        -0.0612
     25 C25        25.2870   26.5250   11.9820 C.3       1 478         0.0505
     26 N1         20.6520   27.9610   13.7600 N.am      1 478        -0.2550
     27 N2         19.3690   31.5270   15.5820 N.am      1 478        -0.2327
     28 N3         14.4000   34.9810   18.2110 N.pl3     1 478        -0.3369
     29 O1         22.2460   27.1400   12.3730 O.3       1 478        -0.2582
     30 O2         21.4990   29.3460   12.1360 O.2       1 478        -0.3775
     31 O3         19.9580   28.0360   16.5280 O.3       1 478        -0.3877
     32 O4         17.4210   31.1750   14.0660 O.2       1 478        -0.1518
     33 O5         18.7150   33.0920   13.7920 O.2       1 478        -0.1518
     34 O6         24.4480   25.4180   11.6380 O.3       1 478        -0.3768
     35 S1         18.1350   32.1960   14.7720 S.o2      1 478         0.0648
     36 H1         23.7254   25.8707    9.7322 H         1 478         0.0589
     37 H2         22.5072   25.2364   10.8900 H         1 478         0.0589
     38 H3         24.3209   28.3177   12.7333 H         1 478         0.0316
     39 H4         24.9275   28.4510   11.0478 H         1 478         0.0316
     40 H5         22.7009   27.9291   10.4774 H         1 478         0.0671
     41 H6         19.5189   29.7242   13.6546 H         1 478         0.0604
     42 H7         20.9890   29.6054   15.6621 H         1 478         0.0634
     43 H8         17.4436   28.6680   14.4490 H         1 478         0.0449
     44 H9         18.3205   27.1237   14.7190 H         1 478         0.0449
     45 H10        18.8694   25.6730   12.8568 H         1 478         0.0557
     46 H11        17.1458   29.5303   12.1535 H         1 478         0.0557
     47 H12        18.5467   25.0951   10.4732 H         1 478         0.0599
     48 H13        16.8191   28.9500    9.7769 H         1 478         0.0599
     49 H14        17.4711   26.7090    8.9383 H         1 478         0.0559
     50 H15        19.1924   30.3472   17.3371 H         1 478         0.0504
     51 H16        17.9906   29.9836   16.0525 H         1 478         0.0504
     52 H17        19.9040   33.4851   16.1462 H         1 478         0.0480
     53 H18        19.7454   32.3145   17.4995 H         1 478         0.0480
     54 H19        21.7956   31.2050   16.8576 H         1 478         0.0311
     55 H20        15.9656   31.2680   16.2064 H         1 478         0.0602
     56 H21        14.4022   32.4125   17.7176 H         1 478         0.0515
     57 H22        16.3684   36.1236   16.8722 H         1 478         0.0515
     58 H23        17.9637   34.9446   15.4044 H         1 478         0.0602
     59 H24        23.3315   32.0511   15.1300 H         1 478         0.0233
     60 H25        22.0913   33.2347   14.5940 H         1 478         0.0233
     61 H26        21.7937   31.4735   14.4034 H         1 478         0.0233
     62 H27        21.8954   33.2610   18.2870 H         1 478         0.0233
     63 H28        22.1926   34.2443   16.8135 H         1 478         0.0233
     64 H29        23.3963   33.0156   17.3312 H         1 478         0.0233
     65 H30        25.6081   26.4462   13.0311 H         1 478         0.0561
     66 H31        26.1716   26.5482   11.3286 H         1 478         0.0561
     67 H32        20.8052   27.0847   14.2168 H         1 478         0.1873
     68 H33        13.6645   34.4414   18.6892 H         1 478         0.1719
     69 H34        14.4650   35.9994   18.3509 H         1 478         0.1719
     70 H35        19.0752   27.6885   16.5759 H         1 478         0.2100
@<TRIPOS>BOND
     1    4    1 1  
     2    1   34 1  
     3    4    2 1  
     4    2   25 1  
     5   26    3 am 
     6    3   29 1  
     7    3   30 2  
     8   29    4 1  
     9    6    5 1  
    10    5    7 1  
    11    5   26 1  
    12   14    6 1  
    13    6   31 1  
    14    7    8 1  
    15    8    9 ar 
    16    8   10 ar 
    17    9   11 ar 
    18   10   12 ar 
    19   11   13 ar 
    20   12   13 ar 
    21   27   14 1  
    22   15   16 1  
    23   27   15 1  
    24   16   23 1  
    25   16   24 1  
    26   17   18 ar 
    27   17   22 ar 
    28   35   17 1  
    29   18   19 ar 
    30   19   20 ar 
    31   21   20 ar 
    32   20   28 1  
    33   22   21 ar 
    34   25   34 1  
    35   27   35 am 
    36   35   32 2  
    37   35   33 2  
    38    1   36 1  
    39    1   37 1  
    40    2   38 1  
    41    2   39 1  
    42    4   40 1  
    43    5   41 1  
    44    6   42 1  
    45    7   43 1  
    46    7   44 1  
    47    9   45 1  
    48   10   46 1  
    49   11   47 1  
    50   12   48 1  
    51   13   49 1  
    52   14   50 1  
    53   14   51 1  
    54   15   52 1  
    55   15   53 1  
    56   16   54 1  
    57   18   55 1  
    58   19   56 1  
    59   21   57 1  
    60   22   58 1  
    61   23   59 1  
    62   23   60 1  
    63   23   61 1  
    64   24   62 1  
    65   24   63 1  
    66   24   64 1  
    67   25   65 1  
    68   25   66 1  
    69   26   67 1  
    70   28   68 1  
    71   28   69 1  
    72   31   70 1  
@<TRIPOS>SUBSTRUCTURE
     1 478         1

