### 
### Created by X-TOOL on Mon Sep 10 21:13:00 2018
### 

@<TRIPOS>MOLECULE
3ekw_ligand
  104   106     1     0     0
SMALL
GAST_HUCK


@<TRIPOS>ATOM
      1 CAA        19.3190   -7.8330   12.8360 C.3       1 DR7         0.0663
      2 OBI        18.9930   -7.1120   14.0200 O.3       1 DR7        -0.2672
      3 CBK        18.4750   -5.7640   13.9370 C.2       1 DR7         0.3216
      4 OAI        18.2640   -5.2580   12.8500 O.2       1 DR7        -0.3774
      5 N          18.3000   -5.1930   15.1260 N.am      1 DR7        -0.2407
      6 CA         17.8120   -3.8430   15.3150 C.3       1 DR7         0.1375
      7 CB         16.3850   -3.9150   15.8650 C.3       1 DR7         0.0025
      8 CAE        15.8930   -2.4910   16.1470 C.3       1 DR7        -0.0558
      9 CG2        16.2240   -4.7700   17.1100 C.3       1 DR7        -0.0558
     10 CG1        15.5180   -4.5440   14.7740 C.3       1 DR7        -0.0558
     11 C          18.7900   -3.0730   16.1490 C.2       1 DR7         0.2026
     12 O          18.7930   -3.2150   17.3560 O.2       1 DR7        -0.3945
     13 NBG        19.6300   -2.2900   15.4630 N.am      1 DR7        -0.2773
     14 CBT        20.6820   -1.4960   16.1010 C.3       1 DR7         0.0823
     15 CBA        22.0030   -1.9820   15.5050 C.3       1 DR7         0.0066
     16 CBO        22.1500   -3.4810   15.6440 C.ar      1 DR7        -0.0408
     17 CAT        22.0360   -4.3080   14.5320 C.ar      1 DR7        -0.0603
     18 CAP        22.1670   -5.6920   14.6890 C.ar      1 DR7        -0.0686
     19 CAN        22.4000   -6.2290   15.9540 C.ar      1 DR7        -0.0687
     20 CAQ        22.5300   -5.3930   17.0510 C.ar      1 DR7        -0.0686
     21 CAU        22.4000   -4.0170   16.8930 C.ar      1 DR7        -0.0603
     22 CBS        20.4870    0.0090   15.8510 C.3       1 DR7         0.1201
     23 OAM        20.2750    0.2930   14.4800 O.3       1 DR7        -0.3840
     24 CBC        19.3260    0.6010   16.6560 C.3       1 DR7         0.0233
     25 NBW        19.6860    0.5800   18.0650 N.4       1 DR7         0.3820
     26 NBH        20.6860    1.4000   18.3750 N.am      1 DR7        -0.2493
     27 CBN        21.5100    1.1170   19.3700 C.2       1 DR7         0.2392
     28 OAL        21.4140    0.1240   20.0760 O.2       1 DR7        -0.3898
     29 CBV        22.5720    2.1520   19.6150 C.3       1 DR7         0.1419
     30 CBY        23.9900    1.5960   19.8000 C.3       1 DR7         0.0027
     31 CAH        24.9350    2.7980   19.8040 C.3       1 DR7        -0.0558
     32 CAF        24.2910    0.7100   18.5990 C.3       1 DR7        -0.0558
     33 CAG        24.1930    0.8520   21.1160 C.3       1 DR7        -0.0558
     34 NBF        22.1420    2.9100   20.7580 N.am      1 DR7        -0.2405
     35 CBL        22.0020    4.2300   20.7810 C.2       1 DR7         0.3216
     36 OAJ        22.2160    5.0000   19.8530 O.2       1 DR7        -0.3774
     37 OBJ        21.5540    4.7060   22.0670 O.3       1 DR7        -0.2672
     38 CAB        21.2360    6.0960   22.1590 C.3       1 DR7         0.0663
     39 CBB        18.5180    0.6790   18.9270 C.3       1 DR7         0.0280
     40 CBP        18.2600    2.0190   19.5800 C.ar      1 DR7         0.0049
     41 CAW        18.2730    1.9910   20.9090 C.ar      1 DR7        -0.0520
     42 CAY        18.0480    3.1120   21.5590 C.ar      1 DR7        -0.0565
     43 CAX        18.0210    3.1160   18.9970 C.ar      1 DR7        -0.0520
     44 CAZ        17.8060    4.1380   19.5900 C.ar      1 DR7        -0.0565
     45 CBQ        17.8200    4.2250   20.8540 C.ar      1 DR7        -0.0068
     46 CBR        17.5210    5.4710   21.6480 C.ar      1 DR7         0.0481
     47 CAV        18.0060    5.6400   22.9470 C.ar      1 DR7        -0.0287
     48 CAR        17.6850    6.7810   23.6650 C.ar      1 DR7        -0.0433
     49 CAO        16.8570    7.7300   23.0840 C.ar      1 DR7        -0.0355
     50 CAS        16.3730    7.5190   21.8000 C.ar      1 DR7         0.0086
     51 NBD        16.6990    6.4090   21.1180 N.ar      1 DR7        -0.2940
     52 H1         19.6942   -8.8311   13.1061 H         1 DR7         0.0575
     53 H2         20.0944   -7.2887   12.2770 H         1 DR7         0.0575
     54 H3         18.4202   -7.9362   12.2103 H         1 DR7         0.0575
     55 H4         18.5194   -5.7301   15.9405 H         1 DR7         0.1899
     56 H5         17.7609   -3.3477   14.3342 H         1 DR7         0.0804
     57 H6         14.8675   -2.5291   16.5431 H         1 DR7         0.0237
     58 H7         15.9044   -1.9077   15.2145 H         1 DR7         0.0237
     59 H8         16.5539   -2.0143   16.8858 H         1 DR7         0.0237
     60 H9         16.5784   -5.7904   16.9023 H         1 DR7         0.0237
     61 H10        15.1629   -4.8019   17.3982 H         1 DR7         0.0237
     62 H11        16.8141   -4.3369   17.9311 H         1 DR7         0.0237
     63 H12        15.6054   -3.9533   13.8502 H         1 DR7         0.0237
     64 H13        14.4682   -4.5578   15.1023 H         1 DR7         0.0237
     65 H14        15.8566   -5.5733   14.5845 H         1 DR7         0.0237
     66 H15        19.5352   -2.2448   14.4685 H         1 DR7         0.1857
     67 H16        20.6746   -1.6768   17.1860 H         1 DR7         0.0606
     68 H17        22.8353   -1.4902   16.0297 H         1 DR7         0.0449
     69 H18        22.0340   -1.7164   14.4380 H         1 DR7         0.0449
     70 H19        21.8473   -3.8842   13.5523 H         1 DR7         0.0557
     71 H20        22.0874   -6.3458   13.8281 H         1 DR7         0.0599
     72 H21        22.4796   -7.3028   16.0796 H         1 DR7         0.0559
     73 H22        22.7327   -5.8103   18.0307 H         1 DR7         0.0599
     74 H23        22.4951   -3.3631   17.7523 H         1 DR7         0.0557
     75 H24        21.4111    0.5153   16.1668 H         1 DR7         0.0672
     76 H25        20.1592    1.2290   14.3659 H         1 DR7         0.2101
     77 H26        18.4185    0.0005   16.4956 H         1 DR7         0.0849
     78 H27        19.1417    1.6369   16.3352 H         1 DR7         0.0849
     79 H28        20.0539   -0.3438   18.2304 H         1 DR7         0.2323
     80 H29        20.8165    2.2407   17.8494 H         1 DR7         0.2384
     81 H30        22.6020    2.8203   18.7418 H         1 DR7         0.0806
     82 H31        25.9703    2.4500   19.9347 H         1 DR7         0.0237
     83 H32        24.6676    3.4719   20.6312 H         1 DR7         0.0237
     84 H33        24.8471    3.3367   18.8490 H         1 DR7         0.0237
     85 H34        23.6091   -0.1531   18.6001 H         1 DR7         0.0237
     86 H35        25.3308    0.3558   18.6560 H         1 DR7         0.0237
     87 H36        24.1504    1.2871   17.6732 H         1 DR7         0.0237
     88 H37        23.9660    1.5247   21.9562 H         1 DR7         0.0237
     89 H38        25.2372    0.5139   21.1888 H         1 DR7         0.0237
     90 H39        23.5222   -0.0190   21.1521 H         1 DR7         0.0237
     91 H40        21.9332    2.4067   21.5965 H         1 DR7         0.1899
     92 H41        20.9098    6.3305   23.1830 H         1 DR7         0.0575
     93 H42        20.4271    6.3346   21.4528 H         1 DR7         0.0575
     94 H43        22.1263    6.6930   21.9121 H         1 DR7         0.0575
     95 H44        18.6332   -0.0647   19.7292 H         1 DR7         0.0995
     96 H45        17.6351    0.4299   18.3200 H         1 DR7         0.0995
     97 H46        18.4642    1.0675   21.4435 H         1 DR7         0.0567
     98 H47        18.0474    3.1331   22.6428 H         1 DR7         0.0625
     99 H48        18.0098    3.1344   17.9132 H         1 DR7         0.0567
    100 H49        17.5891    5.0309   19.0149 H         1 DR7         0.0625
    101 H50        18.6341    4.8779   23.3939 H         1 DR7         0.0706
    102 H51        18.0751    6.9296   24.6654 H         1 DR7         0.0732
    103 H52        16.5900    8.6289   23.6279 H         1 DR7         0.0697
    104 H53        15.7250    8.2582   21.3430 H         1 DR7         0.0823
@<TRIPOS>BOND
     1    1    2 1  
     2    2    3 1  
     3    3    4 2  
     4    3    5 am 
     5    5    6 1  
     6    6    7 1  
     7    6   11 1  
     8    7    8 1  
     9    7    9 1  
    10    7   10 1  
    11   11   12 2  
    12   11   13 am 
    13   13   14 1  
    14   14   15 1  
    15   14   22 1  
    16   15   16 1  
    17   16   17 ar 
    18   16   21 ar 
    19   17   18 ar 
    20   18   19 ar 
    21   19   20 ar 
    22   20   21 ar 
    23   22   23 1  
    24   22   24 1  
    25   24   25 1  
    26   25   26 1  
    27   25   39 1  
    28   26   27 am 
    29   27   28 2  
    30   27   29 1  
    31   29   30 1  
    32   29   34 1  
    33   30   31 1  
    34   30   32 1  
    35   30   33 1  
    36   34   35 am 
    37   35   36 2  
    38   35   37 1  
    39   37   38 1  
    40   39   40 1  
    41   40   41 ar 
    42   40   43 ar 
    43   41   42 ar 
    44   42   45 ar 
    45   43   44 ar 
    46   44   45 ar 
    47   45   46 1  
    48   46   47 ar 
    49   46   51 ar 
    50   47   48 ar 
    51   48   49 ar 
    52   49   50 ar 
    53   50   51 ar 
    54    1   52 1  
    55    1   53 1  
    56    1   54 1  
    57    5   55 1  
    58    6   56 1  
    59    8   57 1  
    60    8   58 1  
    61    8   59 1  
    62    9   60 1  
    63    9   61 1  
    64    9   62 1  
    65   10   63 1  
    66   10   64 1  
    67   10   65 1  
    68   13   66 1  
    69   14   67 1  
    70   15   68 1  
    71   15   69 1  
    72   17   70 1  
    73   18   71 1  
    74   19   72 1  
    75   20   73 1  
    76   21   74 1  
    77   22   75 1  
    78   23   76 1  
    79   24   77 1  
    80   24   78 1  
    81   25   79 1  
    82   26   80 1  
    83   29   81 1  
    84   31   82 1  
    85   31   83 1  
    86   31   84 1  
    87   32   85 1  
    88   32   86 1  
    89   32   87 1  
    90   33   88 1  
    91   33   89 1  
    92   33   90 1  
    93   34   91 1  
    94   38   92 1  
    95   38   93 1  
    96   38   94 1  
    97   39   95 1  
    98   39   96 1  
    99   41   97 1  
   100   42   98 1  
   101   43   99 1  
   102   44  100 1  
   103   47  101 1  
   104   48  102 1  
   105   49  103 1  
   106   50  104 1  
@<TRIPOS>SUBSTRUCTURE
     1 DR7         1

