### 
### Created by X-TOOL on Mon Sep 10 21:13:00 2018
### 

@<TRIPOS>MOLECULE
3ekx_ligand
   86    89     1     0     0
SMALL
GAST_HUCK


@<TRIPOS>ATOM
      1 C1         17.6520   27.4490   12.7990 C.3       1 1UN         0.0024
      2 C2         18.3740   26.8110   11.6210 C.3       1 1UN        -0.0261
      3 C3         17.5420   26.7500   10.3450 C.3       1 1UN        -0.0494
      4 C4         16.8880   28.0990   10.0830 C.3       1 1UN        -0.0528
      5 C5         16.1660   28.5860   11.3310 C.3       1 1UN        -0.0526
      6 C6         17.1240   28.8360   12.4940 C.3       1 1UN        -0.0451
      7 N7         19.7000   28.3220   13.7270 N.4       1 1UN         0.2562
      8 C8         20.4650   27.6440   12.6890 C.3       1 1UN         0.0688
      9 C9         19.6630   27.5800   11.3870 C.3       1 1UN         0.0113
     10 C10        18.5190   27.5190   14.0440 C.3       1 1UN        -0.0266
     11 C11        21.7100   28.3770   12.3210 C.2       1 1UN         0.2251
     12 N12        22.7420   27.5550   12.1370 N.am      1 1UN        -0.2771
     13 C13        24.0630   27.9180   11.6750 C.3       1 1UN         0.0448
     14 C14        24.6920   28.7540   12.7890 C.3       1 1UN        -0.0396
     15 C15        23.9610   28.6780   10.3500 C.3       1 1UN        -0.0396
     16 C16        24.8630   26.6300   11.4480 C.3       1 1UN        -0.0396
     17 O17        21.6810   29.5930   12.1850 O.2       1 1UN        -0.3909
     18 C18        20.4270   28.3490   14.9830 C.3       1 1UN        -0.0009
     19 C19        19.9360   29.5350   15.7930 C.3       1 1UN         0.1184
     20 C20        20.5990   30.8460   15.3910 C.3       1 1UN         0.0834
     21 O21        20.2180   29.1920   17.1330 O.3       1 1UN        -0.3842
     22 N22        19.8830   31.9160   16.0470 N.am      1 1UN        -0.2774
     23 C23        22.0740   31.0060   15.7490 C.3       1 1UN         0.0326
     24 C24        18.8960   32.5950   15.4700 C.2       1 1UN         0.2191
     25 O25        18.5620   32.4850   14.3050 O.2       1 1UN        -0.3778
     26 C29        18.1700   33.5500   16.3600 C.2       1 1UN         0.0672
     27 C30        18.9000   34.4270   17.1640 C.2       1 1UN        -0.0313
     28 C31        18.2810   35.3300   18.0260 C.2       1 1UN        -0.0493
     29 C32        16.8960   35.3930   18.1000 C.2       1 1UN        -0.0109
     30 C33        16.1010   34.5470   17.3310 C.2       1 1UN         0.1239
     31 C34        16.6960   33.5600   16.4060 C.3       1 1UN         0.0769
     32 O38        14.7860   34.5830   17.4030 O.2       1 1UN        -0.4025
     33 C39        15.7930   32.6670   15.5910 C.3       1 1UN        -0.0332
     34 S74        22.7670   32.3280   14.8010 S.3       1 1UN        -0.0993
     35 C77        22.6520   33.7870   15.6490 C.ar      1 1UN         0.0154
     36 C78        22.4720   34.9430   14.9010 C.ar      1 1UN        -0.0498
     37 C79        22.3600   36.1670   15.5410 C.ar      1 1UN        -0.0678
     38 C80        22.4490   36.2380   16.9250 C.ar      1 1UN        -0.0687
     39 C81        22.6340   35.0800   17.6700 C.ar      1 1UN        -0.0678
     40 C82        22.7350   33.8470   17.0370 C.ar      1 1UN        -0.0498
     41 H1         16.7882   26.8078   13.0286 H         1 1UN         0.0355
     42 H2         18.6278   25.7773   11.8984 H         1 1UN         0.0309
     43 H3         16.7617   25.9826   10.4556 H         1 1UN         0.0268
     44 H4         18.1937   26.4908    9.4976 H         1 1UN         0.0268
     45 H5         16.1641   27.9980    9.2609 H         1 1UN         0.0265
     46 H6         17.6615   28.8292    9.8029 H         1 1UN         0.0265
     47 H7         15.4319   27.8252   11.6347 H         1 1UN         0.0265
     48 H8         15.6443   29.5250   11.0942 H         1 1UN         0.0265
     49 H9         17.9383   29.5135   12.1977 H         1 1UN         0.0270
     50 H10        16.5934   29.2573   13.3606 H         1 1UN         0.0270
     51 H11        19.4521   29.2516   13.4263 H         1 1UN         0.2057
     52 H12        20.7141   26.6307   13.0370 H         1 1UN         0.1100
     53 H13        19.4251   28.6007   11.0529 H         1 1UN         0.0348
     54 H14        20.2583   27.0708   10.6148 H         1 1UN         0.0348
     55 H15        18.8257   26.5058   14.3430 H         1 1UN         0.0818
     56 H16        17.9571   27.9892   14.8645 H         1 1UN         0.0818
     57 H17        22.5872   26.5879   12.3391 H         1 1UN         0.1859
     58 H18        25.7054   29.0601   12.4901 H         1 1UN         0.0254
     59 H19        24.7465   28.1556   13.7103 H         1 1UN         0.0254
     60 H20        24.0769   29.6481   12.9684 H         1 1UN         0.0254
     61 H21        24.9693   28.9506   10.0051 H         1 1UN         0.0254
     62 H22        23.3642   29.5905   10.4956 H         1 1UN         0.0254
     63 H23        23.4763   28.0391    9.5972 H         1 1UN         0.0254
     64 H24        25.8737   26.8835   11.0954 H         1 1UN         0.0254
     65 H25        24.3557   26.0115   10.6930 H         1 1UN         0.0254
     66 H26        24.9338   26.0710   12.3927 H         1 1UN         0.0254
     67 H27        21.5044   28.4531   14.7869 H         1 1UN         0.0841
     68 H28        20.2437   27.4177   15.5389 H         1 1UN         0.0841
     69 H29        18.8499   29.6467   15.6591 H         1 1UN         0.0670
     70 H30        20.5035   30.9500   14.3001 H         1 1UN         0.0593
     71 H31        19.7888   28.3716   17.3458 H         1 1UN         0.2101
     72 H32        20.1428   32.1580   16.9818 H         1 1UN         0.1848
     73 H33        22.6100   30.0723   15.5235 H         1 1UN         0.0425
     74 H34        22.1691   31.2338   16.8209 H         1 1UN         0.0425
     75 H35        19.9877   34.4048   17.1161 H         1 1UN         0.0614
     76 H36        18.8869   35.9900   18.6451 H         1 1UN         0.0734
     77 H37        16.4255   36.1131   18.7678 H         1 1UN         0.0609
     78 H38        16.7144   32.7947   17.1959 H         1 1UN         0.0750
     79 H39        16.4044   32.0014   14.9640 H         1 1UN         0.0289
     80 H40        15.1482   33.2852   14.9491 H         1 1UN         0.0289
     81 H41        15.1682   32.0634   16.2657 H         1 1UN         0.0289
     82 H42        22.4193   34.8881   13.8197 H         1 1UN         0.0565
     83 H43        22.2029   37.0693   14.9611 H         1 1UN         0.0600
     84 H44        22.3741   37.1973   17.4242 H         1 1UN         0.0559
     85 H45        22.6999   35.1386   18.7504 H         1 1UN         0.0600
     86 H46        22.8768   32.9426   17.6175 H         1 1UN         0.0565
@<TRIPOS>BOND
     1    1    2 1  
     2    1    6 1  
     3   10    1 1  
     4    2    3 1  
     5    2    9 1  
     6    3    4 1  
     7    5    4 1  
     8    6    5 1  
     9    7    8 1  
    10    7   10 1  
    11    7   18 1  
    12    8    9 1  
    13    8   11 1  
    14   11   12 am 
    15   11   17 2  
    16   12   13 1  
    17   13   14 1  
    18   13   15 1  
    19   13   16 1  
    20   18   19 1  
    21   19   20 1  
    22   19   21 1  
    23   20   22 1  
    24   20   23 1  
    25   22   24 am 
    26   23   34 1  
    27   24   25 2  
    28   24   26 1  
    29   26   27 2  
    30   26   31 1  
    31   27   28 1  
    32   28   29 2  
    33   29   30 1  
    34   30   31 1  
    35   30   32 2  
    36   31   33 1  
    37   34   35 1  
    38   35   36 ar 
    39   35   40 ar 
    40   36   37 ar 
    41   37   38 ar 
    42   38   39 ar 
    43   39   40 ar 
    44    1   41 1  
    45    2   42 1  
    46    3   43 1  
    47    3   44 1  
    48    4   45 1  
    49    4   46 1  
    50    5   47 1  
    51    5   48 1  
    52    6   49 1  
    53    6   50 1  
    54    7   51 1  
    55    8   52 1  
    56    9   53 1  
    57    9   54 1  
    58   10   55 1  
    59   10   56 1  
    60   12   57 1  
    61   14   58 1  
    62   14   59 1  
    63   14   60 1  
    64   15   61 1  
    65   15   62 1  
    66   15   63 1  
    67   16   64 1  
    68   16   65 1  
    69   16   66 1  
    70   18   67 1  
    71   18   68 1  
    72   19   69 1  
    73   20   70 1  
    74   21   71 1  
    75   22   72 1  
    76   23   73 1  
    77   23   74 1  
    78   27   75 1  
    79   28   76 1  
    80   29   77 1  
    81   31   78 1  
    82   33   79 1  
    83   33   80 1  
    84   33   81 1  
    85   36   82 1  
    86   37   83 1  
    87   38   84 1  
    88   39   85 1  
    89   40   86 1  
@<TRIPOS>SUBSTRUCTURE
     1 1UN         1

