### 
### Created by X-TOOL on Mon Sep 10 21:13:00 2018
### 

@<TRIPOS>MOLECULE
3eky_ligand
  104   106     1     0     0
SMALL
GAST_HUCK


@<TRIPOS>ATOM
      1 CAA        20.7340   23.4750    9.2320 C.3       1 DR7         0.0663
      2 OBI        21.0810   24.8530    9.3900 O.3       1 DR7        -0.2672
      3 CBK        21.5960   25.3580   10.6480 C.2       1 DR7         0.3216
      4 OAI        21.8310   24.5800   11.5650 O.2       1 DR7        -0.3774
      5 N          21.8050   26.6660   10.7200 N.am      1 DR7        -0.2407
      6 CA         22.3140   27.3330   11.9070 C.3       1 DR7         0.1375
      7 CB         23.7220   27.8930   11.6700 C.3       1 DR7         0.0025
      8 CAE        24.7030   26.7280   11.5370 C.3       1 DR7        -0.0558
      9 CG2        23.8190   28.7630   10.4170 C.3       1 DR7        -0.0558
     10 CG1        24.1400   28.7380   12.8720 C.3       1 DR7        -0.0558
     11 C          21.2880   28.3430   12.3560 C.2       1 DR7         0.2026
     12 O          21.1160   29.3870   11.7420 O.2       1 DR7        -0.3945
     13 NBG        20.5650   28.0520   13.4440 N.am      1 DR7        -0.2773
     14 CBT        19.5270   28.9070   14.0080 C.3       1 DR7         0.0823
     15 CBA        18.2010   28.1830   13.7830 C.3       1 DR7         0.0066
     16 CBO        17.9890   27.7590   12.3410 C.ar      1 DR7        -0.0408
     17 CAT        17.4460   28.6400   11.4150 C.ar      1 DR7        -0.0603
     18 CAP        17.2490   28.2370   10.0990 C.ar      1 DR7        -0.0686
     19 CAN        17.5900   26.9490    9.6940 C.ar      1 DR7        -0.0687
     20 CAQ        18.1330   26.0610   10.6160 C.ar      1 DR7        -0.0686
     21 CAU        18.3210   26.4710   11.9370 C.ar      1 DR7        -0.0603
     22 CBS        19.7420   29.1900   15.5070 C.3       1 DR7         0.1201
     23 OAM        19.9670   28.0220   16.2910 O.3       1 DR7        -0.3840
     24 CBC        20.9700   29.9990   15.8320 C.3       1 DR7         0.0233
     25 NBW        20.8690   31.4120   15.4740 N.4       1 DR7         0.3820
     26 NBH        19.8860   32.0270   16.1480 N.am      1 DR7        -0.2493
     27 CBN        18.9560   32.7770   15.5440 C.2       1 DR7         0.2392
     28 OAL        18.9320   32.9270   14.3330 O.2       1 DR7        -0.3898
     29 CBV        17.9460   33.4790   16.4100 C.3       1 DR7         0.1419
     30 CBY        16.5010   33.4390   15.9010 C.3       1 DR7         0.0027
     31 CAH        16.2520   34.3140   14.6630 C.3       1 DR7        -0.0558
     32 CAF        16.1180   31.9950   15.5890 C.3       1 DR7        -0.0558
     33 CAG        15.6170   33.9250   17.0420 C.3       1 DR7        -0.0558
     34 NBF        18.3790   34.8660   16.5280 N.am      1 DR7        -0.2405
     35 CBL        18.5720   35.4530   17.6960 C.2       1 DR7         0.3216
     36 OAJ        18.4140   34.8850   18.7830 O.2       1 DR7        -0.3774
     37 OBJ        19.0030   36.8360   17.6570 O.3       1 DR7        -0.2672
     38 CAB        19.1700   37.5880   18.8500 C.3       1 DR7         0.0663
     39 CBB        22.1780   32.0110   15.8450 C.3       1 DR7         0.0280
     40 CBP        22.1500   33.5280   15.8970 C.ar      1 DR7         0.0049
     41 CAW        22.2870   34.2970   14.7380 C.ar      1 DR7        -0.0520
     42 CAY        22.2550   35.6910   14.8130 C.ar      1 DR7        -0.0565
     43 CAX        21.9850   34.1750   17.1190 C.ar      1 DR7        -0.0520
     44 CAZ        21.9500   35.5680   17.1900 C.ar      1 DR7        -0.0565
     45 CBQ        22.0800   36.3400   16.0380 C.ar      1 DR7        -0.0068
     46 CBR        22.0340   37.8410   16.1250 C.ar      1 DR7         0.0481
     47 CAV        21.3440   38.5810   15.1590 C.ar      1 DR7        -0.0287
     48 CAR        21.3040   39.9710   15.2400 C.ar      1 DR7        -0.0433
     49 CAO        21.9460   40.6140   16.2950 C.ar      1 DR7        -0.0355
     50 CAS        22.6140   39.8450   17.2470 C.ar      1 DR7         0.0086
     51 NBD        22.6390   38.5000   17.1460 N.ar      1 DR7        -0.2940
     52 H1         20.3668   23.3043    8.2092 H         1 DR7         0.0575
     53 H2         19.9468   23.2101    9.9531 H         1 DR7         0.0575
     54 H3         21.6214   22.8504    9.4119 H         1 DR7         0.0575
     55 H4         21.6015   27.2229    9.9147 H         1 DR7         0.1899
     56 H5         22.4040   26.5829   12.7065 H         1 DR7         0.0804
     57 H6         25.7166   27.1199   11.3666 H         1 DR7         0.0237
     58 H7         24.4072   26.0947   10.6877 H         1 DR7         0.0237
     59 H8         24.6911   26.1313   12.4610 H         1 DR7         0.0237
     60 H9         23.1171   29.6058   10.5006 H         1 DR7         0.0237
     61 H10        23.5653   28.1610    9.5320 H         1 DR7         0.0237
     62 H11        24.8444   29.1484   10.3167 H         1 DR7         0.0237
     63 H12        24.0776   28.1304   13.7868 H         1 DR7         0.0237
     64 H13        23.4694   29.6053   12.9615 H         1 DR7         0.0237
     65 H14        25.1740   29.0867   12.7333 H         1 DR7         0.0237
     66 H15        20.7503   27.1838   13.9044 H         1 DR7         0.1857
     67 H16        19.5187   29.8673   13.4716 H         1 DR7         0.0606
     68 H17        17.3812   28.8564   14.0736 H         1 DR7         0.0449
     69 H18        18.1806   27.2851   14.4181 H         1 DR7         0.0449
     70 H19        17.1750   29.6446   11.7190 H         1 DR7         0.0557
     71 H20        16.8263   28.9314    9.3820 H         1 DR7         0.0599
     72 H21        17.4332   26.6407    8.6667 H         1 DR7         0.0559
     73 H22        18.4083   25.0578   10.3112 H         1 DR7         0.0599
     74 H23        18.7321   25.7745   12.6587 H         1 DR7         0.0557
     75 H24        18.8465   29.7160   15.8695 H         1 DR7         0.0672
     76 H25        20.0907   28.2707   17.1995 H         1 DR7         0.2101
     77 H26        21.8224   29.5656   15.2883 H         1 DR7         0.0849
     78 H27        21.1521   29.9297   16.9146 H         1 DR7         0.0849
     79 H28        20.7043   31.5074   14.4841 H         1 DR7         0.2323
     80 H29        19.8462   31.9211   17.1416 H         1 DR7         0.2384
     81 H30        17.9619   33.0073   17.4036 H         1 DR7         0.0806
     82 H31        15.1974   34.2311   14.3616 H         1 DR7         0.0237
     83 H32        16.8967   33.9750   13.8387 H         1 DR7         0.0237
     84 H33        16.4836   35.3624   14.9023 H         1 DR7         0.0237
     85 H34        16.2963   31.3687   16.4755 H         1 DR7         0.0237
     86 H35        16.7281   31.6267   14.7511 H         1 DR7         0.0237
     87 H36        15.0535   31.9488   15.3156 H         1 DR7         0.0237
     88 H37        15.8738   34.9662   17.2868 H         1 DR7         0.0237
     89 H38        15.7773   33.2903   17.9260 H         1 DR7         0.0237
     90 H39        14.5615   33.8696   16.7373 H         1 DR7         0.0237
     91 H40        18.5360   35.3934   15.6930 H         1 DR7         0.1899
     92 H41        19.4998   38.6067   18.5981 H         1 DR7         0.0575
     93 H42        19.9264   37.1043   19.4855 H         1 DR7         0.0575
     94 H43        18.2131   37.6356   19.3905 H         1 DR7         0.0575
     95 H44        22.9273   31.7008   15.1019 H         1 DR7         0.0995
     96 H45        22.4667   31.6328   16.8368 H         1 DR7         0.0995
     97 H46        22.4184   33.8101   13.7785 H         1 DR7         0.0567
     98 H47        22.3675   36.2777   13.9085 H         1 DR7         0.0625
     99 H48        21.8826   33.5896   18.0256 H         1 DR7         0.0567
    100 H49        21.8205   36.0538   18.1504 H         1 DR7         0.0625
    101 H50        20.8395   38.0717   14.3459 H         1 DR7         0.0706
    102 H51        20.7774   40.5473   14.4879 H         1 DR7         0.0732
    103 H52        21.9268   41.6949   16.3749 H         1 DR7         0.0697
    104 H53        23.1172   40.3316   18.0747 H         1 DR7         0.0823
@<TRIPOS>BOND
     1    1    2 1  
     2    2    3 1  
     3    3    4 2  
     4    3    5 am 
     5    5    6 1  
     6    6    7 1  
     7    6   11 1  
     8    7    8 1  
     9    7    9 1  
    10    7   10 1  
    11   11   12 2  
    12   11   13 am 
    13   13   14 1  
    14   14   15 1  
    15   14   22 1  
    16   15   16 1  
    17   16   17 ar 
    18   16   21 ar 
    19   17   18 ar 
    20   18   19 ar 
    21   19   20 ar 
    22   20   21 ar 
    23   22   23 1  
    24   22   24 1  
    25   24   25 1  
    26   25   26 1  
    27   25   39 1  
    28   26   27 am 
    29   27   28 2  
    30   27   29 1  
    31   29   30 1  
    32   29   34 1  
    33   30   31 1  
    34   30   32 1  
    35   30   33 1  
    36   34   35 am 
    37   35   36 2  
    38   35   37 1  
    39   37   38 1  
    40   39   40 1  
    41   40   41 ar 
    42   40   43 ar 
    43   41   42 ar 
    44   42   45 ar 
    45   43   44 ar 
    46   44   45 ar 
    47   45   46 1  
    48   46   47 ar 
    49   46   51 ar 
    50   47   48 ar 
    51   48   49 ar 
    52   49   50 ar 
    53   50   51 ar 
    54    1   52 1  
    55    1   53 1  
    56    1   54 1  
    57    5   55 1  
    58    6   56 1  
    59    8   57 1  
    60    8   58 1  
    61    8   59 1  
    62    9   60 1  
    63    9   61 1  
    64    9   62 1  
    65   10   63 1  
    66   10   64 1  
    67   10   65 1  
    68   13   66 1  
    69   14   67 1  
    70   15   68 1  
    71   15   69 1  
    72   17   70 1  
    73   18   71 1  
    74   19   72 1  
    75   20   73 1  
    76   21   74 1  
    77   22   75 1  
    78   23   76 1  
    79   24   77 1  
    80   24   78 1  
    81   25   79 1  
    82   26   80 1  
    83   29   81 1  
    84   31   82 1  
    85   31   83 1  
    86   31   84 1  
    87   32   85 1  
    88   32   86 1  
    89   32   87 1  
    90   33   88 1  
    91   33   89 1  
    92   33   90 1  
    93   34   91 1  
    94   38   92 1  
    95   38   93 1  
    96   38   94 1  
    97   39   95 1  
    98   39   96 1  
    99   41   97 1  
   100   42   98 1  
   101   43   99 1  
   102   44  100 1  
   103   47  101 1  
   104   48  102 1  
   105   49  103 1  
   106   50  104 1  
@<TRIPOS>SUBSTRUCTURE
     1 DR7         1

