### 
### Created by X-TOOL on Mon Sep 10 21:13:00 2018
### 

@<TRIPOS>MOLECULE
3el4_ligand
  100   104     1     0     0
SMALL
GAST_HUCK


@<TRIPOS>ATOM
      1 C           6.2260   -6.3450   18.0590 C.2       1 ROC         0.2293
      2 O           6.5210   -5.7370   19.0980 O.2       1 ROC        -0.3762
      3 N1          5.2490   -8.1340   16.7940 N.ar      1 ROC        -0.2737
      4 C2          5.4940   -7.5540   18.0310 C.ar      1 ROC         0.1219
      5 C3          4.9890   -8.1900   19.2030 C.ar      1 ROC        -0.0136
      6 C4          4.2530   -9.4010   19.0710 C.ar      1 ROC        -0.0314
      7 C5          3.2970  -11.1710   17.6250 C.ar      1 ROC        -0.0444
      8 C6          3.0990  -11.6920   16.3080 C.ar      1 ROC        -0.0546
      9 C7          3.6240  -11.0180   15.1610 C.ar      1 ROC        -0.0545
     10 C8          4.3550   -9.8100   15.3140 C.ar      1 ROC        -0.0370
     11 C4A         4.0280   -9.9610   17.7850 C.ar      1 ROC         0.0097
     12 C8A         4.5540   -9.2900   16.6180 C.ar      1 ROC         0.0527
     13 N           6.5870   -5.8140   16.8730 N.am      1 ROC        -0.2600
     14 CA          7.3170   -4.5540   16.7880 C.3       1 ROC         0.1473
     15 C1          6.5510   -3.6020   15.8840 C.2       1 ROC         0.2045
     16 O1          6.6440   -3.6470   14.6570 O.2       1 ROC        -0.3943
     17 CB          8.7290   -4.7980   16.2590 C.3       1 ROC         0.0773
     18 CG          9.5930   -5.5240   17.2680 C.2       1 ROC         0.1780
     19 OD1         9.9360   -4.9700   18.3110 O.2       1 ROC        -0.3970
     20 ND2         9.9270   -6.7750   16.9790 N.am      1 ROC        -0.3007
     21 C9          5.5280   -0.3560   16.0890 C.3       1 ROC         0.1194
     22 O2          5.2510   -0.0220   17.4480 O.3       1 ROC        -0.3840
     23 CA1         4.9420   -1.7690   15.7900 C.3       1 ROC         0.0823
     24 N2          5.7570   -2.7290   16.5180 N.am      1 ROC        -0.2772
     25 CB1         3.4740   -1.9500   16.2700 C.3       1 ROC         0.0066
     26 CG1         2.9750   -3.3770   16.1560 C.ar      1 ROC        -0.0408
     27 CD1         2.6020   -3.8890   14.9150 C.ar      1 ROC        -0.0603
     28 CD2         2.9360   -4.1720   17.3010 C.ar      1 ROC        -0.0603
     29 CE1         2.1910   -5.2140   14.8250 C.ar      1 ROC        -0.0686
     30 CE2         2.5240   -5.4880   17.1920 C.ar      1 ROC        -0.0686
     31 CZ          2.1540   -6.0080   15.9570 C.ar      1 ROC        -0.0687
     32 N11         5.8580    0.7960   13.8900 N.4       1 ROC         0.2562
     33 CM          5.1150    0.8010   15.1620 C.3       1 ROC        -0.0008
     34 C21         5.0650    1.3600   12.7430 C.3       1 ROC         0.0688
     35 CC          3.7830    0.6030   12.4200 C.2       1 ROC         0.2251
     36 O3          3.8100   -0.6350   12.4100 O.2       1 ROC        -0.3909
     37 C31         5.9010    1.3680   11.4480 C.3       1 ROC         0.0113
     38 C3A         7.2060    2.1460   11.6760 C.3       1 ROC        -0.0261
     39 C41         8.0850    2.1600   10.4280 C.3       1 ROC        -0.0494
     40 C51         8.7710    0.7960   10.1730 C.3       1 ROC        -0.0528
     41 C61         9.5990    0.3010   11.3770 C.3       1 ROC        -0.0526
     42 C71         8.6760    0.2070   12.6040 C.3       1 ROC        -0.0451
     43 C7A         8.0360    1.5770   12.9090 C.3       1 ROC         0.0024
     44 C81         7.1100    1.5340   14.1370 C.3       1 ROC        -0.0266
     45 N3          2.7180    1.4080   12.2200 N.am      1 ROC        -0.2771
     46 CD          1.3630    1.0010   11.8580 C.3       1 ROC         0.0448
     47 C11         0.5760    2.2860   11.7650 C.3       1 ROC        -0.0396
     48 C22         1.3030    0.3510   10.4960 C.3       1 ROC        -0.0396
     49 C32         0.7130    0.1090   12.9320 C.3       1 ROC        -0.0396
     50 H1          5.1633   -7.7570   20.1814 H         1 ROC         0.0729
     51 H2          3.8636   -9.8967   19.9529 H         1 ROC         0.0774
     52 H3          2.8962  -11.6901   18.4882 H         1 ROC         0.0657
     53 H4          2.5420  -12.6127   16.1769 H         1 ROC         0.0652
     54 H5          3.4634  -11.4306   14.1715 H         1 ROC         0.0657
     55 H6          4.7542   -9.2941   14.4482 H         1 ROC         0.0653
     56 H7          6.3481   -6.2964   16.0303 H         1 ROC         0.1882
     57 H8          7.3892   -4.1114   17.7924 H         1 ROC         0.0826
     58 H9          9.1936   -3.8287   16.0254 H         1 ROC         0.0551
     59 H10         8.6658   -5.4045   15.3435 H         1 ROC         0.0551
     60 H11        10.4965   -7.2994   17.6120 H         1 ROC         0.1814
     61 H12         9.6093   -7.1935   16.1282 H         1 ROC         0.1814
     62 H13         6.6190   -0.4495   15.9848 H         1 ROC         0.0672
     63 H14         5.6048    0.8386   17.6399 H         1 ROC         0.2101
     64 H15         4.9941   -1.9611   14.7082 H         1 ROC         0.0606
     65 H16         5.7237   -2.7375   17.5174 H         1 ROC         0.1857
     66 H17         2.8255   -1.3041   15.6599 H         1 ROC         0.0449
     67 H18         3.4113   -1.6419   17.3241 H         1 ROC         0.0449
     68 H19         2.6319   -3.2622   14.0311 H         1 ROC         0.0557
     69 H20         3.2245   -3.7644   18.2631 H         1 ROC         0.0557
     70 H21         1.8989   -5.6258   13.8657 H         1 ROC         0.0599
     71 H22         2.4895   -6.1170   18.0741 H         1 ROC         0.0599
     72 H23         1.8348   -7.0411   15.8807 H         1 ROC         0.0559
     73 H24         6.0874   -0.1572   13.6560 H         1 ROC         0.2057
     74 H25         5.3065    1.7530   15.6788 H         1 ROC         0.0841
     75 H26         4.0406    0.7120   14.9435 H         1 ROC         0.0841
     76 H27         4.7982    2.3945   13.0049 H         1 ROC         0.1100
     77 H28         5.3246    1.8493   10.6442 H         1 ROC         0.0348
     78 H29         6.1383    0.3332   11.1601 H         1 ROC         0.0348
     79 H30         6.9319    3.1860   11.9068 H         1 ROC         0.0309
     80 H31         8.8623    2.9284   10.5522 H         1 ROC         0.0268
     81 H32         7.4593    2.4086    9.5581 H         1 ROC         0.0268
     82 H33         9.4401    0.8972    9.3058 H         1 ROC         0.0265
     83 H34         7.9942    0.0493    9.9516 H         1 ROC         0.0265
     84 H35        10.4154    1.0093   11.5813 H         1 ROC         0.0265
     85 H36        10.0206   -0.6902   11.1541 H         1 ROC         0.0265
     86 H37         9.2641   -0.1189   13.4745 H         1 ROC         0.0270
     87 H38         7.8812   -0.5264   12.4030 H         1 ROC         0.0270
     88 H39         8.8547    2.2797   13.1234 H         1 ROC         0.0355
     89 H40         7.6470    1.0461   14.9638 H         1 ROC         0.0818
     90 H41         6.8579    2.5661   14.4219 H         1 ROC         0.0818
     91 H42         2.8738    2.3894   12.3318 H         1 ROC         0.1859
     92 H43        -0.4655    2.0592   11.4934 H         1 ROC         0.0254
     93 H44         1.0223    2.9346   10.9968 H         1 ROC         0.0254
     94 H45         0.5977    2.8005   12.7370 H         1 ROC         0.0254
     95 H46         0.2649    0.0642   10.2720 H         1 ROC         0.0254
     96 H47         1.9406   -0.5453   10.4890 H         1 ROC         0.0254
     97 H48         1.6597    1.0607    9.7350 H         1 ROC         0.0254
     98 H49        -0.3022   -0.1689   12.6125 H         1 ROC         0.0254
     99 H50         0.6602    0.6593   13.8830 H         1 ROC         0.0254
    100 H51         1.3166   -0.8005   13.0677 H         1 ROC         0.0254
@<TRIPOS>BOND
     1    1    2 2  
     2    1    4 1  
     3   13    1 am 
     4    4    3 ar 
     5    3   12 ar 
     6    4    5 ar 
     7    5    6 ar 
     8    6   11 ar 
     9    7    8 ar 
    10   11    7 ar 
    11    9    8 ar 
    12   10    9 ar 
    13   12   10 ar 
    14   12   11 ar 
    15   14   13 1  
    16   15   14 1  
    17   14   17 1  
    18   15   16 2  
    19   24   15 am 
    20   17   18 1  
    21   18   19 2  
    22   18   20 am 
    23   21   22 1  
    24   23   21 1  
    25   21   33 1  
    26   23   24 1  
    27   23   25 1  
    28   25   26 1  
    29   26   27 ar 
    30   26   28 ar 
    31   27   29 ar 
    32   28   30 ar 
    33   29   31 ar 
    34   30   31 ar 
    35   33   32 1  
    36   32   34 1  
    37   32   44 1  
    38   34   35 1  
    39   34   37 1  
    40   35   36 2  
    41   35   45 am 
    42   37   38 1  
    43   38   39 1  
    44   38   43 1  
    45   39   40 1  
    46   40   41 1  
    47   41   42 1  
    48   42   43 1  
    49   43   44 1  
    50   45   46 1  
    51   46   47 1  
    52   46   48 1  
    53   46   49 1  
    54    5   50 1  
    55    6   51 1  
    56    7   52 1  
    57    8   53 1  
    58    9   54 1  
    59   10   55 1  
    60   13   56 1  
    61   14   57 1  
    62   17   58 1  
    63   17   59 1  
    64   20   60 1  
    65   20   61 1  
    66   21   62 1  
    67   22   63 1  
    68   23   64 1  
    69   24   65 1  
    70   25   66 1  
    71   25   67 1  
    72   27   68 1  
    73   28   69 1  
    74   29   70 1  
    75   30   71 1  
    76   31   72 1  
    77   32   73 1  
    78   33   74 1  
    79   33   75 1  
    80   34   76 1  
    81   37   77 1  
    82   37   78 1  
    83   38   79 1  
    84   39   80 1  
    85   39   81 1  
    86   40   82 1  
    87   40   83 1  
    88   41   84 1  
    89   41   85 1  
    90   42   86 1  
    91   42   87 1  
    92   43   88 1  
    93   44   89 1  
    94   44   90 1  
    95   45   91 1  
    96   47   92 1  
    97   47   93 1  
    98   47   94 1  
    99   48   95 1  
   100   48   96 1  
   101   48   97 1  
   102   49   98 1  
   103   49   99 1  
   104   49  100 1  
@<TRIPOS>SUBSTRUCTURE
     1 ROC         1

