### 
### Created by X-TOOL on Mon Sep 10 21:13:00 2018
### 

@<TRIPOS>MOLECULE
3el5_ligand
   86    89     1     0     0
SMALL
GAST_HUCK


@<TRIPOS>ATOM
      1 C1          8.0680    1.6420   13.0990 C.3       1 1UN         0.0024
      2 C2          7.3920    2.5160   11.9440 C.3       1 1UN        -0.0261
      3 C3          8.3000    2.7520   10.6490 C.3       1 1UN        -0.0494
      4 C4          8.8580    1.3450   10.2510 C.3       1 1UN        -0.0528
      5 C5          9.5000    0.5200   11.4490 C.3       1 1UN        -0.0526
      6 C6          8.4450    0.1750   12.6270 C.3       1 1UN        -0.0451
      7 N7          5.7880    0.8040   13.9290 N.4       1 1UN         0.2562
      8 C8          5.1110    1.6050   12.8130 C.3       1 1UN         0.0688
      9 C9          6.0200    1.7870   11.5090 C.3       1 1UN         0.0113
     10 C10         7.0900    1.4590   14.3850 C.3       1 1UN        -0.0266
     11 C11         3.9190    0.8840   12.3480 C.2       1 1UN         0.2251
     12 N12         2.8630    1.7710   12.0750 N.am      1 1UN        -0.2771
     13 C13         1.4880    1.3700   11.5770 C.3       1 1UN         0.0448
     14 C14         0.8440    0.4770   12.6190 C.3       1 1UN        -0.0396
     15 C15         1.5610    0.5430   10.2110 C.3       1 1UN        -0.0396
     16 C16         0.6580    2.7160   11.4010 C.3       1 1UN        -0.0396
     17 O17         4.0060   -0.4000   12.2330 O.2       1 1UN        -0.3909
     18 C18         4.9850    0.6910   15.1750 C.3       1 1UN        -0.0009
     19 C19         5.5050   -0.5480   15.9080 C.3       1 1UN         0.1184
     20 C20         4.8080   -1.8970   15.5500 C.3       1 1UN         0.0832
     21 O21         5.3240   -0.2360   17.2750 O.3       1 1UN        -0.3842
     22 N22         5.5480   -2.9200   16.3070 N.am      1 1UN        -0.2808
     23 C23         3.3400   -2.0610   15.9620 C.3       1 1UN         0.0326
     24 C24         6.5700   -3.6200   15.6020 C.2       1 1UN         0.1978
     25 O25         6.8660   -3.4170   14.4020 O.2       1 1UN        -0.3887
     26 C29         7.2820   -4.5580   16.3950 C.ar      1 1UN         0.0427
     27 C30         6.5130   -5.4890   17.2530 C.ar      1 1UN        -0.0597
     28 C31         7.1580   -6.4340   18.1000 C.ar      1 1UN        -0.0720
     29 C32         8.5780   -6.4760   18.1050 C.ar      1 1UN        -0.0355
     30 C33         9.3520   -5.5660   17.2650 C.ar      1 1UN         0.0948
     31 C34         8.7400   -4.5910   16.3950 C.ar      1 1UN         0.0036
     32 O38        10.7200   -5.6190   17.2940 O.3       1 1UN        -0.3358
     33 C39         9.6630   -3.6860   15.5700 C.3       1 1UN        -0.0293
     34 S74         2.5340   -3.3020   14.8320 S.3       1 1UN        -0.0993
     35 C77         2.6710   -4.7690   15.7810 C.ar      1 1UN         0.0154
     36 C78         2.9230   -5.9450   15.0430 C.ar      1 1UN        -0.0498
     37 C79         3.0470   -7.1760   15.7750 C.ar      1 1UN        -0.0678
     38 C80         2.9240   -7.2320   17.2140 C.ar      1 1UN        -0.0687
     39 C81         2.6630   -6.0340   17.9680 C.ar      1 1UN        -0.0678
     40 C82         2.5380   -4.7880   17.2250 C.ar      1 1UN        -0.0498
     41 H1          8.9848    2.1605   13.4163 H         1 1UN         0.0355
     42 H2          7.1539    3.5036   12.3657 H         1 1UN         0.0309
     43 H3          9.1268    3.4391   10.8820 H         1 1UN         0.0268
     44 H4          7.6962    3.1693    9.8297 H         1 1UN         0.0268
     45 H5          9.6307    1.4883    9.4813 H         1 1UN         0.0265
     46 H6          8.0297    0.7538    9.8334 H         1 1UN         0.0265
     47 H7         10.3221    1.1111   11.8788 H         1 1UN         0.0265
     48 H8          9.8976   -0.4244   11.0489 H         1 1UN         0.0265
     49 H9          7.5687   -0.3682   12.2437 H         1 1UN         0.0270
     50 H10         8.9120   -0.4065   13.4356 H         1 1UN         0.0270
     51 H11         5.9781   -0.1194   13.5722 H         1 1UN         0.2057
     52 H12         4.8321    2.5931   13.2079 H         1 1UN         0.1100
     53 H13         6.2443    0.8028   11.0720 H         1 1UN         0.0348
     54 H14         5.4894    2.4044   10.7692 H         1 1UN         0.0348
     55 H15         6.8731    2.4428   14.8266 H         1 1UN         0.0818
     56 H16         7.5813    0.8209   15.1343 H         1 1UN         0.0818
     57 H17         3.0324    2.7457   12.2211 H         1 1UN         0.1859
     58 H18        -0.1563    0.1750   12.2753 H         1 1UN         0.0254
     59 H19         0.7553    1.0259   13.5681 H         1 1UN         0.0254
     60 H20         1.4656   -0.4179   12.7697 H         1 1UN         0.0254
     61 H21         0.5436    0.2751    9.8898 H         1 1UN         0.0254
     62 H22         2.1491   -0.3732   10.3680 H         1 1UN         0.0254
     63 H23         2.0404    1.1580    9.4352 H         1 1UN         0.0254
     64 H24        -0.3533    2.4785   11.0392 H         1 1UN         0.0254
     65 H25         1.1645    3.3666   10.6728 H         1 1UN         0.0254
     66 H26         0.5889    3.2335   12.3692 H         1 1UN         0.0254
     67 H27         3.9190    0.5707   14.9319 H         1 1UN         0.0841
     68 H28         5.1201    1.5873   15.7982 H         1 1UN         0.0841
     69 H29         6.5771   -0.6632   15.6907 H         1 1UN         0.0670
     70 H30         4.8917   -2.0639   14.4660 H         1 1UN         0.0593
     71 H31         5.7555    0.5874   17.4706 H         1 1UN         0.2101
     72 H32         5.3441   -3.1138   17.2666 H         1 1UN         0.1847
     73 H33         2.8223   -1.0941   15.8782 H         1 1UN         0.0425
     74 H34         3.2854   -2.4174   17.0012 H         1 1UN         0.0425
     75 H35         5.4299   -5.4496   17.2354 H         1 1UN         0.0556
     76 H36         6.5801   -7.1047   18.7255 H         1 1UN         0.0543
     77 H37         9.0918   -7.1902   18.7382 H         1 1UN         0.0556
     78 H38        10.9968   -6.2961   17.9002 H         1 1UN         0.2456
     79 H39         9.0555   -3.0007   14.9606 H         1 1UN         0.0382
     80 H40        10.2899   -4.3047   14.9111 H         1 1UN         0.0382
     81 H41        10.3056   -3.1033   16.2465 H         1 1UN         0.0382
     82 H42         3.0196   -5.9210   13.9636 H         1 1UN         0.0565
     83 H43         3.2392   -8.0928   15.2295 H         1 1UN         0.0600
     84 H44         3.0288   -8.1807   17.7278 H         1 1UN         0.0559
     85 H45         2.5634   -6.0584   19.0471 H         1 1UN         0.0600
     86 H46         2.3433   -3.8640   17.7573 H         1 1UN         0.0565
@<TRIPOS>BOND
     1    1    2 1  
     2    1    6 1  
     3   10    1 1  
     4    2    3 1  
     5    2    9 1  
     6    3    4 1  
     7    5    4 1  
     8    6    5 1  
     9    7    8 1  
    10    7   10 1  
    11    7   18 1  
    12    8    9 1  
    13    8   11 1  
    14   11   12 am 
    15   11   17 2  
    16   12   13 1  
    17   13   14 1  
    18   13   15 1  
    19   13   16 1  
    20   18   19 1  
    21   19   20 1  
    22   19   21 1  
    23   20   22 1  
    24   20   23 1  
    25   22   24 am 
    26   23   34 1  
    27   24   25 2  
    28   24   26 1  
    29   26   27 ar 
    30   26   31 ar 
    31   27   28 ar 
    32   28   29 ar 
    33   29   30 ar 
    34   30   31 ar 
    35   30   32 1  
    36   31   33 1  
    37   34   35 1  
    38   35   36 ar 
    39   35   40 ar 
    40   36   37 ar 
    41   37   38 ar 
    42   38   39 ar 
    43   39   40 ar 
    44    1   41 1  
    45    2   42 1  
    46    3   43 1  
    47    3   44 1  
    48    4   45 1  
    49    4   46 1  
    50    5   47 1  
    51    5   48 1  
    52    6   49 1  
    53    6   50 1  
    54    7   51 1  
    55    8   52 1  
    56    9   53 1  
    57    9   54 1  
    58   10   55 1  
    59   10   56 1  
    60   12   57 1  
    61   14   58 1  
    62   14   59 1  
    63   14   60 1  
    64   15   61 1  
    65   15   62 1  
    66   15   63 1  
    67   16   64 1  
    68   16   65 1  
    69   16   66 1  
    70   18   67 1  
    71   18   68 1  
    72   19   69 1  
    73   20   70 1  
    74   21   71 1  
    75   22   72 1  
    76   23   73 1  
    77   23   74 1  
    78   27   75 1  
    79   28   76 1  
    80   29   77 1  
    81   32   78 1  
    82   33   79 1  
    83   33   80 1  
    84   33   81 1  
    85   36   82 1  
    86   37   83 1  
    87   38   84 1  
    88   39   85 1  
    89   40   86 1  
@<TRIPOS>SUBSTRUCTURE
     1 1UN         1

