### 
### Created by X-TOOL on Mon Sep 10 21:12:58 2018
### 

@<TRIPOS>MOLECULE
3el7_ligand
   60    64     1     0     0
SMALL
GAST_HUCK


@<TRIPOS>ATOM
      1 C4         22.6960   -8.9030    9.7520 C.ar      1 PD3         0.1582
      2 C5         22.6130   -7.7310    9.0170 C.ar      1 PD3         0.0861
      3 C6         23.7800   -7.1830    8.5050 C.ar      1 PD3         0.1272
      4 N1         24.9450   -7.8060    8.7410 N.ar      1 PD3        -0.2661
      5 N3         23.8910   -9.4750    9.9530 N.ar      1 PD3        -0.2691
      6 CAQ        21.1820  -10.0410   12.4380 C.3       1 PD3        -0.0222
      7 CAO        21.8820  -11.2720   13.0210 C.3       1 PD3        -0.0502
      8 CAP        21.6280  -12.3470   11.9630 C.3       1 PD3        -0.0502
      9 CAR        21.9840  -11.5420   10.7140 C.3       1 PD3        -0.0222
     10 CBH        21.0690  -10.3370   10.9390 C.3       1 PD3         0.0771
     11 NBI        21.4460   -9.1770   10.1190 N.pl3     1 PD3        -0.1914
     12 NAV        20.6420   -8.3410    9.7030 N.2       1 PD3        -0.2107
     13 C2         24.9830   -8.9210    9.4500 C.ar      1 PD3         0.0558
     14 NAA        23.7430   -6.0530    7.8040 N.pl3     1 PD3        -0.3122
     15 CBE        21.2650   -7.3910    9.0070 C.2       1 PD3         0.0538
     16 CAS        20.6350   -6.1460    8.3790 C.3       1 PD3         0.0200
     17 CAZ        19.4340   -6.5250    7.5090 C.ar      1 PD3        -0.0456
     18 CAM        18.2840   -5.7420    7.5010 C.ar      1 PD3        -0.0390
     19 CAH        19.5090   -7.6680    6.7230 C.ar      1 PD3        -0.0738
     20 CAF        18.4320   -8.0360    5.9250 C.ar      1 PD3        -0.0817
     21 CAI        17.2830   -7.2540    5.9230 C.ar      1 PD3        -0.0482
     22 CBB        17.2030   -6.1110    6.7080 C.ar      1 PD3         0.0605
     23 NAW        16.0700   -5.4150    6.6320 N.am      1 PD3        -0.2158
     24 CAY        15.7620   -4.2740    7.2430 C.2       1 PD3         0.3171
     25 OAB        16.5390   -3.6750    7.9830 O.2       1 PD3        -0.3803
     26 NAX        14.5280   -3.8560    6.9740 N.am      1 PD3        -0.2085
     27 CBC        13.9180   -2.7510    7.4010 C.ar      1 PD3         0.0959
     28 CAN        14.5650   -1.7560    8.1250 C.ar      1 PD3        -0.0127
     29 CAJ        12.6030   -2.5630    6.9970 C.ar      1 PD3        -0.0114
     30 CAG        11.9230   -1.3920    7.3080 C.ar      1 PD3        -0.0435
     31 CAK        12.5730   -0.3970    8.0290 C.ar      1 PD3        -0.0452
     32 CBD        13.8890   -0.5800    8.4300 C.ar      1 PD3         0.0333
     33 CBJ        14.5910    0.5740    9.1510 C.3       1 PD3         0.3726
     34 FAD        15.6780    0.1370    9.7750 F         1 PD3        -0.2209
     35 FAE        14.9410    1.4920    8.2590 F         1 PD3        -0.2209
     36 FAC        13.7600    1.1110   10.0360 F         1 PD3        -0.2209
     37 H1         21.7810   -9.1348   12.6111 H         1 PD3         0.0294
     38 H2         20.1852   -9.9126   12.8850 H         1 PD3         0.0294
     39 H3         21.4407  -11.5568   13.9875 H         1 PD3         0.0266
     40 H4         22.9593  -11.0904   13.1490 H         1 PD3         0.0266
     41 H5         20.5791  -12.6782   11.9551 H         1 PD3         0.0266
     42 H6         22.2867  -13.2182   12.0938 H         1 PD3         0.0266
     43 H7         21.7342  -12.0828    9.7893 H         1 PD3         0.0294
     44 H8         23.0460  -11.2561   10.6961 H         1 PD3         0.0294
     45 H9         20.0325  -10.6095   10.6911 H         1 PD3         0.0651
     46 H10        25.9406   -9.3977    9.6254 H         1 PD3         0.1029
     47 H11        24.6137   -5.6521    7.4270 H         1 PD3         0.1845
     48 H12        22.8437   -5.5790    7.6383 H         1 PD3         0.1845
     49 H13        21.3853   -5.6372    7.7560 H         1 PD3         0.0580
     50 H14        20.3015   -5.4681    9.1785 H         1 PD3         0.0580
     51 H15        18.2309   -4.8474    8.1108 H         1 PD3         0.0439
     52 H16        20.4082   -8.2734    6.7320 H         1 PD3         0.0433
     53 H17        18.4878   -8.9262    5.3089 H         1 PD3         0.0561
     54 H18        16.4410   -7.5390    5.3026 H         1 PD3         0.0448
     55 H19        15.3608   -5.7988    6.0406 H         1 PD3         0.2261
     56 H20        13.9888   -4.4472    6.3741 H         1 PD3         0.2264
     57 H21        15.5897   -1.8962    8.4496 H         1 PD3         0.0710
     58 H22        12.1005   -3.3396    6.4318 H         1 PD3         0.0758
     59 H23        10.8953   -1.2556    6.9914 H         1 PD3         0.0664
     60 H24        12.0526    0.5208    8.2778 H         1 PD3         0.0740
@<TRIPOS>BOND
     1    1    2 ar 
     2    1    5 ar 
     3   11    1 1  
     4    2    3 ar 
     5    2   15 1  
     6    3    4 ar 
     7    3   14 1  
     8   13    4 ar 
     9    5   13 ar 
    10    6    7 1  
    11   10    6 1  
    12    8    7 1  
    13    9    8 1  
    14   10    9 1  
    15   10   11 1  
    16   11   12 1  
    17   12   15 2  
    18   15   16 1  
    19   16   17 1  
    20   17   18 ar 
    21   17   19 ar 
    22   18   22 ar 
    23   19   20 ar 
    24   20   21 ar 
    25   21   22 ar 
    26   22   23 1  
    27   23   24 am 
    28   24   25 2  
    29   24   26 am 
    30   26   27 1  
    31   27   28 ar 
    32   27   29 ar 
    33   28   32 ar 
    34   29   30 ar 
    35   30   31 ar 
    36   31   32 ar 
    37   32   33 1  
    38   33   34 1  
    39   33   35 1  
    40   33   36 1  
    41    6   37 1  
    42    6   38 1  
    43    7   39 1  
    44    7   40 1  
    45    8   41 1  
    46    8   42 1  
    47    9   43 1  
    48    9   44 1  
    49   10   45 1  
    50   13   46 1  
    51   14   47 1  
    52   14   48 1  
    53   16   49 1  
    54   16   50 1  
    55   18   51 1  
    56   19   52 1  
    57   20   53 1  
    58   21   54 1  
    59   23   55 1  
    60   26   56 1  
    61   28   57 1  
    62   29   58 1  
    63   30   59 1  
    64   31   60 1  
@<TRIPOS>SUBSTRUCTURE
     1 PD3         1

