### 
### Created by X-TOOL on Mon Sep 10 21:12:58 2018
### 

@<TRIPOS>MOLECULE
3el8_ligand
   53    56     1     0     0
SMALL
GAST_HUCK


@<TRIPOS>ATOM
      1 C4          6.2140    8.2230    6.7640 C.ar      1 PD5         0.1619
      2 C5          5.5660    7.2160    7.4560 C.ar      1 PD5         0.0846
      3 C6          6.3210    6.1690    7.9710 C.ar      1 PD5         0.1270
      4 N1          7.6450    6.1770    7.7750 N.ar      1 PD5        -0.2658
      5 N3          7.5500    8.1660    6.6060 N.ar      1 PD5        -0.2679
      6 CAA         4.5340   11.3850    5.9670 C.3       1 PD5        -0.0339
      7 CBE         5.5470   10.2950    5.6080 C.3       1 PD5         0.0744
      8 CAB         5.4760    9.9560    4.1170 C.3       1 PD5        -0.0339
      9 NBF         5.2760    9.0850    6.3950 N.pl3     1 PD5        -0.1844
     10 NAS         4.1520    8.7370    6.7720 N.2       1 PD5        -0.2015
     11 C2          8.2340    7.1580    7.1080 C.ar      1 PD5         0.0563
     12 NAC         5.7480    5.1820    8.6540 N.pl3     1 PD5        -0.3126
     13 CBB         4.2290    7.5870    7.4340 C.2       1 PD5         0.0618
     14 CAZ         3.1800    6.8750    8.0070 C.ar      1 PD5        -0.0219
     15 CAO         2.2670    7.5370    8.8170 C.ar      1 PD5        -0.0660
     16 CAM         1.1220    6.8810    9.2590 C.ar      1 PD5        -0.0393
     17 CAN         2.9520    5.5450    7.6680 C.ar      1 PD5        -0.0660
     18 CAL         1.8060    4.8880    8.1080 C.ar      1 PD5        -0.0393
     19 CAX         0.8780    5.5610    8.8950 C.ar      1 PD5         0.0696
     20 NAT        -0.3080    5.0370    9.2080 N.am      1 PD5        -0.2128
     21 CAV        -0.7220    3.8010    8.9400 C.2       1 PD5         0.3185
     22 OAD        -0.0200    2.9710    8.3680 O.2       1 PD5        -0.3797
     23 NAU        -1.9640    3.5470    9.3470 N.am      1 PD5        -0.2082
     24 CAY        -2.6380    2.4050    9.2120 C.ar      1 PD5         0.0959
     25 CAP        -2.1110    1.2750    8.5990 C.ar      1 PD5        -0.0127
     26 CAJ        -3.9360    2.3690    9.7040 C.ar      1 PD5        -0.0114
     27 CAH        -4.7120    1.2210    9.5860 C.ar      1 PD5        -0.0435
     28 CAK        -4.1780    0.0970    8.9700 C.ar      1 PD5        -0.0452
     29 CBA        -2.8790    0.1200    8.4760 C.ar      1 PD5         0.0333
     30 CBG        -2.3200   -1.1450    7.8190 C.3       1 PD5         0.3726
     31 FAF        -2.2560   -2.1120    8.7290 F         1 PD5        -0.2209
     32 FAG        -3.1270   -1.5200    6.8320 F         1 PD5        -0.2209
     33 FAE        -1.1040   -0.9320    7.3280 F         1 PD5        -0.2209
     34 H1          4.7420   12.2883    5.3747 H         1 PD5         0.0259
     35 H2          4.6148   11.6223    7.0381 H         1 PD5         0.0259
     36 H3          3.5173   11.0278    5.7462 H         1 PD5         0.0259
     37 H4          6.5581   10.6588    5.8433 H         1 PD5         0.0653
     38 H5          6.2116    9.1721    3.8838 H         1 PD5         0.0259
     39 H6          5.6993   10.8560    3.5253 H         1 PD5         0.0259
     40 H7          4.4662    9.5963    3.8704 H         1 PD5         0.0259
     41 H8          9.3090    7.1308    6.9713 H         1 PD5         0.1030
     42 H9          6.3226    4.4137    9.0287 H         1 PD5         0.1842
     43 H10         4.7296    5.1859    8.8082 H         1 PD5         0.1842
     44 H11         2.4464    8.5664    9.1055 H         1 PD5         0.0586
     45 H12         0.4142    7.4033    9.8924 H         1 PD5         0.0509
     46 H13         3.6731    5.0155    7.0558 H         1 PD5         0.0586
     47 H14         1.6373    3.8520    7.8371 H         1 PD5         0.0509
     48 H15        -0.9497    5.6319    9.6920 H         1 PD5         0.2279
     49 H16        -2.4441    4.2955    9.8044 H         1 PD5         0.2265
     50 H17        -1.0975    1.2926    8.2148 H         1 PD5         0.0710
     51 H18        -4.3498    3.2472   10.1863 H         1 PD5         0.0758
     52 H19        -5.7250    1.2038    9.9716 H         1 PD5         0.0664
     53 H20        -4.7764   -0.8018    8.8740 H         1 PD5         0.0740
@<TRIPOS>BOND
     1    1    2 ar 
     2    1    5 ar 
     3    9    1 1  
     4    2    3 ar 
     5    2   13 1  
     6    3    4 ar 
     7    3   12 1  
     8   11    4 ar 
     9    5   11 ar 
    10    7    6 1  
    11    7    8 1  
    12    7    9 1  
    13    9   10 1  
    14   10   13 2  
    15   13   14 1  
    16   14   15 ar 
    17   14   17 ar 
    18   15   16 ar 
    19   16   19 ar 
    20   17   18 ar 
    21   18   19 ar 
    22   19   20 1  
    23   20   21 am 
    24   21   22 2  
    25   21   23 am 
    26   23   24 1  
    27   24   25 ar 
    28   24   26 ar 
    29   25   29 ar 
    30   26   27 ar 
    31   27   28 ar 
    32   28   29 ar 
    33   29   30 1  
    34   30   31 1  
    35   30   32 1  
    36   30   33 1  
    37    6   34 1  
    38    6   35 1  
    39    6   36 1  
    40    7   37 1  
    41    8   38 1  
    42    8   39 1  
    43    8   40 1  
    44   11   41 1  
    45   12   42 1  
    46   12   43 1  
    47   15   44 1  
    48   16   45 1  
    49   17   46 1  
    50   18   47 1  
    51   20   48 1  
    52   23   49 1  
    53   25   50 1  
    54   26   51 1  
    55   27   52 1  
    56   28   53 1  
@<TRIPOS>SUBSTRUCTURE
     1 PD5         1

