### 
### Created by X-TOOL on Mon Sep 10 21:13:00 2018
### 

@<TRIPOS>MOLECULE
3el9_ligand
  104   106     1     0     0
SMALL
GAST_HUCK


@<TRIPOS>ATOM
      1 CAA        20.8160   23.6110    9.1960 C.3       1 DR7         0.0663
      2 OBI        21.1110   24.9970    9.3690 O.3       1 DR7        -0.2672
      3 CBK        21.6170   25.4580   10.6440 C.2       1 DR7         0.3216
      4 OAI        21.8960   24.6520   11.5210 O.2       1 DR7        -0.3774
      5 N          21.7790   26.7720   10.7300 N.am      1 DR7        -0.2407
      6 CA         22.3140   27.4440   11.8900 C.3       1 DR7         0.1375
      7 CB         23.7120   28.0040   11.6390 C.3       1 DR7         0.0025
      8 CAE        24.0290   28.8620   12.8560 C.3       1 DR7        -0.0558
      9 CG2        23.7740   28.8120   10.3470 C.3       1 DR7        -0.0558
     10 CG1        24.7300   26.8710   11.5280 C.3       1 DR7        -0.0558
     11 C          21.2680   28.4470   12.3050 C.2       1 DR7         0.2026
     12 O          21.0450   29.4470   11.6240 O.2       1 DR7        -0.3945
     13 NBG        20.6180   28.1410   13.4340 N.am      1 DR7        -0.2773
     14 CBT        19.5570   28.9830   13.9820 C.3       1 DR7         0.0823
     15 CBA        18.2450   28.2090   13.8810 C.3       1 DR7         0.0066
     16 CBO        17.9440   27.8080   12.4590 C.ar      1 DR7        -0.0408
     17 CAT        18.3340   26.5510   12.0210 C.ar      1 DR7        -0.0603
     18 CAP        18.0830   26.1430   10.7170 C.ar      1 DR7        -0.0686
     19 CAN        17.4150   26.9910    9.8440 C.ar      1 DR7        -0.0687
     20 CAQ        17.0080   28.2520   10.2870 C.ar      1 DR7        -0.0686
     21 CAU        17.2600   28.6580   11.5950 C.ar      1 DR7        -0.0603
     22 CBS        19.9160   29.2840   15.4420 C.3       1 DR7         0.1201
     23 OAM        20.1870   28.0870   16.1590 O.3       1 DR7        -0.3840
     24 CBC        21.1780   30.1260   15.5950 C.3       1 DR7         0.0233
     25 NBW        20.9560   31.5530   15.4130 N.4       1 DR7         0.3820
     26 NBH        19.9080   32.0380   16.0940 N.am      1 DR7        -0.2493
     27 CBN        18.9780   32.7680   15.4590 C.2       1 DR7         0.2392
     28 OAL        18.9460   32.9540   14.2450 O.2       1 DR7        -0.3898
     29 CBV        17.9960   33.4650   16.3590 C.3       1 DR7         0.1419
     30 CBY        16.5220   33.4080   15.9460 C.3       1 DR7         0.0027
     31 CAH        15.6390   33.9470   17.0700 C.3       1 DR7        -0.0558
     32 CAF        16.1370   31.9480   15.7300 C.3       1 DR7        -0.0558
     33 CAG        16.2160   34.2250   14.6940 C.3       1 DR7        -0.0558
     34 NBF        18.4470   34.8330   16.4810 N.am      1 DR7        -0.2405
     35 CBL        18.6090   35.4360   17.6600 C.2       1 DR7         0.3216
     36 OAJ        18.4250   34.8810   18.7340 O.2       1 DR7        -0.3774
     37 OBJ        19.0120   36.8310   17.6230 O.3       1 DR7        -0.2672
     38 CAB        19.3080   37.5110   18.8460 C.3       1 DR7         0.0663
     39 CBB        22.2240   32.2190   15.7610 C.3       1 DR7         0.0280
     40 CBP        22.1300   33.7320   15.7860 C.ar      1 DR7         0.0049
     41 CAW        22.0460   34.4240   14.6320 C.ar      1 DR7        -0.0520
     42 CAY        21.9600   35.7530   14.7040 C.ar      1 DR7        -0.0565
     43 CAX        22.1420   34.3910   16.8680 C.ar      1 DR7        -0.0520
     44 CAZ        22.0660   35.5880   16.9260 C.ar      1 DR7        -0.0565
     45 CBQ        21.9730   36.3490   15.9120 C.ar      1 DR7        -0.0068
     46 CBR        21.8670   37.8580   16.0400 C.ar      1 DR7         0.0481
     47 CAV        21.0160   38.5910   15.2120 C.ar      1 DR7        -0.0287
     48 CAR        20.9130   39.9770   15.3190 C.ar      1 DR7        -0.0433
     49 CAO        21.6630   40.6410   16.2870 C.ar      1 DR7        -0.0355
     50 CAS        22.4930   39.8830   17.1120 C.ar      1 DR7         0.0086
     51 NBD        22.5680   38.5470   16.9720 N.ar      1 DR7        -0.2940
     52 H1         20.4446   23.4399    8.1748 H         1 DR7         0.0575
     53 H2         20.0474   23.3063    9.9215 H         1 DR7         0.0575
     54 H3         21.7287   23.0188    9.3582 H         1 DR7         0.0575
     55 H4         21.5145   27.3305    9.9438 H         1 DR7         0.1899
     56 H5         22.4135   26.7094   12.7026 H         1 DR7         0.0804
     57 H6         25.0309   29.3020   12.7435 H         1 DR7         0.0237
     58 H7         24.0021   28.2381   13.7616 H         1 DR7         0.0237
     59 H8         23.2831   29.6659   12.9423 H         1 DR7         0.0237
     60 H9         23.5396   28.1581    9.4940 H         1 DR7         0.0237
     61 H10        24.7846   29.2283   10.2230 H         1 DR7         0.0237
     62 H11        23.0425   29.6322   10.3920 H         1 DR7         0.0237
     63 H12        24.7092   26.2680   12.4478 H         1 DR7         0.0237
     64 H13        25.7359   27.2941   11.3896 H         1 DR7         0.0237
     65 H14        24.4781   26.2348   10.6668 H         1 DR7         0.0237
     66 H15        20.8679   27.3042   13.9212 H         1 DR7         0.1857
     67 H16        19.4788   29.9227   13.4156 H         1 DR7         0.0606
     68 H17        17.4270   28.8431   14.2536 H         1 DR7         0.0449
     69 H18        18.3171   27.3023   14.4997 H         1 DR7         0.0449
     70 H19        18.8406   25.8791   12.7043 H         1 DR7         0.0557
     71 H20        18.4080   25.1647   10.3819 H         1 DR7         0.0599
     72 H21        17.2108   26.6772    8.8267 H         1 DR7         0.0559
     73 H22        16.4918   28.9199    9.6069 H         1 DR7         0.0599
     74 H23        16.9254   29.6303   11.9382 H         1 DR7         0.0557
     75 H24        19.0675   29.8114   15.9022 H         1 DR7         0.0672
     76 H25        20.4062   28.3006   17.0584 H         1 DR7         0.2101
     77 H26        21.9117   29.7908   14.8472 H         1 DR7         0.0849
     78 H27        21.5832   29.9638   16.6047 H         1 DR7         0.0849
     79 H28        20.7696   31.7177   14.4362 H         1 DR7         0.2323
     80 H29        19.8194   31.8561   17.0733 H         1 DR7         0.2384
     81 H30        18.0616   32.9869   17.3475 H         1 DR7         0.0806
     82 H31        14.5841   33.9009   16.7617 H         1 DR7         0.0237
     83 H32        15.9133   34.9906   17.2834 H         1 DR7         0.0237
     84 H33        15.7837   33.3376   17.9742 H         1 DR7         0.0237
     85 H34        16.7532   31.5216   14.9247 H         1 DR7         0.0237
     86 H35        15.0748   31.8863   15.4507 H         1 DR7         0.0237
     87 H36        16.3054   31.3831   16.6587 H         1 DR7         0.0237
     88 H37        16.4981   35.2747   14.8632 H         1 DR7         0.0237
     89 H38        15.1404   34.1657   14.4713 H         1 DR7         0.0237
     90 H39        16.7890   33.8236   13.8451 H         1 DR7         0.0237
     91 H40        18.6457   35.3485   15.6475 H         1 DR7         0.1899
     92 H41        19.5931   38.5507   18.6277 H         1 DR7         0.0575
     93 H42        20.1391   37.0024   19.3565 H         1 DR7         0.0575
     94 H43        18.4195   37.5029   19.4944 H         1 DR7         0.0575
     95 H44        22.9831   31.9303   15.0191 H         1 DR7         0.0995
     96 H45        22.5356   31.8738   16.7579 H         1 DR7         0.0995
     97 H46        22.0483   33.9156   13.6746 H         1 DR7         0.0567
     98 H47        21.8805   36.3469   13.8006 H         1 DR7         0.0625
     99 H48        22.2260   33.8407   17.7982 H         1 DR7         0.0567
    100 H49        22.0774   36.0496   17.9067 H         1 DR7         0.0625
    101 H50        20.4219   38.0711   14.4692 H         1 DR7         0.0706
    102 H51        20.2574   40.5312   14.6571 H         1 DR7         0.0732
    103 H52        21.6030   41.7178   16.3959 H         1 DR7         0.0697
    104 H53        23.0847   40.3758   17.8750 H         1 DR7         0.0823
@<TRIPOS>BOND
     1    1    2 1  
     2    2    3 1  
     3    3    4 2  
     4    3    5 am 
     5    5    6 1  
     6    6    7 1  
     7    6   11 1  
     8    7    8 1  
     9    7    9 1  
    10    7   10 1  
    11   11   12 2  
    12   11   13 am 
    13   13   14 1  
    14   14   15 1  
    15   14   22 1  
    16   15   16 1  
    17   16   17 ar 
    18   16   21 ar 
    19   17   18 ar 
    20   18   19 ar 
    21   19   20 ar 
    22   20   21 ar 
    23   22   23 1  
    24   22   24 1  
    25   24   25 1  
    26   25   26 1  
    27   25   39 1  
    28   26   27 am 
    29   27   28 2  
    30   27   29 1  
    31   29   30 1  
    32   29   34 1  
    33   30   31 1  
    34   30   32 1  
    35   30   33 1  
    36   34   35 am 
    37   35   36 2  
    38   35   37 1  
    39   37   38 1  
    40   39   40 1  
    41   40   41 ar 
    42   40   43 ar 
    43   41   42 ar 
    44   42   45 ar 
    45   43   44 ar 
    46   44   45 ar 
    47   45   46 1  
    48   46   47 ar 
    49   46   51 ar 
    50   47   48 ar 
    51   48   49 ar 
    52   49   50 ar 
    53   50   51 ar 
    54    1   52 1  
    55    1   53 1  
    56    1   54 1  
    57    5   55 1  
    58    6   56 1  
    59    8   57 1  
    60    8   58 1  
    61    8   59 1  
    62    9   60 1  
    63    9   61 1  
    64    9   62 1  
    65   10   63 1  
    66   10   64 1  
    67   10   65 1  
    68   13   66 1  
    69   14   67 1  
    70   15   68 1  
    71   15   69 1  
    72   17   70 1  
    73   18   71 1  
    74   19   72 1  
    75   20   73 1  
    76   21   74 1  
    77   22   75 1  
    78   23   76 1  
    79   24   77 1  
    80   24   78 1  
    81   25   79 1  
    82   26   80 1  
    83   29   81 1  
    84   31   82 1  
    85   31   83 1  
    86   31   84 1  
    87   32   85 1  
    88   32   86 1  
    89   32   87 1  
    90   33   88 1  
    91   33   89 1  
    92   33   90 1  
    93   34   91 1  
    94   38   92 1  
    95   38   93 1  
    96   38   94 1  
    97   39   95 1  
    98   39   96 1  
    99   41   97 1  
   100   42   98 1  
   101   43   99 1  
   102   44  100 1  
   103   47  101 1  
   104   48  102 1  
   105   49  103 1  
   106   50  104 1  
@<TRIPOS>SUBSTRUCTURE
     1 DR7         1

