### 
### Created by X-TOOL on Mon Sep 10 21:12:57 2018
### 

@<TRIPOS>MOLECULE
3elj_ligand
   55    58     1     0     0
SMALL
GAST_HUCK


@<TRIPOS>ATOM
      1 C11        20.7730    8.5190   32.3400 C.ar      1 GS7         0.1295
      2 N2         21.3920    7.3760   31.9960 N.ar      1 GS7        -0.2515
      3 C19        19.5210    8.3970   32.9060 C.ar      1 GS7         0.0360
      4 C22        19.0130    7.1340   33.0720 C.ar      1 GS7         0.1206
      5 N5         17.7770    7.2490   33.6400 N.pl3     1 GS7        -0.2725
      6 C21        17.4810    8.5660   33.8470 C.2       1 GS7         0.0190
      7 C20        18.5510    9.3090   33.3980 C.2       1 GS7        -0.0616
      8 N6         19.6100    5.9950   32.7410 N.ar      1 GS7        -0.2659
      9 C10        20.8160    6.1850   32.2010 C.ar      1 GS7         0.1701
     10 N1         21.4930    5.0070   31.8270 N.pl3     1 GS7        -0.2573
     11 C9         22.7630    4.9740   31.2170 C.ar      1 GS7         0.0877
     12 C2         23.6990    4.0630   31.6580 C.ar      1 GS7         0.1089
     13 O1         23.2950    3.2430   32.7030 O.3       1 GS7        -0.3267
     14 C1         24.1830    2.1400   32.8230 C.3       1 GS7         0.0569
     15 C8         23.0940    5.8190   30.1790 C.ar      1 GS7        -0.0526
     16 C7         24.3440    5.7590   29.6050 C.ar      1 GS7        -0.0792
     17 C4         25.2790    4.8450   30.0440 C.ar      1 GS7        -0.0421
     18 C3         24.9550    3.9930   31.0800 C.ar      1 GS7        -0.0388
     19 C5         26.6290    4.8080   29.4040 C.3       1 GS7         0.0915
     20 S          26.5390    3.7910   27.9470 S.o2      1 GS7        -0.0259
     21 O2         25.6290    4.4050   26.9980 O.2       1 GS7        -0.1728
     22 O3         26.3330    2.4240   28.3880 O.2       1 GS7        -0.1728
     23 C6         28.1780    3.9200   27.2980 C.3       1 GS7         0.0563
     24 O4         20.8260   12.3130   32.6810 O.2       1 GS7        -0.3937
     25 C18        21.7270   12.5310   31.8800 C.2       1 GS7         0.1952
     26 N4         21.8210   13.6440   31.0860 N.am      1 GS7        -0.3028
     27 C17        22.8270   11.5640   31.7060 C.ar      1 GS7         0.1061
     28 C16        24.0940   12.0080   31.3940 C.ar      1 GS7         0.1446
     29 F          24.3470   13.3170   31.2440 F         1 GS7        -0.1804
     30 C15        25.1190   11.1050   31.2310 C.ar      1 GS7        -0.0336
     31 C14        24.8710    9.7600   31.3830 C.ar      1 GS7        -0.0685
     32 C13        23.6040    9.3200   31.6970 C.ar      1 GS7        -0.0357
     33 C12        22.5690   10.2150   31.8610 C.ar      1 GS7         0.0843
     34 N3         21.2650    9.8190   32.1790 N.pl3     1 GS7        -0.2526
     35 H1         17.1593    6.4596   33.8772 H         1 GS7         0.2296
     36 H2         16.5653    8.9580   34.2872 H         1 GS7         0.0873
     37 H3         18.6366   10.3945   33.4171 H         1 GS7         0.0294
     38 H4         21.0271    4.1073   32.0124 H         1 GS7         0.2114
     39 H5         23.8568    1.4952   33.6524 H         1 GS7         0.0573
     40 H6         25.2001    2.5081   33.0230 H         1 GS7         0.0573
     41 H7         24.1794    1.5628   31.8866 H         1 GS7         0.0573
     42 H8         22.3663    6.5343   29.8130 H         1 GS7         0.0486
     43 H9         24.5963    6.4381   28.7986 H         1 GS7         0.0436
     44 H10        25.6805    3.2723   31.4395 H         1 GS7         0.0449
     45 H11        27.3610    4.3840   30.1072 H         1 GS7         0.0640
     46 H12        26.9354    5.8272   29.1260 H         1 GS7         0.0640
     47 H13        28.2556    3.3237   26.3769 H         1 GS7         0.0465
     48 H14        28.8970    3.5433   28.0403 H         1 GS7         0.0465
     49 H15        28.4014    4.9733   27.0728 H         1 GS7         0.0465
     50 H16        22.5913   13.7455   30.4565 H         1 GS7         0.1802
     51 H17        21.1193   14.3547   31.1361 H         1 GS7         0.1802
     52 H18        26.1162   11.4510   30.9843 H         1 GS7         0.0521
     53 H19        25.6752    9.0445   31.2552 H         1 GS7         0.0614
     54 H20        23.4191    8.2586   31.8164 H         1 GS7         0.0517
     55 H21        20.5825   10.5790   32.3110 H         1 GS7         0.2201
@<TRIPOS>BOND
     1    1    2 ar 
     2    1    3 ar 
     3   34    1 1  
     4    2    9 ar 
     5    3    4 ar 
     6    3    7 1  
     7    4    5 1  
     8    4    8 ar 
     9    6    5 1  
    10    7    6 2  
    11    9    8 ar 
    12    9   10 1  
    13   10   11 1  
    14   11   12 ar 
    15   11   15 ar 
    16   12   13 1  
    17   12   18 ar 
    18   13   14 1  
    19   15   16 ar 
    20   16   17 ar 
    21   18   17 ar 
    22   17   19 1  
    23   19   20 1  
    24   20   21 2  
    25   20   22 2  
    26   20   23 1  
    27   25   24 2  
    28   25   26 am 
    29   27   25 1  
    30   27   28 ar 
    31   33   27 ar 
    32   28   29 1  
    33   28   30 ar 
    34   31   30 ar 
    35   32   31 ar 
    36   33   32 ar 
    37   33   34 1  
    38    5   35 1  
    39    6   36 1  
    40    7   37 1  
    41   10   38 1  
    42   14   39 1  
    43   14   40 1  
    44   14   41 1  
    45   15   42 1  
    46   16   43 1  
    47   18   44 1  
    48   19   45 1  
    49   19   46 1  
    50   23   47 1  
    51   23   48 1  
    52   23   49 1  
    53   26   50 1  
    54   26   51 1  
    55   30   52 1  
    56   31   53 1  
    57   32   54 1  
    58   34   55 1  
@<TRIPOS>SUBSTRUCTURE
     1 GS7         1

