### 
### Created by X-TOOL on Mon Sep 10 21:12:59 2018
### 

@<TRIPOS>MOLECULE
3elm_ligand
   63    65     1     0     0
SMALL
GAST_HUCK


@<TRIPOS>ATOM
      1 C01        -7.5790   26.9970   49.8780 C.ar      1 24F         0.0919
      2 C02        -8.0950   26.1190   50.8740 C.ar      1 24F        -0.0325
      3 C03        -7.5510   26.1020   52.1930 C.ar      1 24F        -0.0626
      4 C04        -6.4640   26.9750   52.5560 C.ar      1 24F        -0.0207
      5 C05        -5.9410   27.8600   51.5590 C.ar      1 24F        -0.0626
      6 C06        -6.4910   27.8690   50.2350 C.ar      1 24F        -0.0325
      7 O07        -8.1090   27.0050   48.5990 O.3       1 24F        -0.3177
      8 C08        -8.0170   28.1520   47.7540 C.3       1 24F         0.0680
      9 C09        -5.9000   26.9610   53.9320 C.2       1 24F         0.0297
     10 C10        -5.9740   25.8410   54.7730 C.2       1 24F        -0.0704
     11 C11        -5.3350   26.1260   56.0440 C.2       1 24F        -0.0508
     12 C12        -4.8300   27.4220   56.0690 C.2       1 24F         0.1602
     13 S13        -5.0920   28.3290   54.6290 S.3       1 24F        -0.0138
     14 S14        -3.9670   28.0830   57.4390 S.o2      1 24F         0.0786
     15 N15        -2.3530   27.8490   57.2420 N.am      1 24F        -0.2307
     16 O16        -4.1350   29.5430   57.4550 O.2       1 24F        -0.1497
     17 O17        -4.3450   27.3800   58.6630 O.2       1 24F        -0.1497
     18 C18        -1.7920   26.4810   57.1910 C.3       1 24F         0.0927
     19 C19        -1.8480   26.0310   55.7020 C.2       1 24F         0.0566
     20 OM0        -2.0740   24.8350   55.4590 O.co2     1 24F        -0.5670
     21 O21        -1.6420   26.9130   54.8550 O.co2     1 24F        -0.5670
     22 C22        -0.3560   26.5080   57.7490 C.3       1 24F        -0.0059
     23 C23         0.5420   25.3180   57.3170 C.3       1 24F        -0.0264
     24 C24         1.9640   25.4310   57.8870 C.3       1 24F         0.0362
     25 N25         1.9080   25.5400   59.3640 N.am      1 24F        -0.2489
     26 C26         1.1010   26.6730   59.8880 C.3       1 24F         0.0362
     27 C27        -0.3400   26.6740   59.2960 C.3       1 24F        -0.0264
     28 C28        -9.0200   27.9780   46.6140 C.3       1 24F        -0.0371
     29 C29         2.3420   24.5960   60.1860 C.2       1 24F         0.3223
     30 O30         3.2310   23.6930   59.5330 O.3       1 24F        -0.2610
     31 O31         2.0640   24.4380   61.3780 O.2       1 24F        -0.3774
     32 C32         3.4580   22.3860   60.0790 C.3       1 24F         0.0826
     33 C33         4.8450   21.9030   59.6360 C.3       1 24F        -0.0346
     34 C34         2.3730   21.4370   59.5600 C.3       1 24F        -0.0346
     35 H1         -8.9138   25.4533   50.6260 H         1 24F         0.0546
     36 H2         -7.9611   25.4231   52.9319 H         1 24F         0.0587
     37 H3         -5.1238   28.5276   51.8070 H         1 24F         0.0587
     38 H4         -6.0811   28.5429   49.4914 H         1 24F         0.0546
     39 H5         -6.9987   28.2350   47.3463 H         1 24F         0.0612
     40 H6         -8.2573   29.0591   48.3279 H         1 24F         0.0612
     41 H7         -6.4433   24.8942   54.5100 H         1 24F         0.0409
     42 H8         -5.2606   25.4191   56.8690 H         1 24F         0.0434
     43 H9         -1.7445   28.6379   57.1558 H         1 24F         0.1697
     44 H10        -2.4004   25.7984   57.8025 H         1 24F         0.0683
     45 H11         0.1122   27.4105   57.3291 H         1 24F         0.0338
     46 H12         0.6006   25.2982   56.2188 H         1 24F         0.0289
     47 H13         0.0888   24.3826   57.6770 H         1 24F         0.0289
     48 H14         2.4527   26.3255   57.4735 H         1 24F         0.0522
     49 H15         2.5406   24.5365   57.6089 H         1 24F         0.0522
     50 H16         1.5970   27.6179   59.6211 H         1 24F         0.0522
     51 H17         1.0368   26.5890   60.9829 H         1 24F         0.0522
     52 H18        -0.9048   25.8435   59.7445 H         1 24F         0.0289
     53 H19        -0.8246   27.6277   59.5523 H         1 24F         0.0289
     54 H20        -8.9702   28.8502   45.9456 H         1 24F         0.0256
     55 H21       -10.0351   27.8914   47.0287 H         1 24F         0.0256
     56 H22        -8.7765   27.0673   46.0472 H         1 24F         0.0256
     57 H23         3.4157   22.4272   61.1774 H         1 24F         0.0642
     58 H24         5.0330   20.9005   60.0479 H         1 24F         0.0258
     59 H25         5.6113   22.6006   60.0049 H         1 24F         0.0258
     60 H26         4.8853   21.8615   58.5375 H         1 24F         0.0258
     61 H27         2.5378   20.4309   59.9730 H         1 24F         0.0258
     62 H28         2.4178   21.3944   58.4618 H         1 24F         0.0258
     63 H29         1.3844   21.8043   59.8727 H         1 24F         0.0258
@<TRIPOS>BOND
     1    1    2 ar 
     2    1    6 ar 
     3    1    7 1  
     4    2    3 ar 
     5    3    4 ar 
     6    4    5 ar 
     7    4    9 1  
     8    5    6 ar 
     9    7    8 1  
    10    8   28 1  
    11    9   10 2  
    12    9   13 1  
    13   10   11 1  
    14   11   12 2  
    15   12   13 1  
    16   12   14 1  
    17   14   15 am 
    18   14   16 2  
    19   14   17 2  
    20   15   18 1  
    21   18   19 1  
    22   18   22 1  
    23   19   20 ar 
    24   19   21 ar 
    25   22   23 1  
    26   22   27 1  
    27   23   24 1  
    28   24   25 1  
    29   25   26 1  
    30   25   29 am 
    31   26   27 1  
    32   29   30 1  
    33   29   31 2  
    34   30   32 1  
    35   32   33 1  
    36   32   34 1  
    37    2   35 1  
    38    3   36 1  
    39    5   37 1  
    40    6   38 1  
    41    8   39 1  
    42    8   40 1  
    43   10   41 1  
    44   11   42 1  
    45   15   43 1  
    46   18   44 1  
    47   22   45 1  
    48   23   46 1  
    49   23   47 1  
    50   24   48 1  
    51   24   49 1  
    52   26   50 1  
    53   26   51 1  
    54   27   52 1  
    55   27   53 1  
    56   28   54 1  
    57   28   55 1  
    58   28   56 1  
    59   32   57 1  
    60   33   58 1  
    61   33   59 1  
    62   33   60 1  
    63   34   61 1  
    64   34   62 1  
    65   34   63 1  
@<TRIPOS>SUBSTRUCTURE
     1 24F         1

