### 
### Created by X-TOOL on Mon Sep 10 21:12:58 2018
### 

@<TRIPOS>MOLECULE
3emg_ligand
   51    53     1     0     0
SMALL
GAST_HUCK


@<TRIPOS>ATOM
      1 C1         15.7190   39.6340    6.3370 C.3       1 685        -0.0400
      2 C2         14.5590   38.8840    6.9040 C.3       1 685         0.0610
      3 C4         15.1970   37.6190    7.2780 C.3       1 685         0.0667
      4 O5         15.2430   37.1750    5.9480 O.3       1 685        -0.3928
      5 N6         13.9660   39.5200    8.0260 N.am      1 685        -0.2840
      6 C7         12.7120   39.6910    8.1220 C.2       1 685         0.2045
      7 O8         12.1050   39.2640    7.2770 O.2       1 685        -0.3950
      8 C9         12.1660   40.3430    9.3120 C.2       1 685         0.1207
      9 S10        12.7940   41.7140   10.0650 S.3       1 685         0.0079
     10 C11        11.6680   41.7020   11.1760 C.2       1 685         0.1387
     11 N12        10.9430   40.7210   11.0000 N.2       1 685        -0.2800
     12 C13        11.1030   39.9920   10.0550 C.2       1 685         0.0340
     13 C14        10.1970   38.8610    9.8350 C.3       1 685        -0.0206
     14 C15        11.5740   42.6030   12.2620 C.ar      1 685         0.0947
     15 C16        10.5490   42.6030   13.1230 C.ar      1 685        -0.0089
     16 C17        10.6700   43.4750   14.1260 C.ar      1 685         0.0179
     17 N18        11.6530   44.2590   14.2790 N.ar      1 685        -0.2484
     18 C19        12.6110   44.1580   13.4980 C.ar      1 685         0.2133
     19 N20        13.6640   44.9360   13.7070 N.pl3     1 685        -0.2441
     20 C21        14.8490   44.9240   13.0370 C.ar      1 685         0.0518
     21 C22        15.1010   44.1790   11.9450 C.ar      1 685        -0.0445
     22 C23        16.3550   44.2380   11.3560 C.ar      1 685        -0.0623
     23 C24        16.7570   43.4330   10.1780 C.3       1 685        -0.0352
     24 C25        17.2970   45.0740   11.8300 C.ar      1 685        -0.0711
     25 C26        17.0420   45.8220   12.9190 C.ar      1 685        -0.0623
     26 C27        18.1270   46.6820   13.4620 C.3       1 685        -0.0352
     27 C28        15.8300   45.7480   13.5260 C.ar      1 685        -0.0445
     28 N29        12.5870   43.3520   12.5060 N.ar      1 685        -0.2396
     29 H1         16.1252   39.0842    5.4752 H         1 685         0.0252
     30 H2         16.4989   39.7389    7.1056 H         1 685         0.0252
     31 H3         15.3875   40.6314    6.0124 H         1 685         0.0252
     32 H4         13.7852   38.7270    6.1381 H         1 685         0.0574
     33 H5         14.5736   36.9890    7.9295 H         1 685         0.0580
     34 H6         16.1905   37.7463    7.7326 H         1 685         0.0580
     35 H7         15.6425   36.3137    5.9165 H         1 685         0.2095
     36 H8         14.5560   39.8442    8.7655 H         1 685         0.1837
     37 H9          9.4277   38.8492   10.6212 H         1 685         0.0401
     38 H10        10.7685   37.9217    9.8672 H         1 685         0.0401
     39 H11         9.7148   38.9633    8.8517 H         1 685         0.0401
     40 H12         9.6915   41.9488   13.0145 H         1 685         0.0708
     41 H13         9.8729   43.5150   14.8596 H         1 685         0.0899
     42 H14        13.5753   45.6294   14.4635 H         1 685         0.2176
     43 H15        14.3310   43.5389   11.5298 H         1 685         0.0417
     44 H16        17.7982   43.6675    9.9117 H         1 685         0.0388
     45 H17        16.0990   43.6711    9.3293 H         1 685         0.0388
     46 H18        16.6723   42.3630   10.4188 H         1 685         0.0388
     47 H19        18.2591   45.1446   11.3356 H         1 685         0.0401
     48 H20        17.7581   47.2237   14.3454 H         1 685         0.0388
     49 H21        18.4416   47.4041   12.6941 H         1 685         0.0388
     50 H22        18.9839   46.0544   13.7482 H         1 685         0.0388
     51 H23        15.6353   46.3475   14.4079 H         1 685         0.0417
@<TRIPOS>BOND
     1    1    2 1  
     2    2    3 1  
     3    2    5 1  
     4    3    4 1  
     5    5    6 am 
     6    6    7 2  
     7    6    8 1  
     8    8    9 1  
     9    8   12 2  
    10    9   10 1  
    11   10   11 2  
    12   10   14 1  
    13   11   12 1  
    14   12   13 1  
    15   14   15 ar 
    16   14   28 ar 
    17   15   16 ar 
    18   16   17 ar 
    19   17   18 ar 
    20   18   19 1  
    21   18   28 ar 
    22   19   20 1  
    23   20   21 ar 
    24   20   27 ar 
    25   21   22 ar 
    26   22   23 1  
    27   22   24 ar 
    28   24   25 ar 
    29   25   26 1  
    30   25   27 ar 
    31    1   29 1  
    32    1   30 1  
    33    1   31 1  
    34    2   32 1  
    35    3   33 1  
    36    3   34 1  
    37    4   35 1  
    38    5   36 1  
    39   13   37 1  
    40   13   38 1  
    41   13   39 1  
    42   15   40 1  
    43   16   41 1  
    44   19   42 1  
    45   21   43 1  
    46   23   44 1  
    47   23   45 1  
    48   23   46 1  
    49   24   47 1  
    50   26   48 1  
    51   26   49 1  
    52   26   50 1  
    53   27   51 1  
@<TRIPOS>SUBSTRUCTURE
     1 685         1

