### 
### Created by X-TOOL on Mon Sep 10 21:12:58 2018
### 

@<TRIPOS>MOLECULE
3eml_ligand
   40    43     1     0     0
SMALL
GAST_HUCK


@<TRIPOS>ATOM
      1 C1        -10.9920   -8.7960   60.6170 C.ar      1 ZMA        -0.0687
      2 C2        -11.2410   -8.2970   61.8890 C.ar      1 ZMA        -0.0398
      3 C3        -11.9840   -7.1330   62.0450 C.ar      1 ZMA         0.0805
      4 O4        -12.2310   -6.6380   63.2860 O.3       1 ZMA        -0.3376
      5 C5        -12.4760   -6.4690   60.9280 C.ar      1 ZMA        -0.0398
      6 C6        -12.2300   -6.9690   59.6570 C.ar      1 ZMA        -0.0687
      7 C7        -11.4920   -8.1350   59.5010 C.ar      1 ZMA        -0.0517
      8 C8        -11.2080   -8.6770   58.1010 C.3       1 ZMA        -0.0032
      9 C9         -9.7460   -9.1040   58.0060 C.3       1 ZMA         0.0418
     10 N10        -9.4200   -9.5440   56.6440 N.pl3     1 ZMA        -0.2845
     11 C11        -8.9530   -8.5930   55.8420 C.2       1 ZMA         0.1654
     12 N12        -8.5850   -8.8570   54.5780 N.2       1 ZMA        -0.2506
     13 N13        -8.8330   -7.3590   56.3580 N.2       1 ZMA        -0.2113
     14 C14        -8.3650   -6.3420   55.6260 C.2       1 ZMA         0.2974
     15 N15        -8.2660   -5.1250   56.1560 N.pl3     1 ZMA        -0.2658
     16 N16        -7.9810   -6.5820   54.3090 N.pl3     1 ZMA        -0.0713
     17 N17        -7.5250   -5.8520   53.4280 N.2       1 ZMA        -0.1784
     18 C18        -8.1040   -7.8740   53.8000 C.2       1 ZMA         0.2149
     19 N19        -7.6760   -7.8290   52.5440 N.2       1 ZMA        -0.2964
     20 C20        -7.3130   -6.5650   52.3200 C.2       1 ZMA         0.1092
     21 C21        -6.8090   -6.0540   51.1310 C.2       1 ZMA         0.1370
     22 C22        -6.5540   -6.6880   49.9910 C.2       1 ZMA        -0.0528
     23 C23        -6.0810   -5.7960   49.1210 C.2       1 ZMA        -0.0595
     24 C24        -6.0340   -4.5980   49.7030 C.2       1 ZMA         0.0828
     25 O25        -6.4920   -4.7390   50.9840 O.3       1 ZMA        -0.2592
     26 H1        -10.4078   -9.7009   60.4945 H         1 ZMA         0.0530
     27 H2        -10.8559   -8.8153   62.7597 H         1 ZMA         0.0525
     28 H3        -12.7481   -5.8445   63.2121 H         1 ZMA         0.2458
     29 H4        -13.0527   -5.5592   61.0495 H         1 ZMA         0.0525
     30 H5        -12.6138   -6.4496   58.7864 H         1 ZMA         0.0530
     31 H6        -11.4097   -7.8927   57.3566 H         1 ZMA         0.0425
     32 H7        -11.8563   -9.5438   57.9052 H         1 ZMA         0.0425
     33 H8         -9.5661   -9.9334   58.7058 H         1 ZMA         0.0550
     34 H9         -9.1032   -8.2524   58.2736 H         1 ZMA         0.0550
     35 H10        -9.5441  -10.5180   56.3330 H         1 ZMA         0.1911
     36 H11        -8.5541   -4.9631   57.1316 H         1 ZMA         0.1953
     37 H12        -7.9013   -4.3451   55.5905 H         1 ZMA         0.1953
     38 H13        -6.7050   -7.7497   49.8012 H         1 ZMA         0.0394
     39 H14        -5.7805   -6.0119   48.0968 H         1 ZMA         0.0360
     40 H15        -5.6922   -3.6728   49.2414 H         1 ZMA         0.1013
@<TRIPOS>BOND
     1    1    2 ar 
     2    1    7 ar 
     3    2    3 ar 
     4    3    4 1  
     5    3    5 ar 
     6    5    6 ar 
     7    6    7 ar 
     8    7    8 1  
     9    8    9 1  
    10    9   10 1  
    11   10   11 1  
    12   11   12 2  
    13   11   13 1  
    14   12   18 1  
    15   13   14 2  
    16   14   15 1  
    17   14   16 1  
    18   16   17 1  
    19   16   18 1  
    20   17   20 2  
    21   18   19 2  
    22   19   20 1  
    23   20   21 1  
    24   21   22 2  
    25   21   25 1  
    26   22   23 1  
    27   23   24 2  
    28   24   25 1  
    29    1   26 1  
    30    2   27 1  
    31    4   28 1  
    32    5   29 1  
    33    6   30 1  
    34    8   31 1  
    35    8   32 1  
    36    9   33 1  
    37    9   34 1  
    38   10   35 1  
    39   15   36 1  
    40   15   37 1  
    41   22   38 1  
    42   23   39 1  
    43   24   40 1  
@<TRIPOS>SUBSTRUCTURE
     1 ZMA         1

