### 
### Created by X-TOOL on Mon Sep 10 21:12:59 2018
### 

@<TRIPOS>MOLECULE
3ens_ligand
   65    68     1     0     0
SMALL
GAST_HUCK


@<TRIPOS>ATOM
      1 C1          0.6170    8.1870   25.4980 C.1       1 ENS         0.0289
      2 C2          5.8680    5.3800   28.1720 C.ar      1 ENS        -0.0890
      3 C3          6.9920    5.2600   27.3440 C.ar      1 ENS        -0.0866
      4 C4          4.6010    5.6490   27.6210 C.ar      1 ENS        -0.0504
      5 C5          7.6980    5.3510   24.9320 C.2       1 ENS         0.0325
      6 C6          6.9700    5.5840   23.7740 C.2       1 ENS         0.0345
      7 C7          6.8030    5.4170   25.9730 C.ar      1 ENS        -0.0216
      8 C8          5.5770    5.6860   25.4230 C.ar      1 ENS         0.0944
      9 C9          4.4300    5.8120   26.2140 C.ar      1 ENS         0.0971
     10 C10         3.3450    9.6740   28.3840 C.2       1 ENS         0.2084
     11 C11         1.0930    7.0690   25.7310 C.2       1 ENS         0.1830
     12 C12         2.4350    7.0030   26.1770 C.2       1 ENS         0.2079
     13 C13         0.4360    5.9530   25.3090 C.2       1 ENS         0.2355
     14 C14         4.6520   12.7070   29.2470 C.2       1 ENS         0.2012
     15 C15         0.3930    9.2050   29.6210 C.3       1 ENS        -0.0468
     16 C16         0.9080   10.5180   30.2160 C.3       1 ENS        -0.0321
     17 C17         7.2730   15.0700   30.0530 C.3       1 ENS        -0.0307
     18 C18         6.9930   14.3830   31.3860 C.3       1 ENS        -0.0307
     19 C19         1.5170    8.2800   29.1320 C.3       1 ENS        -0.0103
     20 C20         1.7170   11.3370   29.2050 C.3       1 ENS         0.0365
     21 C21         6.1560   14.5910   29.1330 C.3       1 ENS         0.0340
     22 C22         6.3060   13.0800   30.9960 C.3       1 ENS         0.0340
     23 C23         2.3230    8.8490   27.9370 C.3       1 ENS         0.1398
     24 C24        -1.3510    4.8650   24.4670 C.3       1 ENS         0.0632
     25 C25         4.1220   11.4510   29.9040 C.3       1 ENS         0.1229
     26 N26         0.1150    9.4280   25.2900 N.1       1 ENS        -0.4066
     27 N27         5.6680    5.7920   24.0800 N.pl3     1 ENS        -0.2799
     28 N28         3.0750   10.8170   29.1000 N.am      1 ENS        -0.2524
     29 N29         5.6320   13.3960   29.7570 N.am      1 ENS        -0.2716
     30 N30         3.2300    6.1280   25.6340 N.pl3     1 ENS        -0.2231
     31 N31         2.9280    7.7200   27.2430 N.pl3     1 ENS        -0.2447
     32 O32         4.6300    9.2240   28.2990 O.2       1 ENS        -0.3940
     33 O33         1.0630    4.7390   25.3930 O.2       1 ENS        -0.3931
     34 O34         4.1220   13.0750   28.0580 O.2       1 ENS        -0.3946
     35 O35        -0.6890    6.0880   24.7320 O.3       1 ENS        -0.2903
     36 CL36        9.4200    5.0590   25.0540 Cl        1 ENS        -0.1071
     37 H1          5.9750    5.2649   29.2446 H         1 ENS         0.0486
     38 H2          7.9731    5.0525   27.7555 H         1 ENS         0.0434
     39 H3          3.7415    5.7337   28.2761 H         1 ENS         0.0442
     40 H4          7.3850    5.5975   22.7673 H         1 ENS         0.0944
     41 H5         -0.2615    9.4404   28.7688 H         1 ENS         0.0268
     42 H6         -0.1853    8.6749   30.3921 H         1 ENS         0.0268
     43 H7          1.5500   10.2875   31.0789 H         1 ENS         0.0285
     44 H8          0.0476   11.1171   30.5487 H         1 ENS         0.0285
     45 H9          8.2556   14.7699   29.6600 H         1 ENS         0.0285
     46 H10         7.2415   16.1638   30.1654 H         1 ENS         0.0285
     47 H11         6.3323   15.0004   32.0122 H         1 ENS         0.0285
     48 H12         7.9299   14.1837   31.9269 H         1 ENS         0.0285
     49 H13         1.0692    7.3237   28.8237 H         1 ENS         0.0314
     50 H14         2.2115    8.1073   29.9673 H         1 ENS         0.0314
     51 H15         1.7550   12.3855   29.5355 H         1 ENS         0.0524
     52 H16         1.2301   11.2803   28.2203 H         1 ENS         0.0524
     53 H17         6.5526   14.3610   28.1331 H         1 ENS         0.0522
     54 H18         5.3712   15.3572   29.0488 H         1 ENS         0.0522
     55 H19         5.5835   12.7732   31.7666 H         1 ENS         0.0522
     56 H20         7.0444   12.2786   30.8458 H         1 ENS         0.0522
     57 H21         1.6567    9.4071   27.2628 H         1 ENS         0.0825
     58 H22        -2.3109    5.0680   23.9696 H         1 ENS         0.0573
     59 H23        -1.5333    4.3342   25.4130 H         1 ENS         0.0573
     60 H24        -0.7233    4.2426   23.8124 H         1 ENS         0.0573
     61 H25         3.7059   11.7123   30.8882 H         1 ENS         0.0765
     62 H26         4.9511   10.7398   30.0335 H         1 ENS         0.0765
     63 H27         4.9015    5.9910   23.4214 H         1 ENS         0.2263
     64 H28         2.9532    5.6665   24.7558 H         1 ENS         0.2312
     65 H29         3.8469    7.4184   27.5973 H         1 ENS         0.2049
@<TRIPOS>BOND
     1   11    1 1  
     2    1   26 3  
     3    2    3 ar 
     4    4    2 ar 
     5    7    3 ar 
     6    9    4 ar 
     7    6    5 2  
     8    7    5 1  
     9    5   36 1  
    10   27    6 1  
    11    8    7 ar 
    12    9    8 ar 
    13    8   27 1  
    14   30    9 1  
    15   10   23 1  
    16   28   10 am 
    17   10   32 2  
    18   12   11 2  
    19   11   13 1  
    20   12   30 1  
    21   31   12 1  
    22   13   33 2  
    23   13   35 1  
    24   25   14 1  
    25   14   29 am 
    26   14   34 2  
    27   16   15 1  
    28   15   19 1  
    29   20   16 1  
    30   18   17 1  
    31   21   17 1  
    32   22   18 1  
    33   23   19 1  
    34   28   20 1  
    35   29   21 1  
    36   29   22 1  
    37   23   31 1  
    38   35   24 1  
    39   25   28 1  
    40    2   37 1  
    41    3   38 1  
    42    4   39 1  
    43    6   40 1  
    44   15   41 1  
    45   15   42 1  
    46   16   43 1  
    47   16   44 1  
    48   17   45 1  
    49   17   46 1  
    50   18   47 1  
    51   18   48 1  
    52   19   49 1  
    53   19   50 1  
    54   20   51 1  
    55   20   52 1  
    56   21   53 1  
    57   21   54 1  
    58   22   55 1  
    59   22   56 1  
    60   23   57 1  
    61   24   58 1  
    62   24   59 1  
    63   24   60 1  
    64   25   61 1  
    65   25   62 1  
    66   27   63 1  
    67   30   64 1  
    68   31   65 1  
@<TRIPOS>SUBSTRUCTURE
     1 ENS         1

