### 
### Created by X-TOOL on Mon Sep 10 21:12:58 2018
### 

@<TRIPOS>MOLECULE
3eoc_ligand
   50    53     1     0     0
SMALL
GAST_HUCK


@<TRIPOS>ATOM
      1 N1          0.0510   91.8050   30.5140 N.pl3     1 T2A        -0.1461
      2 C5          0.6360   91.9280   32.8490 C.2       1 T2A         0.0553
      3 C6          0.4750   91.2270   31.6810 C.2       1 T2A         0.1418
      4 C7          0.6800   89.9050   31.3650 C.2       1 T2A         0.0233
      5 C10        -0.4080   91.1640   28.0970 C.ar      1 T2A         0.0234
      6 C13        -1.0430   91.5730   25.4700 C.ar      1 T2A        -0.0631
      7 C15        -1.6450   91.6780   27.7820 C.ar      1 T2A        -0.0518
      8 C20        -0.6700   96.9130   28.5480 C.ar      1 T2A         0.1022
      9 C21        -1.5440   97.9240   28.8830 C.ar      1 T2A         0.1347
     10 C22        -2.0090   98.0210   30.1790 C.ar      1 T2A         0.1022
     11 N2         -0.2530   93.2240   30.5070 N.2       1 T2A        -0.1436
     12 C3         -0.0710   93.8260   31.6920 C.2       1 T2A         0.2163
     13 N4          0.3520   93.2350   32.8200 N.2       1 T2A        -0.2479
     14 N8          0.3580   89.7700   30.0290 N.2       1 T2A        -0.3107
     15 C9         -0.0260   90.9350   29.5040 C.2       1 T2A         0.1623
     16 C11         0.5120   90.8520   27.1190 C.ar      1 T2A        -0.0518
     17 C12         0.1940   91.0590   25.7960 C.ar      1 T2A        -0.0625
     18 C14        -1.9580   91.8800   26.4550 C.ar      1 T2A        -0.0625
     19 C16         1.1310   88.7590   32.1470 C.3       1 T2A        -0.0299
     20 N17        -0.3290   95.2020   31.8210 N.pl3     1 T2A        -0.2545
     21 C18        -0.7180   96.0940   30.8040 C.ar      1 T2A         0.0362
     22 C19        -0.2560   96.0090   29.5070 C.ar      1 T2A        -0.0293
     23 C23        -1.5920   97.1090   31.1270 C.ar      1 T2A        -0.0293
     24 O24        -2.8960   99.0400   30.5040 O.3       1 T2A        -0.3307
     25 C25        -2.7070   99.3690   31.8750 C.3       1 T2A         0.0562
     26 O26        -1.9560   98.8260   27.9150 O.3       1 T2A        -0.3370
     27 C27        -1.0530   99.9230   27.9700 C.3       1 T2A         0.0517
     28 O28        -0.2110   96.8350   27.2440 O.3       1 T2A        -0.3307
     29 C29         0.2610   95.5090   27.0460 C.3       1 T2A         0.0562
     30 H1          0.9801   91.4416   33.7605 H         1 T2A         0.1095
     31 H2         -1.2988   91.7374   24.4295 H         1 T2A         0.0606
     32 H3         -2.3586   91.9191   28.5615 H         1 T2A         0.0615
     33 H4          1.4799   90.4462   27.3902 H         1 T2A         0.0615
     34 H5          0.9095   90.8201   25.0175 H         1 T2A         0.0614
     35 H6         -2.9277   92.2820   26.1844 H         1 T2A         0.0614
     36 H7          1.1588   87.8657   31.5058 H         1 T2A         0.0368
     37 H8          0.4362   88.5890   32.9826 H         1 T2A         0.0368
     38 H9          2.1381   88.9582   32.5422 H         1 T2A         0.0368
     39 H10        -0.2214   95.6016   32.7642 H         1 T2A         0.2125
     40 H11         0.4403   95.2233   29.2371 H         1 T2A         0.0342
     41 H12        -1.9585   97.1926   32.1437 H         1 T2A         0.0342
     42 H13        -3.3996  100.1756   32.1574 H         1 T2A         0.0572
     43 H14        -1.6710   99.7036   32.0324 H         1 T2A         0.0572
     44 H15        -2.9043   98.4824   32.4954 H         1 T2A         0.0572
     45 H16        -1.3388  100.6713   27.2161 H         1 T2A         0.0564
     46 H17        -0.0321   99.5682   27.7657 H         1 T2A         0.0564
     47 H18        -1.0896  100.3783   28.9707 H         1 T2A         0.0564
     48 H19         0.6366   95.4033   26.0175 H         1 T2A         0.0572
     49 H20        -0.5623   94.7983   27.2106 H         1 T2A         0.0572
     50 H21         1.0741   95.2992   27.7566 H         1 T2A         0.0572
@<TRIPOS>BOND
     1    1    3 1  
     2   11    1 1  
     3    1   15 1  
     4    2    3 1  
     5   13    2 2  
     6    3    4 2  
     7    4   14 1  
     8    4   19 1  
     9    5    7 ar 
    10   15    5 1  
    11    5   16 ar 
    12   17    6 ar 
    13   18    6 ar 
    14    7   18 ar 
    15    8    9 ar 
    16   22    8 ar 
    17    8   28 1  
    18    9   10 ar 
    19    9   26 1  
    20   10   23 ar 
    21   10   24 1  
    22   12   11 2  
    23   12   13 1  
    24   20   12 1  
    25   15   14 2  
    26   16   17 ar 
    27   21   20 1  
    28   21   22 ar 
    29   21   23 ar 
    30   24   25 1  
    31   26   27 1  
    32   28   29 1  
    33    2   30 1  
    34    6   31 1  
    35    7   32 1  
    36   16   33 1  
    37   17   34 1  
    38   18   35 1  
    39   19   36 1  
    40   19   37 1  
    41   19   38 1  
    42   20   39 1  
    43   22   40 1  
    44   23   41 1  
    45   25   42 1  
    46   25   43 1  
    47   25   44 1  
    48   27   45 1  
    49   27   46 1  
    50   27   47 1  
    51   29   48 1  
    52   29   49 1  
    53   29   50 1  
@<TRIPOS>SUBSTRUCTURE
     1 T2A         1

