### 
### Created by X-TOOL on Mon Sep 10 21:13:00 2018
### 

@<TRIPOS>MOLECULE
3eos_ligand
   56    59     1     0     0
SMALL
GAST_HUCK


@<TRIPOS>ATOM
      1 C2         18.1690   17.3800   22.8140 C.2       1 PK2         0.2072
      2 O14        19.2470   17.7530   23.2210 O.2       1 PK2        -0.3875
      3 N3         17.1440   17.0090   23.5930 N.am      1 PK2        -0.2612
      4 C4         15.9580   16.6240   23.0610 C.cat     1 PK2         0.1758
      5 N15        14.9770   16.3890   23.9720 N.pl3     1 PK2        -0.3393
      6 N5         15.8200   16.4880   21.7920 N.pl3     1 PK2        -0.2634
      7 C6         16.7510   16.8250   20.8690 C.ar      1 PK2         0.1475
      8 C10        16.4890   16.6880   19.4910 C.ar      1 PK2         0.0887
      9 C18        15.1720   16.2230   18.8750 C.3       1 PK2         0.0637
     10 C19        15.3450   14.8200   18.2040 C.3       1 PK2        -0.0107
     11 N20        14.2740   14.6820   17.1460 N.4       1 PK2         0.2306
     12 C21        12.9590   14.4180   17.8070 C.3       1 PK2        -0.0304
     13 C22        11.7670   14.5320   16.8130 C.3       1 PK2        -0.0008
     14 C27        11.8790   15.8710   16.0240 C.3       1 PK2        -0.0454
     15 C26        10.7470   15.9060   14.9540 C.3       1 PK2        -0.0526
     16 C25         9.3620   15.8220   15.6440 C.3       1 PK2        -0.0530
     17 C24         9.2400   14.5530   16.5260 C.3       1 PK2        -0.0526
     18 C23        10.3950   14.5280   17.5720 C.3       1 PK2        -0.0454
     19 C9         17.5240   17.1240   18.6530 C.ar      1 PK2         0.1229
     20 N11        17.5590   17.2670   17.3110 N.2       1 PK2        -0.2121
     21 C12        18.6800   17.7430   16.9420 C.2       1 PK2         0.2754
     22 N16        19.0220   18.0980   15.6900 N.pl3     1 PK2        -0.2574
     23 C17        18.1860   17.9390   14.5130 C.3       1 PK2         0.0295
     24 N13        19.5060   17.9810   17.9980 N.pl3     1 PK2        -0.2051
     25 C8         18.7170   17.6220   19.1040 C.ar      1 PK2         0.1282
     26 C7         19.0560   17.6670   20.4660 C.ar      1 PK2         0.0141
     27 C1         18.0140   17.2480   21.3130 C.ar      1 PK2         0.1119
     28 H1         17.2560   17.0162   24.5867 H         1 PK2         0.1807
     29 H2         14.0423   16.0920   23.6573 H         1 PK2         0.1744
     30 H3         15.1683   16.5079   24.9771 H         1 PK2         0.1744
     31 H4         14.9328   16.0921   21.4499 H         1 PK2         0.2162
     32 H5         14.8513   16.9505   18.1148 H         1 PK2         0.0702
     33 H6         14.4078   16.1553   19.6633 H         1 PK2         0.0702
     34 H7         15.2311   14.0273   18.9581 H         1 PK2         0.0870
     35 H8         16.3403   14.7459   17.7415 H         1 PK2         0.0870
     36 H9         14.5028   13.9153   16.5330 H         1 PK2         0.2017
     37 H10        14.2170   15.5344   16.6111 H         1 PK2         0.2017
     38 H11        12.8163   15.1493   18.6162 H         1 PK2         0.0817
     39 H12        12.9723   13.4022   18.2288 H         1 PK2         0.0817
     40 H13        11.7992   13.6843   16.1128 H         1 PK2         0.0352
     41 H14        12.8598   15.9302   15.5295 H         1 PK2         0.0270
     42 H15        11.7645   16.7198   16.7142 H         1 PK2         0.0270
     43 H16        10.8656   15.0525   14.2703 H         1 PK2         0.0265
     44 H17        10.8135   16.8444   14.3840 H         1 PK2         0.0265
     45 H18         8.5793   15.7964   14.8716 H         1 PK2         0.0265
     46 H19         9.2239   16.7111   16.2768 H         1 PK2         0.0265
     47 H20         9.3034   13.6579   15.8898 H         1 PK2         0.0265
     48 H21         8.2726   14.5631   17.0495 H         1 PK2         0.0265
     49 H22        10.3276   15.4159   18.2179 H         1 PK2         0.0270
     50 H23        10.3161   13.6198   18.1876 H         1 PK2         0.0270
     51 H24        19.9532   18.5170   15.5552 H         1 PK2         0.2022
     52 H25        18.7220   18.3150   13.6291 H         1 PK2         0.0510
     53 H26        17.2538   18.5076   14.6458 H         1 PK2         0.0510
     54 H27        17.9491   16.8740   14.3726 H         1 PK2         0.0510
     55 H28        20.4725   18.3370   17.9885 H         1 PK2         0.2451
     56 H29        20.0244   17.9923   20.8286 H         1 PK2         0.0919
@<TRIPOS>BOND
     1    1    2 2  
     2    1    3 am 
     3    1   27 1  
     4    3    4 ar 
     5    4    5 ar 
     6    4    6 ar 
     7    6    7 1  
     8    7    8 ar 
     9    7   27 ar 
    10    8    9 1  
    11    8   19 ar 
    12    9   10 1  
    13   10   11 1  
    14   11   12 1  
    15   12   13 1  
    16   13   14 1  
    17   13   18 1  
    18   14   15 1  
    19   15   16 1  
    20   16   17 1  
    21   17   18 1  
    22   19   20 1  
    23   19   25 ar 
    24   20   21 2  
    25   21   22 1  
    26   21   24 1  
    27   22   23 1  
    28   24   25 1  
    29   25   26 ar 
    30   26   27 ar 
    31    3   28 1  
    32    5   29 1  
    33    5   30 1  
    34    6   31 1  
    35    9   32 1  
    36    9   33 1  
    37   10   34 1  
    38   10   35 1  
    39   11   36 1  
    40   11   37 1  
    41   12   38 1  
    42   12   39 1  
    43   13   40 1  
    44   14   41 1  
    45   14   42 1  
    46   15   43 1  
    47   15   44 1  
    48   16   45 1  
    49   16   46 1  
    50   17   47 1  
    51   17   48 1  
    52   18   49 1  
    53   18   50 1  
    54   22   51 1  
    55   23   52 1  
    56   23   53 1  
    57   23   54 1  
    58   24   55 1  
    59   26   56 1  
@<TRIPOS>SUBSTRUCTURE
     1 PK2         1

