### 
### Created by X-TOOL on Mon Sep 10 21:13:00 2018
### 

@<TRIPOS>MOLECULE
3eou_ligand
   35    37     1     0     0
SMALL
GAST_HUCK


@<TRIPOS>ATOM
      1 N6         17.4350   17.2730   17.1900 N.pl3     1 PK3        -0.1975
      2 C11        18.7470   17.7350   16.9230 C.2       1 PK3         0.2812
      3 N5         19.1750   17.9330   15.6550 N.pl3     1 PK3        -0.2505
      4 C12        18.1810   17.9520   14.5810 C.3       1 PK3         0.0333
      5 N4         19.4640   17.9620   18.0350 N.2       1 PK3        -0.2095
      6 C6         18.7130   17.6390   19.0890 C.ar      1 PK3         0.1026
      7 C7         17.4830   17.2240   18.6070 C.ar      1 PK3         0.1424
      8 C8         16.4410   16.8670   19.4740 C.ar      1 PK3         0.0803
      9 C9         15.1400   16.2910   18.8360 C.3       1 PK3         0.0254
     10 C3         16.7040   16.8480   20.8560 C.ar      1 PK3         0.1470
     11 N2         15.7570   16.5270   21.7740 N.pl3     1 PK3        -0.2460
     12 C4         15.9310   16.5810   23.1540 C.cat     1 PK3         0.1880
     13 N3         14.9620   16.2230   23.9160 N.pl3     1 PK3        -0.3360
     14 N1         17.1400   16.9710   23.6300 N.am      1 PK3        -0.2591
     15 C1         18.1460   17.3540   22.8230 C.2       1 PK3         0.2059
     16 O1         19.2250   17.7310   23.2310 O.2       1 PK3        -0.3908
     17 C2         17.9530   17.2900   21.3240 C.ar      1 PK3         0.1182
     18 C5         18.9710   17.7100   20.4570 C.ar      1 PK3         0.0077
     19 C10        15.3820   14.8130   18.3600 C.3       1 PK3         0.0575
     20 O2         14.4500   14.4410   17.3430 O.3       1 PK3        -0.3922
     21 H1         16.6682   17.0401   16.5429 H         1 PK3         0.2405
     22 H2         20.1756   18.0670   15.4505 H         1 PK3         0.2094
     23 H3         18.6849   18.1220   13.6181 H         1 PK3         0.0521
     24 H4         17.4584   18.7608   14.7644 H         1 PK3         0.0521
     25 H5         17.6527   16.9876   14.5532 H         1 PK3         0.0521
     26 H6         14.8534   16.9092   17.9725 H         1 PK3         0.0511
     27 H7         14.3315   16.3055   19.5818 H         1 PK3         0.0511
     28 H8         14.8389   16.2198   21.4223 H         1 PK3         0.2316
     29 H9         15.0724   16.2562   24.9395 H         1 PK3         0.1759
     30 H10        14.0741   15.9025   23.5039 H         1 PK3         0.1759
     31 H11        17.2892   16.9739   24.6188 H         1 PK3         0.1811
     32 H12        19.9194   18.0748   20.8345 H         1 PK3         0.0918
     33 H13        15.2660   14.1354   19.2187 H         1 PK3         0.0589
     34 H14        16.4032   14.7269   17.9603 H         1 PK3         0.0589
     35 H15        14.5487   15.0210   16.5971 H         1 PK3         0.2097
@<TRIPOS>BOND
     1    1    2 1  
     2    1    7 1  
     3    2    3 1  
     4    2    5 2  
     5    3    4 1  
     6    5    6 1  
     7    6    7 ar 
     8    6   18 ar 
     9    7    8 ar 
    10    8    9 1  
    11    8   10 ar 
    12    9   19 1  
    13   10   11 1  
    14   10   17 ar 
    15   11   12 ar 
    16   12   13 ar 
    17   12   14 ar 
    18   14   15 am 
    19   15   16 2  
    20   15   17 1  
    21   17   18 ar 
    22   19   20 1  
    23    1   21 1  
    24    3   22 1  
    25    4   23 1  
    26    4   24 1  
    27    4   25 1  
    28    9   26 1  
    29    9   27 1  
    30   11   28 1  
    31   13   29 1  
    32   13   30 1  
    33   14   31 1  
    34   18   32 1  
    35   19   33 1  
    36   19   34 1  
    37   20   35 1  
@<TRIPOS>SUBSTRUCTURE
     1 PK3         1

