### 
### Created by X-TOOL on Mon Sep 10 21:13:00 2018
### 

@<TRIPOS>MOLECULE
3eq7_ligand
   50    53     1     0     0
SMALL
GAST_HUCK


@<TRIPOS>ATOM
      1 C           6.7730   38.0210   30.6820 C.2       1 X99         0.1832
      2 O           7.4220   37.9140   29.6340 O.2       1 X99        -0.3966
      3 C1          7.3120   38.4360   31.8370 C.3       1 X99         0.0619
      4 C2          8.8310   38.6570   31.6840 C.3       1 X99         0.0731
      5 N3          9.4300   38.6310   33.0060 N.am      1 X99        -0.1821
      6 C4         10.0750   37.5800   33.5340 C.2       1 X99         0.2402
      7 C5          9.4400   39.6710   33.8730 C.2       1 X99         0.2402
      8 O6         10.2100   36.4820   33.0240 O.2       1 X99        -0.3670
      9 O7          8.9250   40.7770   33.7040 O.2       1 X99        -0.3670
     10 C8         10.5840   37.9410   34.9050 C.ar      1 X99         0.0732
     11 C9         11.3030   37.2120   35.8680 C.ar      1 X99        -0.0372
     12 C10        11.5910   37.8800   37.0730 C.ar      1 X99        -0.0523
     13 C11        11.1870   39.2140   37.2910 C.ar      1 X99        -0.0523
     14 C12        10.4700   39.9320   36.3180 C.ar      1 X99        -0.0372
     15 C13        10.1840   39.2610   35.1220 C.ar      1 X99         0.0732
     16 N           5.4300   38.0090   30.6830 N.am      1 X99        -0.2457
     17 CD          4.4830   38.4250   31.7310 C.3       1 X99         0.1001
     18 CA          4.7290   37.5720   29.4720 C.3       1 X99         0.1394
     19 CB          3.4990   36.8950   30.0170 C.3       1 X99         0.0534
     20 CG          3.2180   37.6310   31.3360 C.3       1 X99         0.2731
     21 C3          4.3800   38.7250   28.5430 C.2       1 X99         0.2045
     22 O1          4.7020   39.8830   28.8190 O.2       1 X99        -0.3943
     23 F1          2.9290   36.7290   32.3050 F         1 X99        -0.2032
     24 F2          2.1780   38.4810   31.1550 F         1 X99        -0.2032
     25 N1          3.6970   38.4260   27.4260 N.am      1 X99        -0.2713
     26 CD1         3.2220   37.0690   27.0980 C.3       1 X99         0.0340
     27 CA1         3.2880   39.4040   26.4210 C.3       1 X99         0.0340
     28 CB1         2.8400   38.5220   25.2540 C.3       1 X99        -0.0307
     29 CG1         2.3440   37.2880   25.9000 C.3       1 X99        -0.0307
     30 H1          7.1344   37.6756   32.6117 H         1 X99         0.0526
     31 H2          6.8382   39.3824   32.1367 H         1 X99         0.0526
     32 H3          9.0193   39.6313   31.2093 H         1 X99         0.0596
     33 H4          9.2628   37.8575   31.0641 H         1 X99         0.0596
     34 H5         11.6188   36.1900   35.6921 H         1 X99         0.0682
     35 H6         12.1356   37.3576   37.8512 H         1 X99         0.0662
     36 H7         11.4350   39.6961   38.2297 H         1 X99         0.0662
     37 H8         10.1538   40.9553   36.4851 H         1 X99         0.0682
     38 H9          4.3021   39.5096   31.7015 H         1 X99         0.0583
     39 H10         4.8402   38.1399   32.7315 H         1 X99         0.0583
     40 H11         5.3468   36.8520   28.9153 H         1 X99         0.0804
     41 H12         3.6895   35.8270   30.1990 H         1 X99         0.0371
     42 H13         2.6534   37.0034   29.3218 H         1 X99         0.0371
     43 H14         2.6487   36.6401   27.9330 H         1 X99         0.0522
     44 H15         4.0644   36.4056   26.8526 H         1 X99         0.0522
     45 H16         4.1301   40.0490   26.1298 H         1 X99         0.0522
     46 H17         2.4589   40.0267   26.7882 H         1 X99         0.0522
     47 H18         3.6854   38.2998   24.5862 H         1 X99         0.0285
     48 H19         2.0387   39.0111   24.6808 H         1 X99         0.0285
     49 H20         1.2965   37.4136   26.2112 H         1 X99         0.0285
     50 H21         2.4214   36.4364   25.2081 H         1 X99         0.0285
@<TRIPOS>BOND
     1    1    2 2  
     2    1    3 1  
     3    1   16 am 
     4    3    4 1  
     5    4    5 1  
     6    5    6 am 
     7    5    7 am 
     8    6    8 2  
     9    6   10 1  
    10    7    9 2  
    11    7   15 1  
    12   10   11 ar 
    13   10   15 ar 
    14   11   12 ar 
    15   12   13 ar 
    16   13   14 ar 
    17   14   15 ar 
    18   16   17 1  
    19   16   18 1  
    20   17   20 1  
    21   18   19 1  
    22   18   21 1  
    23   19   20 1  
    24   20   23 1  
    25   20   24 1  
    26   21   22 2  
    27   21   25 am 
    28   25   26 1  
    29   25   27 1  
    30   26   29 1  
    31   27   28 1  
    32   28   29 1  
    33    3   30 1  
    34    3   31 1  
    35    4   32 1  
    36    4   33 1  
    37   11   34 1  
    38   12   35 1  
    39   13   36 1  
    40   14   37 1  
    41   17   38 1  
    42   17   39 1  
    43   18   40 1  
    44   19   41 1  
    45   19   42 1  
    46   26   43 1  
    47   26   44 1  
    48   27   45 1  
    49   27   46 1  
    50   28   47 1  
    51   28   48 1  
    52   29   49 1  
    53   29   50 1  
@<TRIPOS>SUBSTRUCTURE
     1 X99         1

