### 
### Created by X-TOOL on Mon Sep 10 21:13:00 2018
### 

@<TRIPOS>MOLECULE
3eq8_ligand
   61    65     1     0     0
SMALL
GAST_HUCK


@<TRIPOS>ATOM
      1 C           6.6990   38.8090   30.8800 C.2       1 X98         0.1833
      2 O           7.4710   38.1050   30.2310 O.2       1 X98        -0.3966
      3 C1          7.1290   39.4130   32.2010 C.3       1 X98         0.0645
      4 C2          8.6530   39.4760   32.2360 C.3       1 X98         0.0774
      5 N3          9.2530   39.0130   33.4750 N.am      1 X98        -0.2049
      6 C4          9.3640   39.9400   34.5400 C.2       1 X98         0.2591
      7 C5         10.0010   39.4290   35.8200 C.2       1 X98         0.1376
      8 N6         10.4290   38.1910   35.9570 N.2       1 X98        -0.2720
      9 C7         10.3010   37.2990   34.8840 C.ar      1 X98         0.0692
     10 C8         10.7660   35.9640   35.0420 C.ar      1 X98        -0.0504
     11 C9         10.6560   35.0500   33.9990 C.ar      1 X98        -0.0723
     12 C10        10.0830   35.4270   32.7760 C.ar      1 X98        -0.0719
     13 C11         9.6160   36.7230   32.5810 C.ar      1 X98        -0.0331
     14 C12         9.7090   37.6900   33.6240 C.ar      1 X98         0.1022
     15 O13         8.9470   41.1090   34.3730 O.2       1 X98        -0.3784
     16 C14        10.1180   40.4160   36.9330 C.ar      1 X98         0.0196
     17 C15        10.1620   39.9720   38.2720 C.ar      1 X98        -0.0462
     18 C16        10.2780   40.9000   39.3160 C.ar      1 X98        -0.0569
     19 C17        10.3470   42.2790   39.0370 C.ar      1 X98        -0.0579
     20 C18        10.3020   42.7260   37.7110 C.ar      1 X98        -0.0569
     21 C19        10.1870   41.8040   36.6610 C.ar      1 X98        -0.0462
     22 N           5.3730   38.5970   30.8730 N.am      1 X98        -0.2517
     23 CA          4.7010   38.0220   29.7080 C.3       1 X98         0.1337
     24 C3          4.3080   39.0890   28.7020 C.2       1 X98         0.2043
     25 O1          4.3540   40.2840   28.9970 O.2       1 X98        -0.3943
     26 CB          3.4800   37.3120   30.3030 C.3       1 X98        -0.0104
     27 CG          3.3470   37.8380   31.7350 C.3       1 X98        -0.0281
     28 CD          4.4210   38.8690   31.9630 C.3       1 X98         0.0369
     29 N1          3.8950   38.6630   27.5010 N.am      1 X98        -0.2713
     30 CD1         3.4370   39.5180   26.3940 C.3       1 X98         0.0340
     31 CA1         3.8180   37.2440   27.1590 C.3       1 X98         0.0340
     32 CB1         2.7960   37.2330   26.0280 C.3       1 X98        -0.0307
     33 CG1         3.0340   38.5280   25.3310 C.3       1 X98        -0.0307
     34 H1          6.7651   38.7881   33.0299 H         1 X98         0.0529
     35 H2          6.7142   40.4272   32.2970 H         1 X98         0.0529
     36 H3          8.9561   40.5217   32.0788 H         1 X98         0.0632
     37 H4          9.0402   38.8546   31.4151 H         1 X98         0.0632
     38 H5         11.2094   35.6565   35.9822 H         1 X98         0.0599
     39 H6         11.0167   34.0366   34.1330 H         1 X98         0.0511
     40 H7         10.0031   34.7015   31.9745 H         1 X98         0.0594
     41 H8          9.1781   36.9994   31.6287 H         1 X98         0.0520
     42 H9         10.1060   38.9123   38.4932 H         1 X98         0.0661
     43 H10        10.3148   40.5549   40.3429 H         1 X98         0.0628
     44 H11        10.4348   42.9931   39.8478 H         1 X98         0.0649
     45 H12        10.3562   43.7870   37.4957 H         1 X98         0.0628
     46 H13        10.1507   42.1553   35.6361 H         1 X98         0.0661
     47 H14         5.3581   37.2940   29.2098 H         1 X98         0.0802
     48 H15         3.6351   36.2230   30.3080 H         1 X98         0.0313
     49 H16         2.5772   37.5512   29.7219 H         1 X98         0.0313
     50 H17         3.4696   37.0096   32.4482 H         1 X98         0.0287
     51 H18         2.3566   38.2964   31.8722 H         1 X98         0.0287
     52 H19         4.0138   39.8881   31.8880 H         1 X98         0.0524
     53 H20         4.8959   38.7352   32.9461 H         1 X98         0.0524
     54 H21         4.2488   40.1692   26.0378 H         1 X98         0.0522
     55 H22         2.5802   40.1353   26.7020 H         1 X98         0.0522
     56 H23         3.4703   36.6470   28.0149 H         1 X98         0.0522
     57 H24         4.7923   36.8636   26.8182 H         1 X98         0.0522
     58 H25         1.7712   37.1826   26.4246 H         1 X98         0.0285
     59 H26         2.9690   36.3842   25.3501 H         1 X98         0.0285
     60 H27         3.8388   38.4181   24.5892 H         1 X98         0.0285
     61 H28         2.1150   38.8634   24.8280 H         1 X98         0.0285
@<TRIPOS>BOND
     1    1    2 2  
     2    1    3 1  
     3    1   22 am 
     4    3    4 1  
     5    4    5 1  
     6    5    6 am 
     7    5   14 1  
     8    6    7 1  
     9    6   15 2  
    10    7    8 2  
    11    7   16 1  
    12    8    9 1  
    13    9   10 ar 
    14    9   14 ar 
    15   10   11 ar 
    16   11   12 ar 
    17   12   13 ar 
    18   13   14 ar 
    19   16   17 ar 
    20   16   21 ar 
    21   17   18 ar 
    22   18   19 ar 
    23   19   20 ar 
    24   20   21 ar 
    25   22   23 1  
    26   22   28 1  
    27   23   24 1  
    28   23   26 1  
    29   24   25 2  
    30   24   29 am 
    31   26   27 1  
    32   27   28 1  
    33   29   30 1  
    34   29   31 1  
    35   30   33 1  
    36   31   32 1  
    37   32   33 1  
    38    3   34 1  
    39    3   35 1  
    40    4   36 1  
    41    4   37 1  
    42   10   38 1  
    43   11   39 1  
    44   12   40 1  
    45   13   41 1  
    46   17   42 1  
    47   18   43 1  
    48   19   44 1  
    49   20   45 1  
    50   21   46 1  
    51   23   47 1  
    52   26   48 1  
    53   26   49 1  
    54   27   50 1  
    55   27   51 1  
    56   28   52 1  
    57   28   53 1  
    58   30   54 1  
    59   30   55 1  
    60   31   56 1  
    61   31   57 1  
    62   32   58 1  
    63   32   59 1  
    64   33   60 1  
    65   33   61 1  
@<TRIPOS>SUBSTRUCTURE
     1 X98         1

