### 
### Created by X-TOOL on Mon Sep 10 21:13:00 2018
### 

@<TRIPOS>MOLECULE
3eq9_ligand
   68    72     1     0     0
SMALL
GAST_HUCK


@<TRIPOS>ATOM
      1 C           6.7440   38.1680   30.7220 C.2       1 X97         0.1808
      2 O           7.1820   38.0560   29.5730 O.2       1 X97        -0.3967
      3 C1          7.6940   38.2630   31.8950 C.3       1 X97         0.0397
      4 C2          9.0810   38.5680   31.3660 C.3       1 X97        -0.0113
      5 C3         10.1520   38.6190   32.4500 C.3       1 X97         0.0601
      6 N4         10.1560   37.5050   33.3370 N.am      1 X97        -0.1813
      7 C5         10.6020   36.1990   32.9980 C.2       1 X97         0.2776
      8 N6         10.4010   35.3480   34.0980 N.am      1 X97        -0.2999
      9 C7          9.7930   36.0700   35.2320 C.3       1 X97         0.1341
     10 C8          9.6680   37.5380   34.6350 C.2       1 X97         0.2021
     11 O9         11.0640   35.8510   31.9010 O.2       1 X97        -0.3921
     12 O10         9.2620   38.5580   35.1950 O.2       1 X97        -0.3639
     13 C11         8.4160   35.4860   35.5500 C.ar      1 X97        -0.0369
     14 C12         8.2880   34.1110   35.8350 C.ar      1 X97        -0.0476
     15 C13         7.0280   33.5530   36.0790 C.ar      1 X97        -0.0391
     16 C14         5.8820   34.3580   36.0430 C.ar      1 X97        -0.0398
     17 C15         5.9990   35.7250   35.7640 C.ar      1 X97        -0.0391
     18 C16         7.2580   36.2900   35.5190 C.ar      1 X97        -0.0476
     19 C17        10.6540   36.0640   36.4920 C.ar      1 X97        -0.0369
     20 C18        11.9640   35.5490   36.4560 C.ar      1 X97        -0.0476
     21 C19        12.7500   35.5340   37.6160 C.ar      1 X97        -0.0391
     22 C20        12.2400   36.0300   38.8210 C.ar      1 X97        -0.0398
     23 C21        10.9370   36.5450   38.8630 C.ar      1 X97        -0.0391
     24 C22        10.1450   36.5630   37.7070 C.ar      1 X97        -0.0476
     25 N           5.4360   38.0270   31.0040 N.am      1 X97        -0.2517
     26 CA          4.4110   37.7760   29.9780 C.3       1 X97         0.1337
     27 C4          4.2940   38.9110   28.9610 C.2       1 X97         0.2043
     28 O1          4.5910   40.0650   29.2680 O.2       1 X97        -0.3943
     29 CB          3.1210   37.5880   30.7850 C.3       1 X97        -0.0104
     30 CG          3.3940   38.2390   32.1010 C.3       1 X97        -0.0281
     31 CD          4.8590   38.0860   32.3590 C.3       1 X97         0.0369
     32 N1          3.8410   38.6000   27.7360 N.am      1 X97        -0.2713
     33 CD1         3.7540   39.6040   26.6560 C.3       1 X97         0.0340
     34 CA1         3.4400   37.2680   27.2730 C.3       1 X97         0.0340
     35 CB1         2.8640   37.5470   25.8790 C.3       1 X97        -0.0307
     36 CG1         3.5880   38.7670   25.4150 C.3       1 X97        -0.0307
     37 H1          7.7066   37.3080   32.4407 H         1 X97         0.0503
     38 H2          7.3695   39.0676   32.5713 H         1 X97         0.0503
     39 H3          9.0528   39.5440   30.8594 H         1 X97         0.0313
     40 H4          9.3563   37.7869   30.6421 H         1 X97         0.0313
     41 H5          9.9934   39.5302   33.0455 H         1 X97         0.0576
     42 H6         11.1347   38.6687   31.9583 H         1 X97         0.0576
     43 H7         10.6396   34.3770   34.1106 H         1 X97         0.1674
     44 H8          9.1707   33.4825   35.8653 H         1 X97         0.0794
     45 H9          6.9385   32.4948   36.2965 H         1 X97         0.0681
     46 H10         4.9068   33.9234   36.2307 H         1 X97         0.0806
     47 H11         5.1127   36.3486   35.7374 H         1 X97         0.0681
     48 H12         7.3419   37.3493   35.3048 H         1 X97         0.0794
     49 H13        12.3663   35.1623   35.5267 H         1 X97         0.0794
     50 H14        13.7578   35.1363   37.5797 H         1 X97         0.0681
     51 H15        12.8494   36.0160   39.7174 H         1 X97         0.0806
     52 H16        10.5398   36.9314   39.7947 H         1 X97         0.0681
     53 H17         9.1379   36.9620   37.7479 H         1 X97         0.0794
     54 H18         4.6499   36.8511   29.4327 H         1 X97         0.0802
     55 H19         2.9012   36.5187   30.9202 H         1 X97         0.0313
     56 H20         2.2739   38.0755   30.2802 H         1 X97         0.0313
     57 H21         2.8154   37.7454   32.8957 H         1 X97         0.0287
     58 H22         3.1254   39.3049   32.0599 H         1 X97         0.0287
     59 H23         5.2529   38.9475   32.9182 H         1 X97         0.0524
     60 H24         5.0666   37.1608   32.9166 H         1 X97         0.0524
     61 H25         4.6724   40.2071   26.6041 H         1 X97         0.0522
     62 H26         2.8881   40.2663   26.8029 H         1 X97         0.0522
     63 H27         2.6780   36.8318   27.9356 H         1 X97         0.0522
     64 H28         4.3059   36.5922   27.2150 H         1 X97         0.0522
     65 H29         1.7816   37.7348   25.9356 H         1 X97         0.0285
     66 H30         3.0545   36.7007   25.2027 H         1 X97         0.0285
     67 H31         4.5679   38.5000   24.9925 H         1 X97         0.0285
     68 H32         2.9972   39.3055   24.6594 H         1 X97         0.0285
@<TRIPOS>BOND
     1    1    2 2  
     2    1    3 1  
     3    1   25 am 
     4    3    4 1  
     5    4    5 1  
     6    5    6 1  
     7    6    7 am 
     8    6   10 am 
     9    7    8 am 
    10    7   11 2  
    11    8    9 1  
    12    9   10 1  
    13    9   13 1  
    14    9   19 1  
    15   10   12 2  
    16   13   14 ar 
    17   13   18 ar 
    18   14   15 ar 
    19   15   16 ar 
    20   16   17 ar 
    21   17   18 ar 
    22   19   20 ar 
    23   19   24 ar 
    24   20   21 ar 
    25   21   22 ar 
    26   22   23 ar 
    27   23   24 ar 
    28   25   26 1  
    29   25   31 1  
    30   26   27 1  
    31   26   29 1  
    32   27   28 2  
    33   27   32 am 
    34   29   30 1  
    35   30   31 1  
    36   32   33 1  
    37   32   34 1  
    38   33   36 1  
    39   34   35 1  
    40   35   36 1  
    41    3   37 1  
    42    3   38 1  
    43    4   39 1  
    44    4   40 1  
    45    5   41 1  
    46    5   42 1  
    47    8   43 1  
    48   14   44 1  
    49   15   45 1  
    50   16   46 1  
    51   17   47 1  
    52   18   48 1  
    53   20   49 1  
    54   21   50 1  
    55   22   51 1  
    56   23   52 1  
    57   24   53 1  
    58   26   54 1  
    59   29   55 1  
    60   29   56 1  
    61   30   57 1  
    62   30   58 1  
    63   31   59 1  
    64   31   60 1  
    65   33   61 1  
    66   33   62 1  
    67   34   63 1  
    68   34   64 1  
    69   35   65 1  
    70   35   66 1  
    71   36   67 1  
    72   36   68 1  
@<TRIPOS>SUBSTRUCTURE
     1 X97         1

