### 
### Created by X-TOOL on Mon Sep 10 21:12:58 2018
### 

@<TRIPOS>MOLECULE
3eqb_ligand
   40    42     1     0     0
SMALL
GAST_HUCK


@<TRIPOS>ATOM
      1 F2         35.9040  -15.7180    3.6950 F         1 LUG        -0.1853
      2 C11        37.0020  -14.9950    4.0150 C.ar      1 LUG         0.1586
      3 C12        37.8700  -15.2550    5.1160 C.ar      1 LUG         0.1896
      4 F1         37.7010  -16.2700    5.9800 F         1 LUG        -0.1919
      5 C10        37.2280  -13.9380    3.1530 C.ar      1 LUG        -0.0383
      6 C9         38.3200  -13.1370    3.4060 C.ar      1 LUG        -0.0610
      7 C8         39.1640  -13.4240    4.4680 C.ar      1 LUG         0.0574
      8 C13        40.2750  -12.5090    4.7050 C.2       1 LUG         0.2033
      9 N2         40.9080  -12.3960    5.8920 N.2       1 LUG        -0.2680
     10 N3         41.8620  -11.3920    5.7590 N.2       1 LUG        -0.2523
     11 C14        41.7080  -10.9520    4.4940 C.2       1 LUG         0.2872
     12 N4         42.5090   -9.8560    3.9330 N.pl3     1 LUG        -0.2622
     13 C15        42.3050   -8.6260    4.7260 C.3       1 LUG         0.0732
     14 C16        41.7730   -7.5550    3.7970 C.3       1 LUG        -0.0144
     15 N5         42.3730   -6.2500    4.2050 N.4       1 LUG         0.2200
     16 O1         40.7360  -11.5990    3.8010 O.3       1 LUG        -0.1764
     17 C7         38.9820  -14.4640    5.3440 C.ar      1 LUG         0.1093
     18 N1         39.9180  -14.5990    6.4290 N.pl3     1 LUG        -0.2706
     19 C3         40.6290  -15.8040    6.7030 C.ar      1 LUG         0.0960
     20 C4         40.3640  -16.9960    6.0420 C.ar      1 LUG        -0.0381
     21 C5         41.0840  -18.1490    6.3640 C.ar      1 LUG        -0.0653
     22 C6         42.0760  -18.1540    7.3560 C.ar      1 LUG        -0.0049
     23 I1         43.1540  -19.9140    7.8320 I         1 LUG        -0.0608
     24 C1         42.3430  -16.9680    8.0190 C.ar      1 LUG        -0.0274
     25 C2         41.6230  -15.8120    7.6990 C.ar      1 LUG         0.1561
     26 F3         41.9210  -14.6850    8.3860 F         1 LUG        -0.1905
     27 H1         36.5720  -13.7470    2.3114 H         1 LUG         0.0504
     28 H2         38.5199  -12.2800    2.7730 H         1 LUG         0.0569
     29 H3         43.1221   -9.9334    3.1089 H         1 LUG         0.1891
     30 H4         43.2605   -8.3004    5.1630 H         1 LUG         0.0577
     31 H5         41.5797   -8.8163    5.5308 H         1 LUG         0.0577
     32 H6         40.6771   -7.5029    3.8763 H         1 LUG         0.0833
     33 H7         42.0550   -7.7872    2.7594 H         1 LUG         0.0833
     34 H8         42.0327   -5.5197    3.5992 H         1 LUG         0.1995
     35 H9         43.3770   -6.3049    4.1339 H         1 LUG         0.1995
     36 H10        42.1143   -6.0443    5.1573 H         1 LUG         0.1995
     37 H11        40.0823  -13.7846    7.0378 H         1 LUG         0.2095
     38 H12        39.5981  -17.0319    5.2758 H         1 LUG         0.0524
     39 H13        40.8696  -19.0682    5.8309 H         1 LUG         0.0579
     40 H14        43.1091  -16.9353    8.7852 H         1 LUG         0.0598
@<TRIPOS>BOND
     1    1    2 1  
     2    2    3 ar 
     3    2    5 ar 
     4    3    4 1  
     5    3   17 ar 
     6    5    6 ar 
     7    6    7 ar 
     8    7    8 1  
     9    7   17 ar 
    10    8    9 2  
    11    8   16 1  
    12    9   10 1  
    13   10   11 2  
    14   11   12 1  
    15   11   16 1  
    16   12   13 1  
    17   13   14 1  
    18   14   15 1  
    19   17   18 1  
    20   18   19 1  
    21   19   20 ar 
    22   19   25 ar 
    23   20   21 ar 
    24   21   22 ar 
    25   22   23 1  
    26   22   24 ar 
    27   24   25 ar 
    28   25   26 1  
    29    5   27 1  
    30    6   28 1  
    31   12   29 1  
    32   13   30 1  
    33   13   31 1  
    34   14   32 1  
    35   14   33 1  
    36   15   34 1  
    37   15   35 1  
    38   15   36 1  
    39   18   37 1  
    40   20   38 1  
    41   21   39 1  
    42   24   40 1  
@<TRIPOS>SUBSTRUCTURE
     1 LUG         1

