### 
### Created by X-TOOL on Mon Sep 10 21:12:59 2018
### 

@<TRIPOS>MOLECULE
3eql_ligand
   63    63     1     0     0
SMALL
GAST_HUCK


@<TRIPOS>ATOM
      1 O1        -11.7150   57.2370    2.8410 O.3       1 MXP        -0.2670
      2 C1         -9.3460   57.7160    2.5350 C.2       1 MXP        -0.0503
      3 N1         -7.3060   53.7010    7.9880 N.2       1 MXP        -0.2279
      4 C2         -9.6250   59.0970    2.5600 C.2       1 MXP         0.0902
      5 C3        -10.9860   59.5820    2.6870 C.3       1 MXP         0.1806
      6 O2         -8.5780   59.9970    2.4230 O.3       1 MXP        -0.3386
      7 C4        -12.0130   58.6080    2.8140 C.2       1 MXP         0.2683
      8 C5        -10.3740   56.7680    2.6860 C.3       1 MXP         0.0922
      9 C6        -11.1580   61.1640    2.6710 C.2       1 MXP         0.1452
     10 C7        -11.8490   61.5950    3.9670 C.2       1 MXP        -0.0114
     11 O3        -13.1700   58.9770    2.8840 O.2       1 MXP        -0.3636
     12 C8        -11.0480   61.2920    5.0980 C.2       1 MXP        -0.0814
     13 C9        -11.6660   61.6930    6.4710 C.2       1 MXP        -0.0767
     14 C10       -11.0670   61.1540    7.6190 C.2       1 MXP        -0.0520
     15 C11       -11.5500   61.4720    9.0060 C.3       1 MXP        -0.0102
     16 C12       -11.3110   62.8610    9.5820 C.3       1 MXP        -0.0391
     17 C13       -12.4710   63.8290    9.3920 C.3       1 MXP        -0.0533
     18 C14       -12.3960   65.2650    9.8880 C.3       1 MXP        -0.0651
     19 C15       -13.1920   62.2830    4.0150 C.3       1 MXP        -0.0366
     20 C16        -9.8870   60.1750    7.5260 C.3       1 MXP        -0.0218
     21 C17       -10.1100   55.2510    2.6670 C.3       1 MXP        -0.0203
     22 C18        -8.9150   54.9100    3.5740 C.3       1 MXP        -0.0463
     23 C19        -9.3000   54.6100    5.0250 C.3       1 MXP        -0.0332
     24 C20        -8.0460   54.2970    5.8130 C.3       1 MXP         0.0136
     25 C21        -8.3010   54.0080    7.1340 C.2       1 MXP         0.0262
     26 C22        -7.4860   53.4010    9.2840 C.2       1 MXP         0.3042
     27 C23        -6.4000   52.7840   11.2550 C.3       1 MXP         0.0654
     28 O4        -10.7510   61.6980    1.6530 O.2       1 MXP        -0.3896
     29 O5         -6.4110   53.1310    9.9220 O.3       1 MXP        -0.2748
     30 O6         -8.6720   53.4040    9.7940 O.2       1 MXP        -0.3561
     31 H1         -8.3200   57.3780    2.3968 H         1 MXP         0.0189
     32 H2        -11.1262   59.5653    1.5961 H         1 MXP         0.0935
     33 H3         -8.7106   60.5186    1.6401 H         1 MXP         0.2469
     34 H4        -10.2273   56.7795    3.7761 H         1 MXP         0.0700
     35 H5        -10.0730   60.8143    5.0129 H         1 MXP         0.0523
     36 H6        -12.5236   62.3610    6.5363 H         1 MXP         0.0297
     37 H7        -11.0654   60.7558    9.6858 H         1 MXP         0.0497
     38 H8        -12.6373   61.3056    9.0124 H         1 MXP         0.0497
     39 H9        -10.4230   63.2881    9.0931 H         1 MXP         0.0296
     40 H10       -11.1219   62.7583   10.6607 H         1 MXP         0.0296
     41 H11       -13.3401   63.3737    9.8894 H         1 MXP         0.0265
     42 H12       -12.6555   63.8839    8.3090 H         1 MXP         0.0265
     43 H13       -13.3354   65.7850    9.6489 H         1 MXP         0.0230
     44 H14       -11.5570   65.7793    9.3966 H         1 MXP         0.0230
     45 H15       -12.2415   65.2692   10.9771 H         1 MXP         0.0230
     46 H16       -13.5863   62.3891    2.9936 H         1 MXP         0.0351
     47 H17       -13.0781   63.2783    4.4693 H         1 MXP         0.0351
     48 H18       -13.8902   61.6829    4.6170 H         1 MXP         0.0351
     49 H19        -9.6224   60.0190    6.4698 H         1 MXP         0.0461
     50 H20       -10.1716   59.2136    7.9785 H         1 MXP         0.0461
     51 H21        -9.0220   60.5913    8.0630 H         1 MXP         0.0461
     52 H22        -9.8874   54.9335    1.6376 H         1 MXP         0.0305
     53 H23       -11.0038   54.7217    3.0289 H         1 MXP         0.0305
     54 H24        -8.2225   55.7646    3.5696 H         1 MXP         0.0270
     55 H25        -8.4084   54.0254    3.1607 H         1 MXP         0.0270
     56 H26        -9.9797   53.7457    5.0551 H         1 MXP         0.0304
     57 H27        -9.8012   55.4861    5.4623 H         1 MXP         0.0304
     58 H28        -7.3764   55.1685    5.7675 H         1 MXP         0.0571
     59 H29        -7.5503   53.4292    5.3534 H         1 MXP         0.0571
     60 H30        -9.3279   54.0279    7.4960 H         1 MXP         0.1312
     61 H31        -5.3646   52.5998   11.5774 H         1 MXP         0.0575
     62 H32        -6.9974   51.8720   11.4015 H         1 MXP         0.0575
     63 H33        -6.8292   53.6031   11.8507 H         1 MXP         0.0575
@<TRIPOS>BOND
     1    1    7 1  
     2    8    1 1  
     3    2    4 2  
     4    8    2 1  
     5   25    3 2  
     6    3   26 1  
     7    4    5 1  
     8    4    6 1  
     9    7    5 1  
    10    5    9 1  
    11    7   11 2  
    12   21    8 1  
    13    9   10 1  
    14    9   28 2  
    15   10   12 2  
    16   10   19 1  
    17   12   13 1  
    18   13   14 2  
    19   14   15 1  
    20   14   20 1  
    21   15   16 1  
    22   16   17 1  
    23   17   18 1  
    24   22   21 1  
    25   23   22 1  
    26   24   23 1  
    27   24   25 1  
    28   26   29 1  
    29   26   30 2  
    30   29   27 1  
    31    2   31 1  
    32    5   32 1  
    33    6   33 1  
    34    8   34 1  
    35   12   35 1  
    36   13   36 1  
    37   15   37 1  
    38   15   38 1  
    39   16   39 1  
    40   16   40 1  
    41   17   41 1  
    42   17   42 1  
    43   18   43 1  
    44   18   44 1  
    45   18   45 1  
    46   19   46 1  
    47   19   47 1  
    48   19   48 1  
    49   20   49 1  
    50   20   50 1  
    51   20   51 1  
    52   21   52 1  
    53   21   53 1  
    54   22   54 1  
    55   22   55 1  
    56   23   56 1  
    57   23   57 1  
    58   24   58 1  
    59   24   59 1  
    60   25   60 1  
    61   27   61 1  
    62   27   62 1  
    63   27   63 1  
@<TRIPOS>SUBSTRUCTURE
     1 MXP         1

