### 
### Created by X-TOOL on Mon Sep 10 21:12:47 2018
### 

@<TRIPOS>MOLECULE
3erd_ligand
   40    41     1     0     0
SMALL
GAST_HUCK


@<TRIPOS>ATOM
      1 CP9         5.3970   -3.0840   -6.1700 C.3       1 DES        -0.0577
      2 CP8         5.8180   -2.0660   -5.1530 C.3       1 DES        -0.0303
      3 CP7         5.0590   -0.7450   -5.2310 C.2       1 DES        -0.0489
      4 CP6         3.5590   -0.8980   -5.0640 C.ar      1 DES        -0.0394
      5 CP1         2.9720   -0.9970   -3.7920 C.ar      1 DES        -0.0661
      6 CP2         1.5760   -1.1710   -3.6570 C.ar      1 DES        -0.0346
      7 CP3         0.7810   -1.2440   -4.8000 C.ar      1 DES         0.0867
      8 OP3        -0.5870   -1.4440   -4.7290 O.3       1 DES        -0.3336
      9 CP4         1.3510   -1.1440   -6.0710 C.ar      1 DES        -0.0346
     10 CP5         2.7290   -0.9730   -6.1850 C.ar      1 DES        -0.0661
     11 C7          5.6330    0.4260   -5.4430 C.2       1 DES        -0.0489
     12 C6          7.1080    0.5490   -5.8150 C.ar      1 DES        -0.0394
     13 C5          7.5360    0.3040   -7.1250 C.ar      1 DES        -0.0661
     14 C4          8.8860    0.4380   -7.4820 C.ar      1 DES        -0.0346
     15 C3          9.8190    0.8170   -6.5220 C.ar      1 DES         0.0867
     16 O3         11.1610    0.9440   -6.8290 O.3       1 DES        -0.3336
     17 C2          9.4220    1.0690   -5.2040 C.ar      1 DES        -0.0346
     18 C1          8.0630    0.9280   -4.8680 C.ar      1 DES        -0.0661
     19 C8          4.8990    1.7680   -5.4010 C.3       1 DES        -0.0303
     20 C9          4.9700    2.4780   -4.0720 C.3       1 DES        -0.0577
     21 H1          5.9931   -3.9994   -6.0409 H         1 DES         0.0249
     22 H2          5.5582   -2.6810   -7.1807 H         1 DES         0.0249
     23 H3          4.3309   -3.3185   -6.0345 H         1 DES         0.0249
     24 H4          6.8881   -1.8568   -5.2983 H         1 DES         0.0395
     25 H5          5.6607   -2.4943   -4.1521 H         1 DES         0.0395
     26 H6          3.5947   -0.9395   -2.9066 H         1 DES         0.0571
     27 H7          1.1272   -1.2471   -2.6732 H         1 DES         0.0542
     28 H8         -0.9845   -0.7347   -4.2376 H         1 DES         0.2483
     29 H9          0.7294   -1.1987   -6.9574 H         1 DES         0.0542
     30 H10         3.1698   -0.8959   -7.1723 H         1 DES         0.0571
     31 H11         6.8128    0.0060   -7.8755 H         1 DES         0.0571
     32 H12         9.2009    0.2471   -8.5015 H         1 DES         0.0542
     33 H13        11.4943    0.1098   -7.1381 H         1 DES         0.2483
     34 H14        10.1478    1.3672   -4.4561 H         1 DES         0.0542
     35 H15         7.7487    1.1183   -3.8482 H         1 DES         0.0571
     36 H16         3.8401    1.5881   -5.6383 H         1 DES         0.0395
     37 H17         5.3397    2.4248   -6.1654 H         1 DES         0.0395
     38 H18         4.4184    3.4277   -4.1338 H         1 DES         0.0249
     39 H19         6.0215    2.6804   -3.8201 H         1 DES         0.0249
     40 H20         4.5219    1.8437   -3.2930 H         1 DES         0.0249
@<TRIPOS>BOND
     1    1    2 1  
     2    2    3 1  
     3    3    4 1  
     4    3   11 2  
     5    4    5 ar 
     6    4   10 ar 
     7    5    6 ar 
     8    6    7 ar 
     9    7    8 1  
    10    7    9 ar 
    11    9   10 ar 
    12   11   12 1  
    13   11   19 1  
    14   12   13 ar 
    15   12   18 ar 
    16   13   14 ar 
    17   14   15 ar 
    18   15   16 1  
    19   15   17 ar 
    20   17   18 ar 
    21   19   20 1  
    22    1   21 1  
    23    1   22 1  
    24    1   23 1  
    25    2   24 1  
    26    2   25 1  
    27    5   26 1  
    28    6   27 1  
    29    8   28 1  
    30    9   29 1  
    31   10   30 1  
    32   13   31 1  
    33   14   32 1  
    34   16   33 1  
    35   17   34 1  
    36   18   35 1  
    37   19   36 1  
    38   19   37 1  
    39   20   38 1  
    40   20   39 1  
    41   20   40 1  
@<TRIPOS>SUBSTRUCTURE
     1 DES         1

