### 
### Created by X-TOOL on Mon Sep 10 21:12:47 2018
### 

@<TRIPOS>MOLECULE
3erk_ligand
   45    48     1     0     0
SMALL
GAST_HUCK


@<TRIPOS>ATOM
      1 CA1       -12.9880   14.7970   44.3980 C.3       1 SB4         0.0186
      2 CA2       -13.2530   15.1750   45.8760 C.3       1 SB4        -0.0308
      3 NA3       -13.0720   16.6510   46.1480 N.4       1 SB4         0.2271
      4 CA4       -13.7500   17.6150   45.1990 C.3       1 SB4        -0.0308
      5 CA5       -13.5720   17.2100   43.7000 C.3       1 SB4         0.0186
      6 CA6       -13.8090   15.6920   43.4140 C.3       1 SB4         0.0804
      7 CB1       -14.5360   13.2100   37.9750 C.ar      1 SB4        -0.0583
      8 CB2       -14.5580   12.3140   36.8780 C.ar      1 SB4        -0.0294
      9 CB3       -13.3690   11.6650   36.4790 C.ar      1 SB4         0.1310
     10 CB4       -12.1630   11.9040   37.1590 C.ar      1 SB4        -0.0294
     11 CB5       -12.1350   12.7950   38.2530 C.ar      1 SB4        -0.0583
     12 CB6       -13.3220   13.4750   38.6950 C.ar      1 SB4        -0.0208
     13 FB7       -13.3820   10.8070   35.4380 F         1 SB4        -0.1843
     14 CC1       -16.5490   14.3810   41.7750 C.ar      1 SB4        -0.0212
     15 CC2       -15.3520   13.6930   41.3060 C.ar      1 SB4         0.0712
     16 NC3       -15.4020   12.3420   41.0870 N.ar      1 SB4        -0.2583
     17 CC4       -16.5450   11.6890   41.3090 C.ar      1 SB4         0.1794
     18 NC5       -17.6910   12.2340   41.7400 N.ar      1 SB4        -0.2627
     19 CC6       -17.7110   13.5640   41.9770 C.ar      1 SB4         0.0073
     20 NC7       -16.5420   10.3960   41.0790 N.pl3     1 SB4        -0.3045
     21 ND1       -13.4740   15.2840   42.0050 N.pl3     1 SB4        -0.2316
     22 CD2       -12.3750   15.6630   41.2650 C.2       1 SB4         0.1086
     23 ND3       -12.1510   15.2100   40.0160 N.2       1 SB4        -0.3026
     24 CD4       -13.2610   14.3660   39.8260 C.2       1 SB4         0.0462
     25 CD5       -14.1090   14.4140   41.0570 C.2       1 SB4         0.1151
     26 H1        -11.9163   14.9236   44.1847 H         1 SB4         0.0348
     27 H2        -13.2709   13.7453   44.2432 H         1 SB4         0.0348
     28 H3        -12.5542   14.6127   46.5127 H         1 SB4         0.0815
     29 H4        -14.2862   14.8956   46.1298 H         1 SB4         0.0815
     30 H5        -12.0832   16.8454   46.1231 H         1 SB4         0.2013
     31 H6        -13.4275   16.8351   47.0731 H         1 SB4         0.2013
     32 H7        -13.3190   18.6162   45.3467 H         1 SB4         0.0815
     33 H8        -14.8248   17.6405   45.4315 H         1 SB4         0.0815
     34 H9        -12.5461   17.4626   43.3939 H         1 SB4         0.0348
     35 H10       -14.2874   17.7901   43.0986 H         1 SB4         0.0348
     36 H11       -14.8784   15.4922   43.5764 H         1 SB4         0.0662
     37 H12       -15.4522   13.7046   38.2765 H         1 SB4         0.0595
     38 H13       -15.4842   12.1272   36.3467 H         1 SB4         0.0601
     39 H14       -11.2544   11.4042   36.8434 H         1 SB4         0.0601
     40 H15       -11.1990   12.9703   38.7708 H         1 SB4         0.0595
     41 H16       -16.5603   15.4490   41.9605 H         1 SB4         0.0638
     42 H17       -18.6271   14.0249   42.3282 H         1 SB4         0.0868
     43 H18       -17.3973    9.8434   41.2338 H         1 SB4         0.1824
     44 H19       -15.6843    9.9345   40.7438 H         1 SB4         0.1824
     45 H20       -11.6599   16.3554   41.7068 H         1 SB4         0.1311
@<TRIPOS>BOND
     1    1    6 1  
     2    1    2 1  
     3    2    3 1  
     4    3    4 1  
     5    4    5 1  
     6    5    6 1  
     7    6   21 1  
     8   21   25 1  
     9   21   22 1  
    10   22   23 2  
    11   23   24 1  
    12   24   25 2  
    13   24   12 1  
    14   12   11 ar 
    15   12    7 ar 
    16    7    8 ar 
    17    8    9 ar 
    18    9   13 1  
    19    9   10 ar 
    20   10   11 ar 
    21   25   15 1  
    22   15   16 ar 
    23   15   14 ar 
    24   14   19 ar 
    25   19   18 ar 
    26   18   17 ar 
    27   17   20 1  
    28   17   16 ar 
    29    1   26 1  
    30    1   27 1  
    31    2   28 1  
    32    2   29 1  
    33    3   30 1  
    34    3   31 1  
    35    4   32 1  
    36    4   33 1  
    37    5   34 1  
    38    5   35 1  
    39    6   36 1  
    40    7   37 1  
    41    8   38 1  
    42   10   39 1  
    43   11   40 1  
    44   14   41 1  
    45   19   42 1  
    46   20   43 1  
    47   20   44 1  
    48   22   45 1  
@<TRIPOS>SUBSTRUCTURE
     1 SB4         1

