### 
### Created by X-TOOL on Mon Sep 10 21:12:47 2018
### 

@<TRIPOS>MOLECULE
3ert_ligand
   59    61     1     0     0
SMALL
GAST_HUCK


@<TRIPOS>ATOM
      1 C10        30.5740    1.4650   29.5500 C.3       1 OHT        -0.0549
      2 C9         30.7020   -0.0230   29.3720 C.3       1 OHT        -0.0213
      3 C8         31.3630   -0.3880   28.0590 C.2       1 OHT        -0.0310
      4 C11        32.7880    0.0530   27.9620 C.ar      1 OHT        -0.0193
      5 C16        33.2410    0.7820   26.8420 C.ar      1 OHT        -0.0549
      6 C15        34.5590    1.2350   26.7760 C.ar      1 OHT        -0.0622
      7 C14        35.4510    0.9800   27.7990 C.ar      1 OHT        -0.0627
      8 C13        35.0270    0.2700   28.8970 C.ar      1 OHT        -0.0622
      9 C12        33.7070   -0.1880   28.9760 C.ar      1 OHT        -0.0549
     10 C7         30.7080   -1.0570   27.0650 C.2       1 OHT        -0.0248
     11 C1         29.2100   -1.2330   27.0160 C.ar      1 OHT        -0.0376
     12 C2         28.6090   -2.4900   26.6950 C.ar      1 OHT        -0.0657
     13 C3         27.2150   -2.6130   26.6050 C.ar      1 OHT        -0.0340
     14 C4         26.4090   -1.4820   26.8350 C.ar      1 OHT         0.0872
     15 O4         25.0580   -1.6220   26.7220 O.3       1 OHT        -0.3333
     16 C5         26.9920   -0.2350   27.1560 C.ar      1 OHT        -0.0340
     17 C6         28.3750   -0.1340   27.2390 C.ar      1 OHT        -0.0657
     18 C17        31.4110   -1.6900   25.9450 C.ar      1 OHT        -0.0376
     19 C18        32.5290   -2.4960   26.1460 C.ar      1 OHT        -0.0657
     20 C19        33.1820   -3.1140   25.1170 C.ar      1 OHT        -0.0338
     21 C20        32.7250   -2.9440   23.8200 C.ar      1 OHT         0.0909
     22 O20        33.2960   -3.5540   22.7400 O.3       1 OHT        -0.3129
     23 C23        32.9000   -3.1830   21.4230 C.3       1 OHT         0.1102
     24 C24        34.0590   -3.5080   20.5200 C.3       1 OHT        -0.0039
     25 N24        34.1090   -4.8870   20.1180 N.4       1 OHT         0.2328
     26 C25        33.3900   -5.1110   18.8630 C.3       1 OHT        -0.0433
     27 C26        35.5060   -5.2910   19.9220 C.3       1 OHT        -0.0433
     28 C21        31.6010   -2.1350   23.5790 C.ar      1 OHT        -0.0338
     29 C22        30.9660   -1.5280   24.6260 C.ar      1 OHT        -0.0657
     30 H1         30.0899    1.6786   30.5144 H         1 OHT         0.0254
     31 H2         29.9648    1.8809   28.7340 H         1 OHT         0.0254
     32 H3         31.5736    1.9238   29.5319 H         1 OHT         0.0254
     33 H4         29.6976   -0.4706   29.3992 H         1 OHT         0.0435
     34 H5         31.3063   -0.4277   30.1972 H         1 OHT         0.0435
     35 H6         32.5592    0.9919   26.0259 H         1 OHT         0.0617
     36 H7         34.8879    1.7957   25.9085 H         1 OHT         0.0615
     37 H8         36.4732    1.3355   27.7368 H         1 OHT         0.0609
     38 H9         35.7186    0.0638   29.7058 H         1 OHT         0.0615
     39 H10        33.3932   -0.7454   29.8512 H         1 OHT         0.0617
     40 H11        29.2368   -3.3561   26.5196 H         1 OHT         0.0575
     41 H12        26.7634   -3.5678   26.3612 H         1 OHT         0.0543
     42 H13        24.8425   -1.9029   25.8404 H         1 OHT         0.2484
     43 H14        26.3672    0.6325   27.3353 H         1 OHT         0.0543
     44 H15        28.8194    0.8240   27.4836 H         1 OHT         0.0575
     45 H16        32.8947   -2.6383   27.1565 H         1 OHT         0.0575
     46 H17        34.0504   -3.7322   25.3138 H         1 OHT         0.0543
     47 H18        32.6771   -2.1066   21.3824 H         1 OHT         0.0668
     48 H19        32.0100   -3.7535   21.1190 H         1 OHT         0.0668
     49 H20        34.9915   -3.2672   21.0514 H         1 OHT         0.0841
     50 H21        33.9806   -2.8855   19.6165 H         1 OHT         0.0841
     51 H22        33.6932   -5.4520   20.8418 H         1 OHT         0.2029
     52 H23        33.4514   -6.1749   18.5902 H         1 OHT         0.0777
     53 H24        33.8430   -4.5017   18.0671 H         1 OHT         0.0777
     54 H25        32.3353   -4.8249   18.9885 H         1 OHT         0.0777
     55 H26        36.0680   -5.1315   20.8540 H         1 OHT         0.0777
     56 H27        35.9524   -4.6887   19.1171 H         1 OHT         0.0777
     57 H28        35.5449   -6.3556   19.6481 H         1 OHT         0.0777
     58 H29        31.2394   -1.9932   22.5670 H         1 OHT         0.0543
     59 H30        30.0987   -0.9074   24.4318 H         1 OHT         0.0575
@<TRIPOS>BOND
     1    1    2 1  
     2    2    3 1  
     3    3    4 1  
     4    3   10 2  
     5    4    5 ar 
     6    4    9 ar 
     7    5    6 ar 
     8    6    7 ar 
     9    7    8 ar 
    10    8    9 ar 
    11   10   11 1  
    12   10   18 1  
    13   11   12 ar 
    14   11   17 ar 
    15   12   13 ar 
    16   13   14 ar 
    17   14   15 1  
    18   14   16 ar 
    19   16   17 ar 
    20   18   19 ar 
    21   18   29 ar 
    22   19   20 ar 
    23   20   21 ar 
    24   21   22 1  
    25   21   28 ar 
    26   22   23 1  
    27   23   24 1  
    28   24   25 1  
    29   25   26 1  
    30   25   27 1  
    31   28   29 ar 
    32    1   30 1  
    33    1   31 1  
    34    1   32 1  
    35    2   33 1  
    36    2   34 1  
    37    5   35 1  
    38    6   36 1  
    39    7   37 1  
    40    8   38 1  
    41    9   39 1  
    42   12   40 1  
    43   13   41 1  
    44   15   42 1  
    45   16   43 1  
    46   17   44 1  
    47   19   45 1  
    48   20   46 1  
    49   23   47 1  
    50   23   48 1  
    51   24   49 1  
    52   24   50 1  
    53   25   51 1  
    54   26   52 1  
    55   26   53 1  
    56   26   54 1  
    57   27   55 1  
    58   27   56 1  
    59   27   57 1  
    60   28   58 1  
    61   29   59 1  
@<TRIPOS>SUBSTRUCTURE
     1 OHT         1

