### 
### Created by X-TOOL on Mon Sep 10 21:12:59 2018
### 

@<TRIPOS>MOLECULE
3ery_ligand
  139   141     1     0     0
SMALL
GAST_HUCK


@<TRIPOS>ATOM
      1 N           4.7790  -14.5010  -16.8800 N.4       1 GLN         0.2380
      2 CA          5.3300  -15.3910  -15.8230 C.3       1 GLN         0.0671
      3 C           5.0770  -14.7820  -14.4540 C.2       1 GLN         0.2269
      4 O           4.9240  -13.5680  -14.3190 O.2       1 GLN        -0.3907
      5 CB          6.8310  -15.5810  -16.0210 C.3       1 GLN         0.0247
      6 CG          7.3340  -16.9330  -15.5640 C.3       1 GLN         0.0443
      7 CD          6.8120  -18.0590  -16.4250 C.2       1 GLN         0.1738
      8 OE1         7.0430  -19.2290  -16.1420 O.2       1 GLN        -0.3973
      9 NE2         6.1020  -17.7090  -17.4870 N.am      1 GLN        -0.3009
     10 N           5.0500  -15.6350  -13.4390 N.am      1 LEU        -0.2610
     11 CA          4.8070  -15.1980  -12.0730 C.3       1 LEU         0.1313
     12 C           6.0700  -14.6330  -11.4370 C.2       1 LEU         0.2040
     13 O           7.1880  -14.9300  -11.8700 O.2       1 LEU        -0.3944
     14 CB          4.2830  -16.3730  -11.2430 C.3       1 LEU        -0.0101
     15 CG          3.0150  -17.0700  -11.7580 C.3       1 LEU        -0.0425
     16 CD1         2.6120  -18.1440  -10.7660 C.3       1 LEU        -0.0625
     17 CD2         1.8860  -16.0680  -11.9340 C.3       1 LEU        -0.0625
     18 N           5.8900  -13.8120  -10.4110 N.am      1 SER        -0.2616
     19 CA          7.0240  -13.2170   -9.7250 C.3       1 SER         0.1541
     20 C           7.7270  -14.3060   -8.9310 C.2       1 SER         0.2087
     21 O           7.1430  -15.3500   -8.6350 O.2       1 SER        -0.3941
     22 CB          6.5680  -12.1290   -8.7570 C.3       1 SER         0.0843
     23 OG          6.0990  -12.7150   -7.5570 O.3       1 SER        -0.3903
     24 N           8.9980  -14.0800   -8.5800 N.am      1 PRO        -0.2498
     25 CA          9.7310  -15.0850   -7.8120 C.3       1 PRO         0.1338
     26 C           9.1390  -15.2080   -6.4080 C.2       1 PRO         0.2041
     27 O           8.3660  -14.3500   -5.9650 O.2       1 PRO        -0.3944
     28 CB         11.1550  -14.5410   -7.8060 C.3       1 PRO        -0.0104
     29 CG         10.9370  -13.0510   -7.8300 C.3       1 PRO        -0.0281
     30 CD          9.8380  -12.8990   -8.8510 C.3       1 PRO         0.0369
     31 N           9.4900  -16.2810   -5.7120 N.am      1 PHE        -0.2640
     32 CA          8.9840  -16.4880   -4.3690 C.3       1 PHE         0.1284
     33 C           9.4080  -15.3260   -3.4700 C.2       1 PHE         0.2061
     34 O          10.5850  -14.9700   -3.4000 O.2       1 PHE        -0.3942
     35 CB          9.5010  -17.8170   -3.8050 C.3       1 PHE        -0.0244
     36 N           8.4400  -14.7140   -2.7730 N.am      1 PRO        -0.2498
     37 CA          8.7100  -13.5920   -1.8740 C.3       1 PRO         0.1338
     38 C           9.4670  -14.0490   -0.6320 C.2       1 PRO         0.2042
     39 O           9.3970  -15.2170   -0.2500 O.2       1 PRO        -0.3944
     40 CB          7.3110  -13.0780   -1.5500 C.3       1 PRO        -0.0104
     41 CG          6.5070  -14.3390   -1.5290 C.3       1 PRO        -0.0281
     42 CD          7.0100  -15.0750   -2.7490 C.3       1 PRO         0.0369
     43 N          10.2030  -13.1280   -0.0190 N.am      1 PHE        -0.2619
     44 CA         10.9630  -13.4230    1.1930 C.3       1 PHE         0.1404
     45 C           9.9530  -13.7460    2.2870 C.2       1 PHE         0.2060
     46 O           8.7760  -13.4250    2.1420 O.2       1 PHE        -0.3942
     47 CB         11.8030  -12.2020    1.5840 C.3       1 PHE         0.0214
     48 CG         13.0100  -11.9790    0.7030 C.ar      1 PHE        -0.0386
     49 CD1        13.7290  -10.7920    0.7740 C.ar      1 PHE        -0.0601
     50 CD2        13.4560  -12.9760   -0.1590 C.ar      1 PHE        -0.0601
     51 CE1        14.8760  -10.6030    0.0050 C.ar      1 PHE        -0.0686
     52 CE2        14.6010  -12.7980   -0.9310 C.ar      1 PHE        -0.0686
     53 CZ         15.3120  -11.6110   -0.8480 C.ar      1 PHE        -0.0687
     54 N          10.3960  -14.3750    3.3740 N.am      1 ASP        -0.2620
     55 CA          9.4730  -14.7180    4.4550 C.3       1 ASP         0.1423
     56 C           9.1220  -13.5370    5.3460 C.2       1 ASP         0.2050
     57 O           9.9470  -12.6630    5.5890 O.2       1 ASP        -0.3943
     58 CB         10.0220  -15.8530    5.3320 C.3       1 ASP         0.0406
     59 CG          9.7910  -17.2330    4.7190 C.2       1 ASP         0.0393
     60 OD1         8.7340  -17.4460    4.0760 O.co2     1 ASP        -0.5688
     61 OD2        10.6580  -18.1100    4.8930 O.co2     1 ASP        -0.5688
     62 N           7.8820  -13.5200    5.8270 N.am      1 LEU        -0.2694
     63 CA          7.4100  -12.4620    6.7070 C.3       1 LEU         0.0946
     64 C           8.1640  -12.5180    8.0440 C.2       1 LEU         0.0601
     65 O           8.8370  -13.5390    8.2990 O.co2     1 LEU        -0.5666
     66 CB          5.9020  -12.6290    6.9490 C.3       1 LEU        -0.0156
     67 CG          4.8960  -11.9610    5.9970 C.3       1 LEU        -0.0431
     68 CD1         5.4240  -11.8880    4.5720 C.3       1 LEU        -0.0625
     69 CD2         3.5900  -12.7280    6.0580 C.3       1 LEU        -0.0625
     70 OXT         8.0730  -11.5460    8.8180 O.co2     1 LEU        -0.5666
     71 H1          4.9494  -14.9095  -17.7856 H         1 GLN         0.2015
     72 H2          5.2277  -13.5999  -16.8281 H         1 GLN         0.2015
     73 H3          3.7865  -14.3906  -16.7426 H         1 GLN         0.2015
     74 H4          4.8316  -16.3698  -15.8821 H         1 GLN         0.1100
     75 H5          7.3587  -14.8023  -15.4507 H         1 GLN         0.0370
     76 H6          7.0579  -15.4688  -17.0915 H         1 GLN         0.0370
     77 H7          7.0076  -17.1000  -14.5269 H         1 GLN         0.0506
     78 H8          8.4331  -16.9348  -15.6073 H         1 GLN         0.0506
     79 H9          5.7306  -18.4117  -18.0939 H         1 GLN         0.1814
     80 H10         5.9374  -16.7421  -17.6819 H         1 GLN         0.1814
     81 H11         5.2011  -16.6072  -13.6179 H         1 LEU         0.1884
     82 H12         4.0424  -14.4073  -12.0900 H         1 LEU         0.0800
     83 H13         4.0694  -15.9975  -10.2314 H         1 LEU         0.0315
     84 H14         5.0814  -17.1280  -11.1929 H         1 LEU         0.0315
     85 H15         3.2301  -17.5373  -12.7303 H         1 LEU         0.0298
     86 H16         1.7039  -18.6514  -11.1237 H         1 LEU         0.0232
     87 H17         2.4131  -17.6831   -9.7872 H         1 LEU         0.0232
     88 H18         3.4266  -18.8766  -10.6676 H         1 LEU         0.0232
     89 H19         2.1907  -15.2952  -12.6551 H         1 LEU         0.0232
     90 H20         1.6593  -15.5972  -10.9660 H         1 LEU         0.0232
     91 H21         0.9908  -16.5862  -12.3083 H         1 LEU         0.0232
     92 H22         4.9617  -13.5998  -10.1057 H         1 SER         0.1884
     93 H23         7.7147  -12.7844  -10.4638 H         1 SER         0.0823
     94 H24         5.7574  -11.5465   -9.2191 H         1 SER         0.0606
     95 H25         7.4146  -11.4640   -8.5311 H         1 SER         0.0606
     96 H26         6.7989  -13.2173   -7.1566 H         1 SER         0.2097
     97 H27         9.6945  -16.0666   -8.3070 H         1 PRO         0.0802
     98 H28        11.7116  -14.8753   -8.6939 H         1 PRO         0.0313
     99 H29        11.6940  -14.8489   -6.8979 H         1 PRO         0.0313
    100 H30        11.8480  -12.5209   -8.1446 H         1 PRO         0.0287
    101 H31        10.6184  -12.6798   -6.8447 H         1 PRO         0.0287
    102 H32         9.2764  -11.9658   -8.6969 H         1 PRO         0.0524
    103 H33        10.2389  -12.9208   -9.8751 H         1 PRO         0.0524
    104 H34        10.1093  -16.9535   -6.1172 H         1 PHE         0.1883
    105 H35         7.8852  -16.5245   -4.4058 H         1 PHE         0.0797
    106 H36         9.1095  -17.9604   -2.7871 H         1 PHE         0.0277
    107 H37        10.6005  -17.8001   -3.7760 H         1 PHE         0.0277
    108 H38         9.1638  -18.6439   -4.4473 H         1 PHE         0.0277
    109 H39         9.2985  -12.8150   -2.3839 H         1 PRO         0.0802
    110 H40         6.9500  -12.3880   -2.3268 H         1 PRO         0.0313
    111 H41         7.2878  -12.5742   -0.5725 H         1 PRO         0.0313
    112 H42         5.4312  -14.1248   -1.6108 H         1 PRO         0.0287
    113 H43         6.6974  -14.9154   -0.6117 H         1 PRO         0.0287
    114 H44         6.8761  -16.1614   -2.6410 H         1 PRO         0.0524
    115 H45         6.4979  -14.7312   -3.6598 H         1 PRO         0.0524
    116 H46        10.2377  -12.2038   -0.3994 H         1 PHE         0.1885
    117 H47        11.6248  -14.2855    1.0252 H         1 PHE         0.0823
    118 H48        12.1505  -12.3381    2.6187 H         1 PHE         0.0474
    119 H49        11.1631  -11.3091    1.5265 H         1 PHE         0.0474
    120 H50        13.3933  -10.0023    1.4364 H         1 PHE         0.0557
    121 H51        12.9034  -13.9058   -0.2307 H         1 PHE         0.0557
    122 H52        15.4272   -9.6720    0.0717 H         1 PHE         0.0599
    123 H53        14.9358  -13.5862   -1.5957 H         1 PHE         0.0599
    124 H54        16.2049  -11.4690   -1.4460 H         1 PHE         0.0559
    125 H55        11.3640  -14.6138    3.4513 H         1 ASP         0.1884
    126 H56         8.5425  -15.0705    3.9861 H         1 ASP         0.0819
    127 H57         9.5227  -15.8145    6.3114 H         1 ASP         0.0478
    128 H58        11.1036  -15.7034    5.4656 H         1 ASP         0.0478
    129 H59         7.2548  -14.2573    5.5760 H         1 LEU         0.1875
    130 H60         7.5936  -11.4875    6.2309 H         1 LEU         0.0726
    131 H61         5.6958  -12.2372    7.9560 H         1 LEU         0.0308
    132 H62         5.6935  -13.7088    6.9258 H         1 LEU         0.0308
    133 H63         4.7163  -10.9332    6.3453 H         1 LEU         0.0297
    134 H64         4.6748  -11.4047    3.9277 H         1 LEU         0.0232
    135 H65         5.6242  -12.9046    4.2026 H         1 LEU         0.0232
    136 H66         6.3547  -11.3018    4.5553 H         1 LEU         0.0232
    137 H67         3.2340  -12.7637    7.0982 H         1 LEU         0.0232
    138 H68         3.7487  -13.7522    5.6894 H         1 LEU         0.0232
    139 H69         2.8395  -12.2247    5.4308 H         1 LEU         0.0232
@<TRIPOS>BOND
     1    1    2 1  
     2    2    3 1  
     3    2    5 1  
     4    3    4 2  
     5    3   10 am 
     6    5    6 1  
     7    6    7 1  
     8    7    8 2  
     9    7    9 am 
    10   10   11 1  
    11   11   12 1  
    12   11   14 1  
    13   12   13 2  
    14   12   18 am 
    15   14   15 1  
    16   15   16 1  
    17   15   17 1  
    18   18   19 1  
    19   19   20 1  
    20   19   22 1  
    21   20   21 2  
    22   20   24 am 
    23   22   23 1  
    24   24   25 1  
    25   24   30 1  
    26   25   26 1  
    27   25   28 1  
    28   26   27 2  
    29   26   31 am 
    30   28   29 1  
    31   29   30 1  
    32   31   32 1  
    33   32   33 1  
    34   32   35 1  
    35   33   34 2  
    36   33   36 am 
    37   36   37 1  
    38   36   42 1  
    39   37   38 1  
    40   37   40 1  
    41   38   39 2  
    42   38   43 am 
    43   40   41 1  
    44   41   42 1  
    45   43   44 1  
    46   44   45 1  
    47   44   47 1  
    48   45   46 2  
    49   45   54 am 
    50   47   48 1  
    51   48   49 ar 
    52   48   50 ar 
    53   49   51 ar 
    54   50   52 ar 
    55   51   53 ar 
    56   52   53 ar 
    57   54   55 1  
    58   55   56 1  
    59   55   58 1  
    60   56   57 2  
    61   56   62 am 
    62   58   59 1  
    63   59   60 ar 
    64   59   61 ar 
    65   62   63 1  
    66   63   64 1  
    67   63   66 1  
    68   64   65 ar 
    69   64   70 ar 
    70   66   67 1  
    71   67   68 1  
    72   67   69 1  
    73    1   71 1  
    74    1   72 1  
    75    1   73 1  
    76    2   74 1  
    77    5   75 1  
    78    5   76 1  
    79    6   77 1  
    80    6   78 1  
    81    9   79 1  
    82    9   80 1  
    83   10   81 1  
    84   11   82 1  
    85   14   83 1  
    86   14   84 1  
    87   15   85 1  
    88   16   86 1  
    89   16   87 1  
    90   16   88 1  
    91   17   89 1  
    92   17   90 1  
    93   17   91 1  
    94   18   92 1  
    95   19   93 1  
    96   22   94 1  
    97   22   95 1  
    98   23   96 1  
    99   25   97 1  
   100   28   98 1  
   101   28   99 1  
   102   29  100 1  
   103   29  101 1  
   104   30  102 1  
   105   30  103 1  
   106   31  104 1  
   107   32  105 1  
   108   35  106 1  
   109   35  107 1  
   110   35  108 1  
   111   37  109 1  
   112   40  110 1  
   113   40  111 1  
   114   41  112 1  
   115   41  113 1  
   116   42  114 1  
   117   42  115 1  
   118   43  116 1  
   119   44  117 1  
   120   47  118 1  
   121   47  119 1  
   122   49  120 1  
   123   50  121 1  
   124   51  122 1  
   125   52  123 1  
   126   53  124 1  
   127   54  125 1  
   128   55  126 1  
   129   58  127 1  
   130   58  128 1  
   131   62  129 1  
   132   63  130 1  
   133   66  131 1  
   134   66  132 1  
   135   67  133 1  
   136   68  134 1  
   137   68  135 1  
   138   68  136 1  
   139   69  137 1  
   140   69  138 1  
   141   69  139 1  
@<TRIPOS>SUBSTRUCTURE
     1 GLN         1

