### 
### Created by X-TOOL on Mon Sep 10 21:13:02 2018
### 

@<TRIPOS>MOLECULE
3et7_ligand
   60    64     1     0     0
SMALL
GAST_HUCK


@<TRIPOS>ATOM
      1 O32        21.5830   66.1030   21.8780 O.2       1 349        -0.1512
      2 S30        21.3840   65.2620   20.7320 S.o2      1 349         0.0681
      3 O31        20.8370   65.5760   19.4620 O.2       1 349        -0.1512
      4 N33        20.5480   63.8960   21.3040 N.am      1 349        -0.2350
      5 C34        20.5270   63.3990   22.7220 C.3       1 349         0.0296
      6 C35        19.2590   62.4560   22.8440 C.3       1 349        -0.0344
      7 C36        19.0590   61.9040   21.4120 C.3       1 349        -0.0344
      8 C37        19.5810   63.0670   20.5130 C.3       1 349         0.0296
      9 C29        23.0160   64.6640   20.4240 C.ar      1 349         0.1116
     10 C28        23.2960   63.2900   20.7100 C.ar      1 349        -0.0418
     11 C27        24.5630   62.8190   20.5020 C.ar      1 349        -0.0669
     12 C26        25.4990   63.7790   20.0650 C.ar      1 349        -0.0684
     13 C25        25.2630   65.1280   19.7900 C.ar      1 349        -0.0564
     14 C24        23.9640   65.6060   19.9680 C.ar      1 349         0.0075
     15 C23        23.5770   67.0580   19.7320 C.3       1 349         0.0720
     16 N22        24.8870   67.7350   19.4920 N.pl3     1 349        -0.2739
     17 C21        25.3060   68.1770   18.2340 C.ar      1 349         0.1507
     18 N20        24.6050   67.8560   17.1570 N.ar      1 349        -0.2087
     19 C8         25.0440   68.3070   15.9780 C.ar      1 349         0.2256
     20 N7         26.0750   69.1450   15.7700 N.ar      1 349        -0.2282
     21 C6         26.8320   69.4800   16.8270 C.ar      1 349         0.0368
     22 C5         26.4300   68.9500   18.0450 C.ar      1 349         0.0965
     23 C2         27.2140   69.2640   19.2410 C.3       1 349         0.3606
     24 F4         26.3410   69.8890   20.1270 F         1 349        -0.2427
     25 F3         27.6710   68.1240   19.9250 F         1 349        -0.2427
     26 F1         28.3560   69.8960   18.7630 F         1 349        -0.2427
     27 N9         24.2300   67.9690   14.9630 N.pl3     1 349        -0.2364
     28 C10        23.1360   67.0770   15.2160 C.ar      1 349         0.0560
     29 C11        23.0750   66.3970   16.3790 C.ar      1 349        -0.0524
     30 C12        22.0130   65.5240   16.5170 C.ar      1 349        -0.0516
     31 C13        20.9940   65.2960   15.6410 C.ar      1 349         0.0648
     32 N14        19.8580   64.4620   15.7070 N.am      1 349        -0.2395
     33 C18        21.0750   65.9850   14.4420 C.ar      1 349        -0.0067
     34 C19        22.1170   66.8650   14.2450 C.ar      1 349        -0.0419
     35 C17        19.8840   65.5810   13.5620 C.3       1 349         0.0702
     36 C15        19.1630   64.5920   14.4910 C.2       1 349         0.2072
     37 O16        18.1410   64.0210   14.1200 O.2       1 349        -0.3895
     38 H1         20.4416   64.2443   23.4207 H         1 349         0.0478
     39 H2         21.4447   62.8335   22.9410 H         1 349         0.0478
     40 H3         18.3771   63.0277   23.1686 H         1 349         0.0281
     41 H4         19.4478   61.6380   23.5548 H         1 349         0.0281
     42 H5         17.9974   61.6961   21.2129 H         1 349         0.0281
     43 H6         19.6477   60.9881   21.2553 H         1 349         0.0281
     44 H7         20.0874   62.6517   19.6292 H         1 349         0.0478
     45 H8         18.7356   63.6927   20.1909 H         1 349         0.0478
     46 H9         22.5181   62.6346   21.0846 H         1 349         0.0619
     47 H10        24.8291   61.7804   20.6619 H         1 349         0.0560
     48 H11        26.5162   63.4308   19.9269 H         1 349         0.0599
     49 H12        26.0599   65.7799   19.4507 H         1 349         0.0558
     50 H13        23.0732   67.4788   20.6146 H         1 349         0.0707
     51 H14        22.9197   67.1519   18.8550 H         1 349         0.0707
     52 H15        25.5141   67.8838   20.2955 H         1 349         0.2004
     53 H16        27.7003   70.1224   16.7351 H         1 349         0.1099
     54 H17        24.3897   68.3451   14.0175 H         1 349         0.2274
     55 H18        23.8156   66.5277   17.1597 H         1 349         0.0472
     56 H19        21.9870   64.9492   17.4357 H         1 349         0.0470
     57 H20        19.5945   63.8831   16.4787 H         1 349         0.2234
     58 H21        22.1625   67.4177   13.3136 H         1 349         0.0462
     59 H22        20.2141   65.0956   12.6317 H         1 349         0.0646
     60 H23        19.2484   66.4453   13.3191 H         1 349         0.0646
@<TRIPOS>BOND
     1    1    2 2  
     2    2    3 2  
     3    2    4 am 
     4    2    9 1  
     5    4    5 1  
     6    4    8 1  
     7    5    6 1  
     8    6    7 1  
     9    7    8 1  
    10    9   10 ar 
    11    9   14 ar 
    12   10   11 ar 
    13   11   12 ar 
    14   12   13 ar 
    15   13   14 ar 
    16   14   15 1  
    17   15   16 1  
    18   16   17 1  
    19   17   18 ar 
    20   17   22 ar 
    21   18   19 ar 
    22   19   20 ar 
    23   19   27 1  
    24   20   21 ar 
    25   21   22 ar 
    26   22   23 1  
    27   23   24 1  
    28   23   25 1  
    29   23   26 1  
    30   27   28 1  
    31   28   29 ar 
    32   28   34 ar 
    33   29   30 ar 
    34   30   31 ar 
    35   31   32 1  
    36   31   33 ar 
    37   32   36 am 
    38   33   34 ar 
    39   33   35 1  
    40   35   36 1  
    41   36   37 2  
    42    5   38 1  
    43    5   39 1  
    44    6   40 1  
    45    6   41 1  
    46    7   42 1  
    47    7   43 1  
    48    8   44 1  
    49    8   45 1  
    50   10   46 1  
    51   11   47 1  
    52   12   48 1  
    53   13   49 1  
    54   15   50 1  
    55   15   51 1  
    56   16   52 1  
    57   21   53 1  
    58   27   54 1  
    59   29   55 1  
    60   30   56 1  
    61   32   57 1  
    62   34   58 1  
    63   35   59 1  
    64   35   60 1  
@<TRIPOS>SUBSTRUCTURE
     1 349         1

