### 
### Created by X-TOOL on Mon Sep 10 21:13:01 2018
### 

@<TRIPOS>MOLECULE
3eta_ligand
   68    73     1     0     0
SMALL
GAST_HUCK


@<TRIPOS>ATOM
      1 N1         46.2360   21.9090    0.1360 N.4       1 351         0.2310
      2 C2         47.2360   22.8500    0.6670 C.3       1 351        -0.0015
      3 C3         48.1430   22.1140    1.5810 C.ar      1 351         0.0016
      4 C4         47.7500   21.8290    2.8710 C.ar      1 351        -0.0547
      5 C5         48.6120   21.1490    3.7060 C.ar      1 351        -0.0609
      6 C6         49.8590   20.7520    3.2650 C.ar      1 351        -0.0250
      7 C7         50.2320   21.0370    1.9670 C.ar      1 351        -0.0609
      8 C8         49.3810   21.7150    1.1260 C.ar      1 351        -0.0547
      9 C9         50.7740   20.0450    4.1230 C.ar      1 351        -0.0100
     10 C10        52.1310   20.1630    3.9150 C.ar      1 351         0.0021
     11 N11        53.0960   19.5590    4.6090 N.ar      1 351        -0.2840
     12 C12        52.5920   18.7810    5.5670 C.ar      1 351         0.1398
     13 N13        53.3510   18.0440    6.4250 N.pl3     1 351        -0.2593
     14 C14        52.5480   17.3600    7.2870 C.2       1 351         0.0438
     15 C15        51.2410   17.6650    6.9820 C.2       1 351        -0.0079
     16 C16        50.1400   17.0960    7.7170 C.ar      1 351        -0.0525
     17 C17        48.9600   17.7920    7.8470 C.ar      1 351        -0.0788
     18 C18        47.9150   17.2340    8.5470 C.ar      1 351        -0.0811
     19 C19        48.0410   15.9840    9.1120 C.ar      1 351        -0.0472
     20 C20        49.2170   15.2800    8.9870 C.ar      1 351         0.0605
     21 N21        49.3130   14.0090    9.5860 N.am      1 351        -0.2162
     22 C22        49.9640   12.9370    9.0090 C.2       1 351         0.3144
     23 O23        50.3750   12.9180    7.8550 O.2       1 351        -0.3813
     24 N24        50.1000   11.8910    9.9040 N.am      1 351        -0.2161
     25 C25        50.4060   10.5710    9.5270 C.ar      1 351         0.1021
     26 C26        51.4680   10.2900    8.6950 C.ar      1 351        -0.0484
     27 C27        51.7470    8.9810    8.3540 C.ar      1 351        -0.0862
     28 C28        50.9690    7.9490    8.8360 C.ar      1 351        -0.0852
     29 C29        49.9070    8.2230    9.6690 C.ar      1 351        -0.0414
     30 C30        49.6410    9.5330   10.0140 C.ar      1 351         0.1375
     31 O31        48.5840    9.8530   10.8430 O.3       1 351        -0.2640
     32 C32        48.4760    9.1490   12.0280 C.ar      1 351         0.1125
     33 C33        49.5880    8.7210   12.7210 C.ar      1 351        -0.0292
     34 C34        49.4130    8.0290   13.9030 C.ar      1 351        -0.0700
     35 C35        48.1430    7.7750   14.3800 C.ar      1 351        -0.0726
     36 C36        47.0380    8.2080   13.6790 C.ar      1 351        -0.0700
     37 C37        47.2050    8.9000   12.4990 C.ar      1 351        -0.0292
     38 C38        50.2680   15.8450    8.2890 C.ar      1 351        -0.0445
     39 C39        51.2650   18.5700    5.8850 C.ar      1 351         0.0118
     40 C40        50.3070   19.2300    5.1340 C.ar      1 351        -0.0473
     41 H1         45.6126   22.3976   -0.4875 H         1 351         0.2008
     42 H2         45.7076   21.5146    0.8984 H         1 351         0.2008
     43 H3         46.7031   21.1705   -0.3666 H         1 351         0.2008
     44 H4         46.7297   23.6563    1.2180 H         1 351         0.0981
     45 H5         47.8161   23.2808   -0.1624 H         1 351         0.0981
     46 H6         46.7729   22.1363    3.2259 H         1 351         0.0560
     47 H7         48.3067   20.9234    4.7213 H         1 351         0.0602
     48 H8         51.2052   20.7233    1.6070 H         1 351         0.0602
     49 H9         49.6831   21.9349    0.1084 H         1 351         0.0560
     50 H10        52.4456   20.8121    3.1058 H         1 351         0.0754
     51 H11        54.3804   18.0090    6.4224 H         1 351         0.2342
     52 H12        52.8815   16.6899    8.0780 H         1 351         0.1035
     53 H13        48.8543   18.7741    7.4005 H         1 351         0.0441
     54 H14        46.9859   17.7820    8.6546 H         1 351         0.0563
     55 H15        47.2097   15.5526    9.6578 H         1 351         0.0457
     56 H16        48.8853   13.8754   10.4800 H         1 351         0.2258
     57 H17        49.9732   12.0849   10.8768 H         1 351         0.2232
     58 H18        52.0832   11.0947    8.3089 H         1 351         0.0467
     59 H19        52.5849    8.7627    7.7018 H         1 351         0.0490
     60 H20        51.1929    6.9249    8.5599 H         1 351         0.0461
     61 H21        49.2871    7.4192   10.0494 H         1 351         0.0505
     62 H22        50.5838    8.9244   12.3441 H         1 351         0.0549
     63 H23        50.2771    7.6836   14.4589 H         1 351         0.0590
     64 H24        48.0140    7.2328   15.3097 H         1 351         0.0525
     65 H25        46.0415    8.0050   14.0544 H         1 351         0.0590
     66 H26        46.3408    9.2468   11.9440 H         1 351         0.0549
     67 H27        51.2007   15.3017    8.1896 H         1 351         0.0441
     68 H28        49.2473   19.1128    5.3297 H         1 351         0.0670
@<TRIPOS>BOND
     1    1    2 1  
     2    2    3 1  
     3    3    4 ar 
     4    3    8 ar 
     5    4    5 ar 
     6    5    6 ar 
     7    6    7 ar 
     8    6    9 1  
     9    7    8 ar 
    10    9   10 ar 
    11    9   40 ar 
    12   10   11 ar 
    13   11   12 ar 
    14   12   13 1  
    15   12   39 ar 
    16   13   14 1  
    17   14   15 2  
    18   15   16 1  
    19   15   39 1  
    20   16   17 ar 
    21   16   38 ar 
    22   17   18 ar 
    23   18   19 ar 
    24   19   20 ar 
    25   20   21 1  
    26   20   38 ar 
    27   21   22 am 
    28   22   23 2  
    29   22   24 am 
    30   24   25 1  
    31   25   26 ar 
    32   25   30 ar 
    33   26   27 ar 
    34   27   28 ar 
    35   28   29 ar 
    36   29   30 ar 
    37   30   31 1  
    38   31   32 1  
    39   32   33 ar 
    40   32   37 ar 
    41   33   34 ar 
    42   34   35 ar 
    43   35   36 ar 
    44   36   37 ar 
    45   39   40 ar 
    46    1   41 1  
    47    1   42 1  
    48    1   43 1  
    49    2   44 1  
    50    2   45 1  
    51    4   46 1  
    52    5   47 1  
    53    7   48 1  
    54    8   49 1  
    55   10   50 1  
    56   13   51 1  
    57   14   52 1  
    58   17   53 1  
    59   18   54 1  
    60   19   55 1  
    61   21   56 1  
    62   24   57 1  
    63   26   58 1  
    64   27   59 1  
    65   28   60 1  
    66   29   61 1  
    67   33   62 1  
    68   34   63 1  
    69   35   64 1  
    70   36   65 1  
    71   37   66 1  
    72   38   67 1  
    73   40   68 1  
@<TRIPOS>SUBSTRUCTURE
     1 351         1

