### 
### Created by X-TOOL on Mon Sep 10 21:12:58 2018
### 

@<TRIPOS>MOLECULE
3ew2_ligand
   31    32     1     0     0
SMALL
GAST_HUCK


@<TRIPOS>ATOM
      1 C11         1.3300   83.2500   24.1990 C.2       1 BTN         0.0348
      2 O11         1.1350   84.4600   24.4440 O.co2     1 BTN        -0.5690
      3 O12         0.8730   82.7640   23.1420 O.co2     1 BTN        -0.5690
      4 C10         2.1070   82.3880   25.1650 C.3       1 BTN         0.0002
      5 C9          3.2270   83.2100   25.7920 C.3       1 BTN        -0.0414
      6 C8          4.5190   83.0680   24.9960 C.3       1 BTN        -0.0505
      7 C7          5.6630   83.8120   25.6760 C.3       1 BTN        -0.0389
      8 C2          6.7450   84.1840   24.6690 C.3       1 BTN         0.0302
      9 S1          7.4220   82.7940   24.0380 S.3       1 BTN        -0.1527
     10 C6          8.9960   83.6350   23.7290 C.3       1 BTN         0.0190
     11 C5          9.1700   84.7920   24.6970 C.3       1 BTN         0.0750
     12 N1          9.9520   84.3590   25.8400 N.am      1 BTN        -0.2671
     13 C3          9.2280   84.3340   26.9510 C.2       1 BTN         0.2580
     14 O3          9.7110   83.9420   28.2160 O.2       1 BTN        -0.4008
     15 N2          7.9860   84.7280   26.7050 N.am      1 BTN        -0.2668
     16 C4          7.8030   85.0800   25.3090 C.3       1 BTN         0.0775
     17 H1          2.5383   81.5312   24.6266 H         1 BTN         0.0430
     18 H2          1.4335   82.0236   25.9547 H         1 BTN         0.0430
     19 H3          3.3978   82.8599   26.8207 H         1 BTN         0.0283
     20 H4          2.9298   84.2689   25.8096 H         1 BTN         0.0283
     21 H5          4.3685   83.4829   23.9884 H         1 BTN         0.0267
     22 H6          4.7787   82.0019   24.9186 H         1 BTN         0.0267
     23 H7          6.1003   83.1675   26.4528 H         1 BTN         0.0277
     24 H8          5.2710   84.7297   26.1388 H         1 BTN         0.0277
     25 H9          6.2764   84.7445   23.8466 H         1 BTN         0.0435
     26 H10         9.0070   84.0187   22.6982 H         1 BTN         0.0399
     27 H11         9.8221   82.9212   23.8634 H         1 BTN         0.0399
     28 H12         9.6081   85.6699   24.1997 H         1 BTN         0.0584
     29 H13        10.9194   84.1097   25.7955 H         1 BTN         0.1849
     30 H14         7.2647   84.7766   27.3959 H         1 BTN         0.1849
     31 H15         7.5232   86.1375   25.1937 H         1 BTN         0.0587
@<TRIPOS>BOND
     1    1    2 ar 
     2    1    3 ar 
     3    1    4 1  
     4    4    5 1  
     5    5    6 1  
     6    6    7 1  
     7    7    8 1  
     8    8    9 1  
     9    8   16 1  
    10    9   10 1  
    11   10   11 1  
    12   11   12 1  
    13   11   16 1  
    14   12   13 am 
    15   13   14 2  
    16   13   15 am 
    17   15   16 1  
    18    4   17 1  
    19    4   18 1  
    20    5   19 1  
    21    5   20 1  
    22    6   21 1  
    23    6   22 1  
    24    7   23 1  
    25    7   24 1  
    26    8   25 1  
    27   10   26 1  
    28   10   27 1  
    29   11   28 1  
    30   12   29 1  
    31   15   30 1  
    32   16   31 1  
@<TRIPOS>SUBSTRUCTURE
     1 BTN         1

