### 
### Created by X-TOOL on Mon Sep 10 21:13:01 2018
### 

@<TRIPOS>MOLECULE
3ewc_ligand
   39    41     1     0     0
SMALL
GAST_HUCK


@<TRIPOS>ATOM
      1 O8         -8.5720   25.3470  -11.9680 O.3       1 MCF        -0.3823
      2 C8         -7.2380   25.2030  -12.5040 C.3       1 MCF         0.1026
      3 C7         -7.0260   23.9890  -13.4160 C.3       1 MCF         0.0654
      4 N6         -7.5600   22.7840  -12.7820 N.pl3     1 MCF        -0.2924
      5 C5         -7.0020   22.1630  -11.7120 C.2       1 MCF         0.0845
      6 N4         -6.1950   22.6390  -10.8310 N.2       1 MCF        -0.2917
      7 C10        -5.7160   23.9210  -10.7050 C.2       1 MCF         0.1095
      8 C9         -6.2370   25.0970  -11.4450 C.2       1 MCF         0.0340
      9 N1         -5.5130   26.1050  -10.9690 N.2       1 MCF        -0.3271
     10 C2         -4.6640   25.6360  -10.0140 C.2       1 MCF         0.0915
     11 N3         -4.7800   24.3160   -9.8320 N.pl3     1 MCF        -0.2212
     12 C1S        -3.9490   23.6200   -8.8190 C.3       1 MCF         0.1963
     13 C2S        -4.4260   22.2450   -8.4020 C.3       1 MCF         0.1383
     14 O2S        -5.2880   22.4130   -7.2720 O.3       1 MCF        -0.3836
     15 O4S        -2.5760   23.5090   -9.2240 O.3       1 MCF        -0.3384
     16 C4S        -2.1300   22.1900   -8.9420 C.3       1 MCF         0.0996
     17 C3S        -3.1320   21.5820   -7.9700 C.3       1 MCF         0.1132
     18 O3S        -2.9080   21.9950   -6.6060 O.3       1 MCF        -0.3864
     19 C5S        -1.7430   21.3560  -10.1550 C.3       1 MCF         0.0224
     20 S5S        -0.4360   20.2860   -9.6220 S.3       1 MCF        -0.1615
     21 C6S        -1.0440   18.6650   -9.3520 C.3       1 MCF        -0.0180
     22 H1         -8.6094   26.1210  -11.4185 H         1 MCF         0.2121
     23 H2         -7.0317   26.1088  -13.0931 H         1 MCF         0.0716
     24 H3         -5.9498   23.8563  -13.6006 H         1 MCF         0.0578
     25 H4         -7.5440   24.1571  -14.3717 H         1 MCF         0.0578
     26 H5         -8.4208   22.3778  -13.1756 H         1 MCF         0.1935
     27 H6         -7.2754   21.1170  -11.5814 H         1 MCF         0.1379
     28 H7         -3.9684   26.2649   -9.4603 H         1 MCF         0.1167
     29 H8         -3.9780   24.2519   -7.9191 H         1 MCF         0.0995
     30 H9         -4.9290   21.6990   -9.2137 H         1 MCF         0.0676
     31 H10        -4.8053   22.8259   -6.5655 H         1 MCF         0.2101
     32 H11        -1.1918   22.2975   -8.3779 H         1 MCF         0.0632
     33 H12        -3.1610   20.4852   -8.0481 H         1 MCF         0.0647
     34 H13        -2.9816   22.9403   -6.5464 H         1 MCF         0.2100
     35 H14        -1.3943   22.0072  -10.9700 H         1 MCF         0.0402
     36 H15        -2.6032   20.7641  -10.5011 H         1 MCF         0.0402
     37 H16        -0.2204   18.0148   -9.0220 H         1 MCF         0.0341
     38 H17        -1.4690   18.2722  -10.2875 H         1 MCF         0.0341
     39 H18        -1.8242   18.6903   -8.5770 H         1 MCF         0.0341
@<TRIPOS>BOND
     1    1    2 1  
     2    2    3 1  
     3    2    8 1  
     4    3    4 1  
     5    4    5 1  
     6    5    6 2  
     7    6    7 1  
     8    7    8 2  
     9    7   11 1  
    10    8    9 1  
    11    9   10 2  
    12   10   11 1  
    13   11   12 1  
    14   12   13 1  
    15   12   15 1  
    16   13   14 1  
    17   13   17 1  
    18   15   16 1  
    19   16   17 1  
    20   16   19 1  
    21   17   18 1  
    22   19   20 1  
    23   20   21 1  
    24    1   22 1  
    25    2   23 1  
    26    3   24 1  
    27    3   25 1  
    28    4   26 1  
    29    5   27 1  
    30   10   28 1  
    31   12   29 1  
    32   13   30 1  
    33   14   31 1  
    34   16   32 1  
    35   17   33 1  
    36   18   34 1  
    37   19   35 1  
    38   19   36 1  
    39   21   37 1  
    40   21   38 1  
    41   21   39 1  
@<TRIPOS>SUBSTRUCTURE
     1 MCF         1

