### 
### Created by X-TOOL on Mon Sep 10 21:13:01 2018
### 

@<TRIPOS>MOLECULE
3ewh_ligand
   59    64     1     0     0
SMALL
GAST_HUCK


@<TRIPOS>ATOM
      1 C38        16.8160   -8.1090    1.3340 C.3       1 K11         0.0194
      2 N37        15.8220   -8.7540    2.2110 N.pl3     1 K11        -0.2927
      3 C35        15.8620   -8.6010    3.5410 C.ar      1 K11         0.1871
      4 N30        16.7330   -7.7290    4.0900 N.ar      1 K11        -0.2531
      5 N34        15.0370   -9.3280    4.3250 N.ar      1 K11        -0.2577
      6 C33        15.0690   -9.1880    5.6480 C.ar      1 K11         0.0113
      7 C32        15.9610   -8.2850    6.2320 C.ar      1 K11        -0.0191
      8 C31        16.8120   -7.5250    5.4230 C.ar      1 K11         0.0573
      9 C24        17.7600   -6.6090    5.9360 C.ar      1 K11         0.0661
     10 C25        18.8230   -6.2300    5.1060 C.ar      1 K11        -0.0364
     11 C26        19.7820   -5.3390    5.5830 C.ar      1 K11        -0.0411
     12 C27        19.6830   -4.8440    6.8790 C.ar      1 K11         0.0037
     13 N28        18.6790   -5.2100    7.6710 N.ar      1 K11        -0.2647
     14 C29        17.7220   -6.0710    7.2430 C.ar      1 K11         0.2047
     15 O36        16.6970   -6.4260    8.0760 O.3       1 K11        -0.2378
     16 C20        16.4890   -5.8270    9.2910 C.ar      1 K11         0.1220
     17 C21        15.7870   -4.6190    9.3570 C.ar      1 K11        -0.0390
     18 C22        15.5420   -4.0150   10.5940 C.ar      1 K11        -0.0466
     19 C13        16.9120   -6.4520   10.4710 C.ar      1 K11         0.0162
     20 C18        17.6040   -7.6720   10.4210 C.ar      1 K11        -0.0564
     21 C17        18.0360   -8.2900   11.5930 C.ar      1 K11        -0.0654
     22 C16        17.7780   -7.6890   12.8270 C.ar      1 K11        -0.0654
     23 C15        17.0980   -6.4710   12.8880 C.ar      1 K11        -0.0569
     24 C14        16.6600   -5.8480   11.7130 C.ar      1 K11         0.0088
     25 C23        15.9600   -4.6320   11.7770 C.ar      1 K11         0.0741
     26 N19        15.7480   -4.0550   12.9760 N.pl3     1 K11        -0.2212
     27 C12        14.5950   -3.5640   13.4570 C.2       1 K11         0.2535
     28 N5         13.4230   -3.4250   12.8230 N.pl3     1 K11        -0.2131
     29 C7         12.5670   -2.8950   13.7070 C.ar      1 K11         0.1091
     30 C8         11.2210   -2.5280   13.6320 C.ar      1 K11        -0.0133
     31 C9         10.5850   -1.9860   14.7570 C.ar      1 K11         0.0192
     32 C39         9.1150   -1.5770   14.6740 C.3       1 K11         0.3533
     33 F2          8.9350   -0.8550   13.5730 F         1 K11        -0.2399
     34 F3          8.7540   -0.8690   15.7530 F         1 K11        -0.2399
     35 F1          8.3730   -2.6640   14.6040 F         1 K11        -0.2399
     36 C10        11.2860   -1.8160   15.9530 C.ar      1 K11        -0.0543
     37 C11        12.6270   -2.1860   16.0300 C.ar      1 K11        -0.0401
     38 C6         13.2590   -2.7210   14.9080 C.ar      1 K11         0.0498
     39 N4         14.5040   -3.1400   14.7160 N.2       1 K11        -0.2739
     40 H1         16.6005   -8.3640    0.2859 H         1 K11         0.0488
     41 H2         17.8231   -8.4639    1.5981 H         1 K11         0.0488
     42 H3         16.7660   -7.0178    1.4635 H         1 K11         0.0488
     43 H4         15.0813   -9.3344    1.7922 H         1 K11         0.1858
     44 H5         14.4038   -9.7739    6.2719 H         1 K11         0.0884
     45 H6         15.9934   -8.1737    7.3098 H         1 K11         0.0656
     46 H7         18.8988   -6.6270    4.1002 H         1 K11         0.0742
     47 H8         20.6034   -5.0323    4.9456 H         1 K11         0.0628
     48 H9         20.4321   -4.1525    7.2476 H         1 K11         0.0816
     49 H10        15.4319   -4.1498    8.4466 H         1 K11         0.0492
     50 H11        15.0251   -3.0631   10.6361 H         1 K11         0.0479
     51 H12        17.8041   -8.1375    9.4627 H         1 K11         0.0610
     52 H13        18.5696   -9.2325   11.5471 H         1 K11         0.0592
     53 H14        18.1070   -8.1700   13.7410 H         1 K11         0.0591
     54 H15        16.9085   -6.0060   13.8487 H         1 K11         0.0611
     55 H16        16.5669   -3.9821   13.5964 H         1 K11         0.2271
     56 H17        13.2194   -3.6768   11.8452 H         1 K11         0.2345
     57 H18        10.6710   -2.6619   12.7075 H         1 K11         0.0781
     58 H19        10.7877   -1.3970   16.8197 H         1 K11         0.0698
     59 H20        13.1756   -2.0588   16.9562 H         1 K11         0.0610
@<TRIPOS>BOND
     1    1    2 1  
     2    2    3 1  
     3    3    4 ar 
     4    3    5 ar 
     5    4    8 ar 
     6    5    6 ar 
     7    6    7 ar 
     8    7    8 ar 
     9    8    9 1  
    10    9   10 ar 
    11    9   14 ar 
    12   10   11 ar 
    13   11   12 ar 
    14   12   13 ar 
    15   13   14 ar 
    16   14   15 1  
    17   15   16 1  
    18   16   17 ar 
    19   16   19 ar 
    20   17   18 ar 
    21   18   25 ar 
    22   19   20 ar 
    23   19   24 ar 
    24   20   21 ar 
    25   21   22 ar 
    26   22   23 ar 
    27   23   24 ar 
    28   24   25 ar 
    29   25   26 1  
    30   26   27 1  
    31   27   28 1  
    32   27   39 2  
    33   28   29 1  
    34   29   30 ar 
    35   29   38 ar 
    36   30   31 ar 
    37   31   32 1  
    38   31   36 ar 
    39   32   33 1  
    40   32   34 1  
    41   32   35 1  
    42   36   37 ar 
    43   37   38 ar 
    44   38   39 1  
    45    1   40 1  
    46    1   41 1  
    47    1   42 1  
    48    2   43 1  
    49    6   44 1  
    50    7   45 1  
    51   10   46 1  
    52   11   47 1  
    53   12   48 1  
    54   17   49 1  
    55   18   50 1  
    56   20   51 1  
    57   21   52 1  
    58   22   53 1  
    59   23   54 1  
    60   26   55 1  
    61   28   56 1  
    62   30   57 1  
    63   36   58 1  
    64   37   59 1  
@<TRIPOS>SUBSTRUCTURE
     1 K11         1

