### 
### Created by X-TOOL on Tue Oct 16 15:17:24 2018
### 

@<TRIPOS>MOLECULE
3ewj_ligand
   58    63     1     0     0
SMALL
GAST_HUCK


@<TRIPOS>ATOM
      1 C1         48.3220   34.1510   39.5790 C.3       1 MOL         0.0243
      2 C2         48.3980   32.6310   39.5670 C.3       1 MOL         0.0707
      3 C3         48.3980   33.4070   38.2620 C.3       1 MOL        -0.0246
      4 C4         49.4750   34.9150   40.1700 C.2       1 MOL         0.0372
      5 O1         50.6700   34.3040   39.9480 O.co2     1 MOL        -0.5689
      6 O2         49.4350   35.9670   40.8560 O.co2     1 MOL        -0.5689
      7 C5         47.1830   31.8040   39.8720 C.2       1 MOL         0.2059
      8 N1         47.5150   30.6990   40.5540 N.am      1 MOL        -0.2731
      9 O3         46.0630   32.1100   39.5240 O.2       1 MOL        -0.3440
     10 C6         48.9610   30.6530   40.8380 C.3       1 MOL         0.0704
     11 C7         49.5960   31.7490   39.9430 C.3       1 MOL        -0.0071
     12 C8         49.1120   30.9790   42.3220 C.ar      1 MOL        -0.0287
     13 C9         50.1630   30.4550   43.0890 C.ar      1 MOL        -0.0665
     14 C10        50.2390   30.7420   44.4530 C.ar      1 MOL        -0.0392
     15 C11        49.2570   31.5740   45.0810 C.ar      1 MOL         0.0875
     16 C12        48.2280   32.1270   44.3000 C.ar      1 MOL        -0.0392
     17 C13        48.1490   31.8260   42.9370 C.ar      1 MOL        -0.0665
     18 O4         49.2970   31.8520   46.4360 O.3       1 MOL        -0.3063
     19 C14        50.2610   31.1670   47.2500 C.3       1 MOL         0.1128
     20 C15        49.8780   29.6820   47.4790 C.ar      1 MOL         0.0165
     21 N2         49.1090   26.9690   47.9050 N.ar      1 MOL        -0.3054
     22 C16        48.1960   27.9230   47.5620 C.ar      1 MOL         0.0392
     23 C17        48.5380   29.3010   47.3140 C.ar      1 MOL        -0.0235
     24 C18        50.3850   27.3250   48.0150 C.ar      1 MOL         0.0360
     25 C19        50.8130   28.6620   47.8330 C.ar      1 MOL         0.0137
     26 C20        52.2000   28.9310   48.0070 C.ar      1 MOL        -0.0473
     27 C21        53.1150   27.9380   48.3400 C.ar      1 MOL        -0.0577
     28 C22        52.7110   26.6380   48.4990 C.ar      1 MOL        -0.0582
     29 C23        51.3400   26.3560   48.3600 C.ar      1 MOL        -0.0433
     30 C24        46.7990   27.5130   47.3460 C.ar      1 MOL        -0.0007
     31 C25        46.4000   26.1670   47.3220 C.ar      1 MOL        -0.0494
     32 C26        45.0380   25.8520   47.0900 C.ar      1 MOL        -0.0582
     33 C27        44.0980   26.8570   46.8400 C.ar      1 MOL        -0.0591
     34 C28        44.4950   28.1810   46.8370 C.ar      1 MOL        -0.0582
     35 C29        45.8260   28.5170   47.0930 C.ar      1 MOL        -0.0494
     36 H1         47.3836   34.6594   39.8453 H         1 MOL         0.0456
     37 H2         49.3131   33.4589   37.6538 H         1 MOL         0.0277
     38 H3         47.5198   33.3696   37.6007 H         1 MOL         0.0277
     39 H4         46.8636   29.9942   40.8350 H         1 MOL         0.1884
     40 H5         49.3924   29.6668   40.6118 H         1 MOL         0.0698
     41 H6         50.3505   32.3245   40.4993 H         1 MOL         0.0301
     42 H7         50.0580   31.3082   39.0473 H         1 MOL         0.0301
     43 H8         50.9149   29.8282   42.6233 H         1 MOL         0.0531
     44 H9         51.0500   30.3307   45.0431 H         1 MOL         0.0525
     45 H10        47.4966   32.7860   44.7537 H         1 MOL         0.0525
     46 H11        47.3445   32.2430   42.3420 H         1 MOL         0.0531
     47 H12        50.3249   31.6716   48.2253 H         1 MOL         0.0822
     48 H13        51.2404   31.2081   46.7510 H         1 MOL         0.0822
     49 H14        47.7849   30.0190   47.0101 H         1 MOL         0.0607
     50 H15        52.5558   29.9464   47.8752 H         1 MOL         0.0656
     51 H16        54.1594   28.1951   48.4753 H         1 MOL         0.0622
     52 H17        53.4242   25.8534   48.7243 H         1 MOL         0.0648
     53 H18        51.0041   25.3391   48.5278 H         1 MOL         0.0624
     54 H19        47.1259   25.3774   47.4792 H         1 MOL         0.0649
     55 H20        44.7197   24.8159   47.1066 H         1 MOL         0.0625
     56 H21        43.0626   26.5987   46.6494 H         1 MOL         0.0640
     57 H22        43.7703   28.9615   46.6351 H         1 MOL         0.0625
     58 H23        46.1215   29.5599   47.0988 H         1 MOL         0.0649
@<TRIPOS>BOND
     1    2    1 1  
     2    3    1 1  
     3    1    4 1  
     4    2    3 1  
     5    2    7 1  
     6   11    2 1  
     7    4    5 ar 
     8    4    6 ar 
     9    8    7 am 
    10    7    9 2  
    11   10    8 1  
    12   10   11 1  
    13   12   10 1  
    14   13   12 ar 
    15   17   12 ar 
    16   14   13 ar 
    17   15   14 ar 
    18   15   16 ar 
    19   18   15 1  
    20   16   17 ar 
    21   19   18 1  
    22   20   19 1  
    23   23   20 ar 
    24   20   25 ar 
    25   22   21 ar 
    26   21   24 ar 
    27   22   23 ar 
    28   22   30 1  
    29   24   25 ar 
    30   24   29 ar 
    31   25   26 ar 
    32   26   27 ar 
    33   27   28 ar 
    34   28   29 ar 
    35   30   31 ar 
    36   30   35 ar 
    37   31   32 ar 
    38   32   33 ar 
    39   33   34 ar 
    40   34   35 ar 
    41    1   36 1  
    42    3   37 1  
    43    3   38 1  
    44    8   39 1  
    45   10   40 1  
    46   11   41 1  
    47   11   42 1  
    48   13   43 1  
    49   14   44 1  
    50   16   45 1  
    51   17   46 1  
    52   19   47 1  
    53   19   48 1  
    54   23   49 1  
    55   26   50 1  
    56   27   51 1  
    57   28   52 1  
    58   29   53 1  
    59   31   54 1  
    60   32   55 1  
    61   33   56 1  
    62   34   57 1  
    63   35   58 1  
@<TRIPOS>SUBSTRUCTURE
     1 MOL         1

