### 
### Created by X-TOOL on Mon Sep 10 21:13:02 2018
### 

@<TRIPOS>MOLECULE
3exo_ligand
   43    45     1     0     0
SMALL
GAST_HUCK


@<TRIPOS>ATOM
      1 C          33.8520   40.5790    1.9270 C.ar      1 5MS        -0.0392
      2 C1         34.2310   40.0940    0.6790 C.ar      1 5MS        -0.0846
      3 C2         34.6980   40.9550   -0.3120 C.ar      1 5MS        -0.0620
      4 C3         34.7990   42.3260   -0.0820 C.ar      1 5MS         0.0411
      5 C4         34.4110   42.8130    1.1740 C.ar      1 5MS        -0.0290
      6 C5         33.9400   41.9600    2.1780 C.ar      1 5MS         0.0553
      7 N          35.2390   43.1900   -1.0100 N.pl3     1 5MS        -0.2610
      8 C6         34.5800   44.1400   -1.6950 C.ar      1 5MS         0.1457
      9 C7         35.2410   44.7520   -2.7700 C.ar      1 5MS         0.0166
     10 C8         34.5800   45.7460   -3.4990 C.ar      1 5MS         0.0547
     11 N9         33.3090   46.1020   -3.1600 N.ar      1 5MS        -0.2788
     12 C10        32.7360   45.4720   -2.1030 C.ar      1 5MS         0.0703
     13 N11        33.3130   44.5040   -1.3570 N.ar      1 5MS        -0.2507
     14 C12        35.1800   46.4710   -4.6810 C.ar      1 5MS         0.0031
     15 C13        34.3540   47.0430   -5.6690 C.ar      1 5MS        -0.0485
     16 C14        34.8770   47.7220   -6.7780 C.ar      1 5MS        -0.0578
     17 C15        36.2620   47.8380   -6.9300 C.ar      1 5MS        -0.0587
     18 C16        37.1080   47.2750   -5.9660 C.ar      1 5MS        -0.0578
     19 C17        36.5690   46.6030   -4.8620 C.ar      1 5MS        -0.0485
     20 C18        33.3500   39.5810    2.9430 C.3       1 5MS        -0.0413
     21 N19        33.5600   42.4250    3.3950 N.am      1 5MS        -0.1973
     22 S          33.5050   44.0500    3.9350 S.o2      1 5MS         0.0559
     23 C20        32.2160   44.7370    3.0520 C.3       1 5MS         0.0785
     24 O          32.9520   43.9950    5.5330 O.2       1 5MS        -0.1504
     25 O21        34.9330   44.8860    3.5520 O.2       1 5MS        -0.1504
     26 H1         34.1620   39.0316    0.4749 H         1 5MS         0.0483
     27 H2         34.9871   40.5526   -1.2762 H         1 5MS         0.0379
     28 H3         34.4775   43.8767    1.3722 H         1 5MS         0.0374
     29 H4         36.2417   43.1126   -1.2327 H         1 5MS         0.2140
     30 H5         36.2510   44.4585   -3.0325 H         1 5MS         0.0683
     31 H6         31.7293   45.7709   -1.8342 H         1 5MS         0.1079
     32 H7         33.2783   46.9550   -5.5680 H         1 5MS         0.0653
     33 H8         34.2104   48.1554   -7.5148 H         1 5MS         0.0626
     34 H9         36.6770   48.3585   -7.7855 H         1 5MS         0.0643
     35 H10        38.1832   47.3597   -6.0749 H         1 5MS         0.0626
     36 H11        37.2399   46.1730   -4.1271 H         1 5MS         0.0653
     37 H12        33.3773   38.5706    2.5089 H         1 5MS         0.0338
     38 H13        32.3164   39.8317    3.2235 H         1 5MS         0.0338
     39 H14        33.9907   39.6136    3.8366 H         1 5MS         0.0338
     40 H15        33.2769   41.7331    4.0592 H         1 5MS         0.2131
     41 H16        32.1010   45.7941    3.3337 H         1 5MS         0.0487
     42 H17        31.2864   44.1941    3.2779 H         1 5MS         0.0487
     43 H18        32.4299   44.6657    1.9754 H         1 5MS         0.0487
@<TRIPOS>BOND
     1    1    2 ar 
     2    1    6 ar 
     3    1   20 1  
     4    2    3 ar 
     5    3    4 ar 
     6    4    5 ar 
     7    4    7 1  
     8    5    6 ar 
     9    6   21 1  
    10    7    8 1  
    11    8    9 ar 
    12    8   13 ar 
    13    9   10 ar 
    14   10   11 ar 
    15   10   14 1  
    16   11   12 ar 
    17   12   13 ar 
    18   14   15 ar 
    19   14   19 ar 
    20   15   16 ar 
    21   16   17 ar 
    22   17   18 ar 
    23   18   19 ar 
    24   21   22 am 
    25   22   23 1  
    26   22   24 2  
    27   22   25 2  
    28    2   26 1  
    29    3   27 1  
    30    5   28 1  
    31    7   29 1  
    32    9   30 1  
    33   12   31 1  
    34   15   32 1  
    35   16   33 1  
    36   17   34 1  
    37   18   35 1  
    38   19   36 1  
    39   20   37 1  
    40   20   38 1  
    41   20   39 1  
    42   21   40 1  
    43   23   41 1  
    44   23   42 1  
    45   23   43 1  
@<TRIPOS>SUBSTRUCTURE
     1 5MS         1

