### 
### Created by X-TOOL on Mon Sep 10 21:12:59 2018
### 

@<TRIPOS>MOLECULE
3eyg_ligand
   43    45     1     0     0
SMALL
GAST_HUCK


@<TRIPOS>ATOM
      1 C1         11.4000   14.0760  -15.3490 C.3       1 MI1         0.0666
      2 C2         11.1110   14.1980  -16.8320 C.3       1 MI1         0.0578
      3 C4         10.0430   11.9040  -16.9620 C.3       1 MI1         0.0343
      4 C5         10.5440   11.6320  -15.5380 C.3       1 MI1        -0.0277
      5 C6         11.7130   12.5520  -15.1220 C.3       1 MI1        -0.0164
      6 N3          9.9090   13.3800  -17.0700 N.am      1 MI1        -0.2692
      7 O21         8.6640   15.1600  -17.5640 O.2       1 MI1        -0.3945
      8 C20         8.7790   13.9460  -17.4370 C.2       1 MI1         0.2046
      9 C22         7.5860   13.0420  -17.6590 C.3       1 MI1         0.1612
     10 C23         6.4020   13.8860  -17.8860 C.1       1 MI1         0.1115
     11 N24         5.4400   14.5060  -18.0770 N.1       1 MI1        -0.3008
     12 C7         13.0070   11.9550  -15.7290 C.3       1 MI1        -0.0601
     13 N8         12.6080   14.8790  -14.9290 N.pl3     1 MI1        -0.2856
     14 C9         13.6000   15.3730  -15.8880 C.3       1 MI1         0.0221
     15 C10        12.8720   15.1980  -13.6120 C.ar      1 MI1         0.1212
     16 C15        12.0370   14.7960  -12.5530 C.ar      1 MI1         0.0435
     17 C16        10.7790   14.0680  -12.4890 C.2       1 MI1        -0.0545
     18 C11        10.5020   14.0170  -11.1370 C.2       1 MI1         0.0249
     19 N12        11.4780   14.6740  -10.4210 N.pl3     1 MI1        -0.2665
     20 C14        12.4150   15.1380  -11.2680 C.ar      1 MI1         0.1355
     21 N17        13.5300   15.8160  -10.9460 N.ar      1 MI1        -0.2772
     22 C18        14.3090   16.1740  -12.0020 C.ar      1 MI1         0.0500
     23 N19        14.0160   15.9020  -13.3080 N.ar      1 MI1        -0.2730
     24 H1         10.5247   14.3924  -14.7627 H         1 MI1         0.0587
     25 H2         11.9580   13.8163  -17.4210 H         1 MI1         0.0546
     26 H3         10.9207   15.2475  -17.1011 H         1 MI1         0.0546
     27 H4          9.0696   11.4183  -17.1247 H         1 MI1         0.0522
     28 H5         10.7673   11.5303  -17.7007 H         1 MI1         0.0522
     29 H6         10.8827   10.5871  -15.4794 H         1 MI1         0.0288
     30 H7          9.7100   11.7870  -14.8377 H         1 MI1         0.0288
     31 H8         11.8244   12.4521  -14.0322 H         1 MI1         0.0322
     32 H9          7.4279   12.4104  -16.7724 H         1 MI1         0.0800
     33 H10         7.7615   12.4036  -18.5374 H         1 MI1         0.0800
     34 H11        13.8657   12.5850  -15.4537 H         1 MI1         0.0233
     35 H12        12.9153   11.9187  -16.8246 H         1 MI1         0.0233
     36 H13        13.1591   10.9375  -15.3398 H         1 MI1         0.0233
     37 H14        14.3840   15.9276  -15.3516 H         1 MI1         0.0492
     38 H15        13.1094   16.0398  -16.6123 H         1 MI1         0.0492
     39 H16        14.0512   14.5224  -16.4198 H         1 MI1         0.0492
     40 H17        10.1943   13.6600  -13.3122 H         1 MI1         0.0311
     41 H18         9.6341   13.5264  -10.6988 H         1 MI1         0.0922
     42 H19        11.4890   14.7917   -9.3978 H         1 MI1         0.2318
     43 H20        15.2261   16.7126  -11.7925 H         1 MI1         0.0975
@<TRIPOS>BOND
     1    2    1 1  
     2    1    5 1  
     3    1   13 1  
     4    6    2 1  
     5    3    4 1  
     6    3    6 1  
     7    4    5 1  
     8    5   12 1  
     9    6    8 am 
    10    8    7 2  
    11    8    9 1  
    12    9   10 1  
    13   10   11 3  
    14   13   14 1  
    15   13   15 1  
    16   15   16 ar 
    17   15   23 ar 
    18   16   17 1  
    19   16   20 ar 
    20   17   18 2  
    21   18   19 1  
    22   19   20 1  
    23   20   21 ar 
    24   21   22 ar 
    25   22   23 ar 
    26    1   24 1  
    27    2   25 1  
    28    2   26 1  
    29    3   27 1  
    30    3   28 1  
    31    4   29 1  
    32    4   30 1  
    33    5   31 1  
    34    9   32 1  
    35    9   33 1  
    36   12   34 1  
    37   12   35 1  
    38   12   36 1  
    39   14   37 1  
    40   14   38 1  
    41   14   39 1  
    42   17   40 1  
    43   18   41 1  
    44   19   42 1  
    45   22   43 1  
@<TRIPOS>SUBSTRUCTURE
     1 MI1         1

