### 
### Created by X-TOOL on Mon Sep 10 21:13:00 2018
### 

@<TRIPOS>MOLECULE
3eyh_ligand
   39    42     1     0     0
SMALL
GAST_HUCK


@<TRIPOS>ATOM
      1 O0          9.0710  -15.8700  -10.7010 O.2       1 IZA        -0.3903
      2 C11        10.0600  -15.2630  -11.1630 C.2       1 IZA         0.1765
      3 N2         11.0020  -14.7310  -10.3350 N.2       1 IZA        -0.2514
      4 C12        12.0870  -14.0540  -10.7930 C.2       1 IZA         0.0382
      5 C13        12.3000  -13.8740  -12.1640 C.3       1 IZA         0.0550
      6 C9         11.3690  -14.3870  -13.0810 C.ar      1 IZA         0.0278
      7 C1         11.5460  -14.2140  -14.4560 C.ar      1 IZA         0.1106
      8 C10        10.2320  -15.0720  -12.6260 C.ar      1 IZA         0.0474
      9 C8          9.2630  -15.6220  -13.6180 C.ar      1 IZA        -0.0066
     10 C7          8.1200  -16.3010  -13.2550 C.ar      1 IZA        -0.0201
     11 C6          7.2790  -16.7340  -14.2550 C.ar      1 IZA         0.1360
     12 F1          6.0970  -17.4650  -13.8310 F         1 IZA        -0.1788
     13 C5          7.5740  -16.5210  -15.6080 C.ar      1 IZA        -0.0234
     14 C4          8.6520  -15.8620  -15.9380 C.ar      1 IZA        -0.0469
     15 C3          9.5020  -15.4120  -15.0660 C.ar      1 IZA         0.0307
     16 C0         10.6560  -14.6980  -15.4090 C.ar      1 IZA         0.1313
     17 N1         11.1070  -14.3510  -16.6500 N.pl3     1 IZA        -0.2394
     18 C2         12.2640  -13.7000  -16.3920 C.2       1 IZA         0.1067
     19 N0         12.5660  -13.5720  -15.0800 N.2       1 IZA        -0.2508
     20 C14        13.1360  -13.1100  -17.4830 C.3       1 IZA        -0.0142
     21 C17        12.8300  -13.7360  -18.8490 C.3       1 IZA        -0.0861
     22 C16        14.6290  -13.2270  -17.2200 C.3       1 IZA        -0.0861
     23 C15        12.7910  -11.6220  -17.5200 C.3       1 IZA        -0.0861
     24 H1         12.8026  -13.6447  -10.0815 H         1 IZA         0.1324
     25 H2         13.2699  -14.3358  -12.4006 H         1 IZA         0.0780
     26 H3         12.3576  -12.7896  -12.3393 H         1 IZA         0.0780
     27 H4          7.8900  -16.4886  -12.2124 H         1 IZA         0.0585
     28 H5          6.9110  -16.9012  -16.3767 H         1 IZA         0.0598
     29 H6          8.8462  -15.6823  -16.9892 H         1 IZA         0.0669
     30 H7         10.6707  -14.5398  -17.5637 H         1 IZA         0.2422
     31 H8         13.4799  -13.2845  -19.6131 H         1 IZA         0.0116
     32 H9         11.7769  -13.5528  -19.1087 H         1 IZA         0.0116
     33 H10        13.0138  -14.8196  -18.8052 H         1 IZA         0.0116
     34 H11        14.8650  -12.7817  -16.2422 H         1 IZA         0.0116
     35 H12        15.1829  -12.6958  -18.0081 H         1 IZA         0.0116
     36 H13        14.9192  -14.2880  -17.2193 H         1 IZA         0.0116
     37 H14        11.7143  -11.4999  -17.7091 H         1 IZA         0.0116
     38 H15        13.3620  -11.1330  -18.3230 H         1 IZA         0.0116
     39 H16        13.0482  -11.1618  -16.5546 H         1 IZA         0.0116
@<TRIPOS>BOND
     1    1    2 2  
     2    2    3 1  
     3    2    8 1  
     4    3    4 2  
     5    4    5 1  
     6    5    6 1  
     7    6    7 ar 
     8    6    8 ar 
     9    7   16 ar 
    10    7   19 1  
    11    8    9 ar 
    12    9   10 ar 
    13    9   15 ar 
    14   10   11 ar 
    15   11   12 1  
    16   11   13 ar 
    17   13   14 ar 
    18   14   15 ar 
    19   15   16 ar 
    20   16   17 1  
    21   17   18 1  
    22   18   19 2  
    23   18   20 1  
    24   20   21 1  
    25   20   22 1  
    26   20   23 1  
    27    4   24 1  
    28    5   25 1  
    29    5   26 1  
    30   10   27 1  
    31   13   28 1  
    32   14   29 1  
    33   17   30 1  
    34   21   31 1  
    35   21   32 1  
    36   21   33 1  
    37   22   34 1  
    38   22   35 1  
    39   22   36 1  
    40   23   37 1  
    41   23   38 1  
    42   23   39 1  
@<TRIPOS>SUBSTRUCTURE
     1 IZA         1

