### 
### Created by X-TOOL on Mon Sep 10 21:12:57 2018
### 

@<TRIPOS>MOLECULE
3eyl_ligand
   78    81     1     0     0
SMALL
GAST_HUCK


@<TRIPOS>ATOM
      1 CAA        29.7810   -6.7240    7.5700 C.3       1 SMK        -0.0580
      2 CB         29.3600   -5.4400    6.8680 C.3       1 SMK         0.0050
      3 CA         29.4730   -4.2460    7.8160 C.3       1 SMK         0.0647
      4 N          28.8600   -3.0550    7.2100 N.4       1 SMK         0.2379
      5 C          30.9470   -3.9980    8.0950 C.2       1 SMK         0.2267
      6 O          31.7320   -3.7090    7.1960 O.2       1 SMK        -0.3907
      7 NAY        31.3150   -4.1290    9.3530 N.am      1 SMK        -0.2607
      8 CBI        32.7270   -3.9300    9.6930 C.3       1 SMK         0.1343
      9 CBB        33.2140   -5.0750   10.6070 C.2       1 SMK         0.2069
     10 OAF        32.4000   -5.9010   11.0150 O.2       1 SMK        -0.3942
     11 NBK        34.4890   -5.2500   10.9430 N.am      1 SMK        -0.2468
     12 CBF        33.0110   -2.4850   10.1940 C.3       1 SMK         0.0043
     13 CAS        32.3330   -2.1190   11.5250 C.3       1 SMK        -0.0056
     14 CAQ        31.9520   -0.6300   11.5590 C.3       1 SMK        -0.0349
     15 NAB        30.6900   -0.4170   10.8370 N.4       1 SMK         0.2185
     16 CAT        34.5290   -2.1540   10.2070 C.3       1 SMK        -0.0437
     17 CAU        35.3860   -3.0150   11.1510 C.3       1 SMK        -0.0290
     18 CBG        35.6330   -4.4080   10.5670 C.3       1 SMK         0.0481
     19 CAV        36.8530   -5.0280   11.2430 C.3       1 SMK        -0.0253
     20 CAW        36.4310   -6.4500   11.5890 C.3       1 SMK        -0.0101
     21 CBJ        34.9180   -6.3650   11.7920 C.3       1 SMK         0.1342
     22 CBA        34.5450   -6.0950   13.2540 C.2       1 SMK         0.2057
     23 OAE        34.4250   -4.9520   13.6900 O.2       1 SMK        -0.3942
     24 NAX        34.3570   -7.1860   13.9830 N.am      1 SMK        -0.2600
     25 CBH        33.9730   -7.1100   15.3960 C.3       1 SMK         0.1087
     26 CBC        35.1340   -6.5940   16.2620 C.ar      1 SMK        -0.0067
     27 CAM        34.8440   -5.8200   17.3890 C.ar      1 SMK        -0.0561
     28 CAI        35.8710   -5.3260   18.1940 C.ar      1 SMK        -0.0681
     29 CAG        37.1950   -5.6060   17.8620 C.ar      1 SMK        -0.0685
     30 CAJ        37.4890   -6.3750   16.7340 C.ar      1 SMK        -0.0681
     31 CAN        36.4620   -6.8690   15.9280 C.ar      1 SMK        -0.0561
     32 CBD        33.4480   -8.4800   15.8190 C.ar      1 SMK        -0.0067
     33 CAO        32.3600   -9.0040   15.1200 C.ar      1 SMK        -0.0561
     34 CAK        31.8310  -10.2440   15.4550 C.ar      1 SMK        -0.0681
     35 CAH        32.4080  -10.9580   16.5040 C.ar      1 SMK        -0.0685
     36 CAL        33.4950  -10.4390   17.2080 C.ar      1 SMK        -0.0681
     37 CAP        34.0210   -9.1980   16.8650 C.ar      1 SMK        -0.0561
     38 H1         29.6925   -7.5695    6.8719 H         1 SMK         0.0233
     39 H2         29.1299   -6.8969    8.4396 H         1 SMK         0.0233
     40 H3         30.8246   -6.6332    7.9055 H         1 SMK         0.0233
     41 H4         28.3172   -5.5371    6.5318 H         1 SMK         0.0343
     42 H5         30.0118   -5.2734    5.9977 H         1 SMK         0.0343
     43 H6         28.9553   -4.4760    8.7589 H         1 SMK         0.1098
     44 H7         28.9411   -2.2758    7.8443 H         1 SMK         0.2015
     45 H8         27.8862   -3.2364    7.0234 H         1 SMK         0.2015
     46 H9         29.3325   -2.8362    6.3469 H         1 SMK         0.2015
     47 H10        30.6463   -4.3590   10.0601 H         1 SMK         0.1885
     48 H11        33.2942   -4.0315    8.7560 H         1 SMK         0.0803
     49 H12        32.5616   -1.8201    9.4418 H         1 SMK         0.0350
     50 H13        33.0263   -2.3317   12.3521 H         1 SMK         0.0322
     51 H14        31.4232   -2.7257   11.6439 H         1 SMK         0.0322
     52 H15        32.7483   -0.0393   11.0825 H         1 SMK         0.0813
     53 H16        31.8323   -0.3085   12.6041 H         1 SMK         0.0813
     54 H17        30.4482    0.5612   10.8644 H         1 SMK         0.1994
     55 H18        29.9584   -0.9563   11.2728 H         1 SMK         0.1994
     56 H19        30.7977   -0.7097    9.8785 H         1 SMK         0.1994
     57 H20        34.6442   -1.1026   10.5090 H         1 SMK         0.0271
     58 H21        34.9136   -2.2862    9.1849 H         1 SMK         0.0271
     59 H22        34.8642   -3.1181   12.1139 H         1 SMK         0.0288
     60 H23        36.3538   -2.5169   11.3099 H         1 SMK         0.0288
     61 H24        35.7619   -4.3613    9.4756 H         1 SMK         0.0560
     62 H25        37.1156   -4.4701   12.1539 H         1 SMK         0.0290
     63 H26        37.7129   -5.0359   10.5571 H         1 SMK         0.0290
     64 H27        36.9278   -6.7893   12.5099 H         1 SMK         0.0313
     65 H28        36.6742   -7.1383   10.7662 H         1 SMK         0.0313
     66 H29        34.4402   -7.3012   11.4677 H         1 SMK         0.0802
     67 H30        34.4801   -8.0831   13.5587 H         1 SMK         0.1907
     68 H31        33.1484   -6.3884   15.4929 H         1 SMK         0.0880
     69 H32        33.8123   -5.6016   17.6399 H         1 SMK         0.0561
     70 H33        35.6410   -4.7299   19.0697 H         1 SMK         0.0600
     71 H34        37.9993   -5.2257   18.4813 H         1 SMK         0.0561
     72 H35        38.5214   -6.5897   16.4827 H         1 SMK         0.0600
     73 H36        36.6932   -7.4612   15.0500 H         1 SMK         0.0561
     74 H37        31.9226   -8.4370   14.3062 H         1 SMK         0.0561
     75 H38        30.9854  -10.6488   14.9109 H         1 SMK         0.0600
     76 H39        32.0074  -11.9279   16.7760 H         1 SMK         0.0561
     77 H40        33.9305  -11.0042   18.0241 H         1 SMK         0.0600
     78 H41        34.8686   -8.7939   17.4067 H         1 SMK         0.0561
@<TRIPOS>BOND
     1    1    2 1  
     2    2    3 1  
     3    3    4 1  
     4    3    5 1  
     5    5    6 2  
     6    5    7 am 
     7    7    8 1  
     8    8    9 1  
     9    8   12 1  
    10    9   10 2  
    11    9   11 am 
    12   11   18 1  
    13   11   21 1  
    14   12   13 1  
    15   12   16 1  
    16   13   14 1  
    17   14   15 1  
    18   16   17 1  
    19   17   18 1  
    20   18   19 1  
    21   19   20 1  
    22   20   21 1  
    23   21   22 1  
    24   22   23 2  
    25   22   24 am 
    26   24   25 1  
    27   25   26 1  
    28   25   32 1  
    29   26   27 ar 
    30   26   31 ar 
    31   27   28 ar 
    32   28   29 ar 
    33   29   30 ar 
    34   30   31 ar 
    35   32   33 ar 
    36   32   37 ar 
    37   33   34 ar 
    38   34   35 ar 
    39   35   36 ar 
    40   36   37 ar 
    41    1   38 1  
    42    1   39 1  
    43    1   40 1  
    44    2   41 1  
    45    2   42 1  
    46    3   43 1  
    47    4   44 1  
    48    4   45 1  
    49    4   46 1  
    50    7   47 1  
    51    8   48 1  
    52   12   49 1  
    53   13   50 1  
    54   13   51 1  
    55   14   52 1  
    56   14   53 1  
    57   15   54 1  
    58   15   55 1  
    59   15   56 1  
    60   16   57 1  
    61   16   58 1  
    62   17   59 1  
    63   17   60 1  
    64   18   61 1  
    65   19   62 1  
    66   19   63 1  
    67   20   64 1  
    68   20   65 1  
    69   21   66 1  
    70   24   67 1  
    71   25   68 1  
    72   27   69 1  
    73   28   70 1  
    74   29   71 1  
    75   30   72 1  
    76   31   73 1  
    77   33   74 1  
    78   34   75 1  
    79   35   76 1  
    80   36   77 1  
    81   37   78 1  
@<TRIPOS>SUBSTRUCTURE
     1 SMK         1

