### 
### Created by X-TOOL on Mon Sep 10 21:13:01 2018
### 

@<TRIPOS>MOLECULE
3eys_ligand
   88    90     1     0     0
SMALL
GAST_HUCK


@<TRIPOS>ATOM
      1 N          21.0060   -7.3640  -20.9180 N.am      1 PCA        -0.2655
      2 CA         21.7430   -8.5790  -20.5410 C.3       1 PCA         0.1330
      3 CB         23.2410   -8.2520  -20.5140 C.3       1 PCA         0.0045
      4 CG         23.3860   -7.2510  -21.6500 C.3       1 PCA         0.0416
      5 CD         21.9530   -6.8340  -21.9040 C.2       1 PCA         0.1784
      6 OE         21.6370   -6.1200  -22.8550 O.2       1 PCA        -0.3969
      7 C          21.2220   -9.3440  -19.3110 C.2       1 PCA         0.2042
      8 O          22.0080   -9.9700  -18.5840 O.2       1 PCA        -0.3944
      9 N          19.9070   -9.2850  -19.0890 N.am      1 PHE        -0.2619
     10 CA         19.2200  -10.3360  -18.3390 C.3       1 PHE         0.1404
     11 C          19.0790  -11.5020  -19.3160 C.2       1 PHE         0.2060
     12 O          19.0260  -11.2880  -20.5390 O.2       1 PHE        -0.3942
     13 CB         17.8440   -9.8850  -17.8550 C.3       1 PHE         0.0214
     14 CG         17.1720  -10.8610  -16.9100 C.ar      1 PHE        -0.0386
     15 CD1        17.6430  -11.0340  -15.6050 C.ar      1 PHE        -0.0601
     16 CD2        16.0580  -11.5960  -17.3220 C.ar      1 PHE        -0.0601
     17 CE1        17.0190  -11.9190  -14.7270 C.ar      1 PHE        -0.0686
     18 CE2        15.4230  -12.4850  -16.4530 C.ar      1 PHE        -0.0686
     19 CZ         15.9050  -12.6480  -15.1520 C.ar      1 PHE        -0.0687
     20 N          19.0200  -12.7210  -18.7860 N.am      1 ARG        -0.2636
     21 CA         19.0970  -13.9210  -19.6180 C.3       1 ARG         0.1311
     22 C          17.8410  -14.1620  -20.4540 C.2       1 ARG         0.2040
     23 O          16.7280  -14.2610  -19.9190 O.2       1 ARG        -0.3944
     24 CB         19.4040  -15.1390  -18.7600 C.3       1 ARG        -0.0092
     25 CG         19.9290  -16.3170  -19.5380 C.3       1 ARG        -0.0156
     26 CD         20.6660  -17.2330  -18.6060 C.3       1 ARG         0.0627
     27 NE         21.0050  -18.4930  -19.2460 N.pl3     1 ARG        -0.2723
     28 CZ         21.3220  -19.6020  -18.5880 C.cat     1 ARG         0.2882
     29 NH1        21.3370  -19.6100  -17.2580 N.pl3     1 ARG        -0.2849
     30 NH2        21.6170  -20.7060  -19.2640 N.pl3     1 ARG        -0.2849
     31 N          18.0460  -14.2490  -21.7680 N.am      1 HIS        -0.2625
     32 CA         16.9950  -14.5260  -22.7440 C.3       1 HIS         0.1369
     33 C          17.6560  -15.1000  -23.9900 C.2       1 HIS         0.2049
     34 O          18.5370  -14.4600  -24.5680 O.2       1 HIS        -0.3943
     35 CB         16.2680  -13.2390  -23.1520 C.3       1 HIS         0.0145
     36 CG         15.6070  -12.5150  -22.0210 C.2       1 HIS        -0.0027
     37 ND1        14.4470  -12.9630  -21.4240 N.2       1 HIS        -0.3252
     38 CD2        15.9320  -11.3620  -21.3910 C.2       1 HIS         0.0291
     39 CE1        14.0910  -12.1240  -20.4660 C.2       1 HIS         0.0907
     40 NE2        14.9750  -11.1430  -20.4280 N.pl3     1 HIS        -0.2752
     41 N          17.2450  -16.3000  -24.3990 N.am      1 ASP        -0.2678
     42 CA         17.7060  -16.8700  -25.6650 C.3       1 ASP         0.1058
     43 C          16.9940  -16.1980  -26.8450 C.2       1 ASP         0.0618
     44 O          15.7633  -16.3731  -27.0505 O.co2     1 ASP        -0.5665
     45 CB         17.4890  -18.3930  -25.7040 C.3       1 ASP         0.0351
     46 CG         18.2630  -19.1410  -24.6140 C.2       1 ASP         0.0387
     47 OD1        19.1110  -18.5290  -23.9200 O.co2     1 ASP        -0.5688
     48 OD2        18.0120  -20.3570  -24.4500 O.co2     1 ASP        -0.5688
     49 O38        17.6516  -15.4571  -27.6235 O.co2     1 ASP        -0.5665
     50 H1         20.1275   -7.0079  -20.5994 H         1 PCA         0.1883
     51 H2         21.6034   -9.2802  -21.3769 H         1 PCA         0.0801
     52 H3         23.8466   -9.1515  -20.6985 H         1 PCA         0.0337
     53 H4         23.5320   -7.8049  -19.5520 H         1 PCA         0.0337
     54 H5         23.8268   -7.7219  -22.5410 H         1 PCA         0.0505
     55 H6         24.0022   -6.3918  -21.3466 H         1 PCA         0.0505
     56 H7         19.3831   -8.5095  -19.4413 H         1 PHE         0.1885
     57 H8         19.8253  -10.6354  -17.4707 H         1 PHE         0.0823
     58 H9         17.1951   -9.7516  -18.7331 H         1 PHE         0.0474
     59 H10        17.9588   -8.9229  -17.3343 H         1 PHE         0.0474
     60 H11        18.5070  -10.4711  -15.2707 H         1 PHE         0.0557
     61 H12        15.6811  -11.4743  -18.3311 H         1 PHE         0.0557
     62 H13        17.3965  -12.0413  -13.7182 H         1 PHE         0.0599
     63 H14        14.5584  -13.0472  -16.7868 H         1 PHE         0.0599
     64 H15        15.4162  -13.3381  -14.4739 H         1 PHE         0.0559
     65 H16        18.9207  -12.8188  -17.7958 H         1 ARG         0.1883
     66 H17        19.9338  -13.7808  -20.3181 H         1 ARG         0.0800
     67 H18        18.4789  -15.4454  -18.2499 H         1 ARG         0.0313
     68 H19        20.1583  -14.8543  -18.0117 H         1 ARG         0.0313
     69 H20        20.6126  -15.9639  -20.3241 H         1 ARG         0.0301
     70 H21        19.0891  -16.8581  -19.9982 H         1 ARG         0.0301
     71 H22        20.0313  -17.4372  -17.7311 H         1 ARG         0.0689
     72 H23        21.5927  -16.7386  -18.2793 H         1 ARG         0.0689
     73 H24        20.9990  -18.5280  -20.2754 H         1 ARG         0.2642
     74 H25        21.5834  -20.4720  -16.7509 H         1 ARG         0.2615
     75 H26        21.1023  -18.7542  -16.7352 H         1 ARG         0.2615
     76 H27        21.6049  -20.6980  -20.2939 H         1 ARG         0.2615
     77 H28        21.8580  -21.5705  -18.7585 H         1 ARG         0.2615
     78 H29        18.9774  -14.1164  -22.1070 H         1 HIS         0.1885
     79 H30        16.2755  -15.2441  -22.3239 H         1 HIS         0.0817
     80 H31        15.4961  -13.4998  -23.8910 H         1 HIS         0.0420
     81 H32        17.0018  -12.5608  -23.6120 H         1 HIS         0.0420
     82 H33        16.7901  -10.7270  -21.6063 H         1 HIS         0.0729
     83 H34        13.2199  -12.2243  -19.8202 H         1 HIS         0.1199
     84 H35        14.9512  -10.3422  -19.7806 H         1 HIS         0.2361
     85 H36        16.6092  -16.8209  -23.8294 H         1 ASP         0.1877
     86 H37        18.7848  -16.6753  -25.7557 H         1 ASP         0.0745
     87 H38        17.8164  -18.7678  -26.6850 H         1 ASP         0.0471
     88 H39        16.4160  -18.5967  -25.5731 H         1 ASP         0.0471
@<TRIPOS>BOND
     1    1    2 1  
     2    1    5 am 
     3    2    3 1  
     4    2    7 1  
     5    3    4 1  
     6    4    5 1  
     7    5    6 2  
     8    7    8 2  
     9    7    9 am 
    10    9   10 1  
    11   10   11 1  
    12   10   13 1  
    13   11   12 2  
    14   11   20 am 
    15   13   14 1  
    16   14   15 ar 
    17   14   16 ar 
    18   15   17 ar 
    19   16   18 ar 
    20   17   19 ar 
    21   18   19 ar 
    22   20   21 1  
    23   21   22 1  
    24   21   24 1  
    25   22   23 2  
    26   22   31 am 
    27   24   25 1  
    28   25   26 1  
    29   26   27 1  
    30   27   28 ar 
    31   28   29 ar 
    32   28   30 ar 
    33   31   32 1  
    34   32   33 1  
    35   32   35 1  
    36   33   34 2  
    37   33   41 am 
    38   35   36 1  
    39   36   37 1  
    40   36   38 2  
    41   37   39 2  
    42   38   40 1  
    43   39   40 1  
    44   41   42 1  
    45   42   43 1  
    46   42   45 1  
    47   43   44 ar 
    48   45   46 1  
    49   46   47 ar 
    50   46   48 ar 
    51   43   49 ar 
    52    1   50 1  
    53    2   51 1  
    54    3   52 1  
    55    3   53 1  
    56    4   54 1  
    57    4   55 1  
    58    9   56 1  
    59   10   57 1  
    60   13   58 1  
    61   13   59 1  
    62   15   60 1  
    63   16   61 1  
    64   17   62 1  
    65   18   63 1  
    66   19   64 1  
    67   20   65 1  
    68   21   66 1  
    69   24   67 1  
    70   24   68 1  
    71   25   69 1  
    72   25   70 1  
    73   26   71 1  
    74   26   72 1  
    75   27   73 1  
    76   29   74 1  
    77   29   75 1  
    78   30   76 1  
    79   30   77 1  
    80   31   78 1  
    81   32   79 1  
    82   35   80 1  
    83   35   81 1  
    84   38   82 1  
    85   39   83 1  
    86   40   84 1  
    87   41   85 1  
    88   42   86 1  
    89   45   87 1  
    90   45   88 1  
@<TRIPOS>SUBSTRUCTURE
     1 PCA         1

