### 
### Created by X-TOOL on Mon Sep 10 21:13:01 2018
### 

@<TRIPOS>MOLECULE
3ezr_ligand
   62    67     1     0     0
SMALL
GAST_HUCK


@<TRIPOS>ATOM
      1 C4         -2.5790   33.9250   11.9540 C.ar      1 EZR        -0.0715
      2 C5          4.6110   28.1650    5.9080 C.ar      1 EZR        -0.0762
      3 C6          4.3960   26.1670    7.2380 C.ar      1 EZR        -0.0577
      4 C7         -3.4190   34.5520   12.8420 C.ar      1 EZR        -0.0530
      5 C8         -1.3160   32.9490    9.6090 C.ar      1 EZR        -0.0499
      6 C10         0.1260   31.1070    8.9290 C.ar      1 EZR         0.0334
      7 C13         2.9850   27.9640    7.7160 C.ar      1 EZR         0.1010
      8 C15        -0.3300   32.4030    8.8280 C.ar      1 EZR         0.0195
      9 C17        -4.5760   33.9270   13.2500 C.ar      1 EZR         0.0284
     10 C20         2.0200   29.8720    7.6570 C.2       1 EZR         0.1673
     11 C21         2.8920   26.5480   10.3570 C.3       1 EZR         0.0655
     12 C22         3.1370   24.5010    9.0020 C.3       1 EZR         0.0655
     13 C24         3.4500   23.9300   10.3750 C.3       1 EZR        -0.0122
     14 C26        -5.6460   30.5640   11.9180 C.3       1 EZR         0.0601
     15 C1          4.9910   26.8800    6.2230 C.ar      1 EZR        -0.0902
     16 C2         -0.4560   30.2590    9.8570 C.ar      1 EZR        -0.0528
     17 C3         -1.4650   30.7970   10.6320 C.ar      1 EZR        -0.0592
     18 C9         -4.8700   32.6810   12.7480 C.ar      1 EZR        -0.0140
     19 C11        -1.8880   32.1060   10.5320 C.ar      1 EZR        -0.0289
     20 C12        -2.8620   32.6750   11.4360 C.ar      1 EZR         0.0007
     21 C14         3.5950   28.6620    6.6930 C.ar      1 EZR         0.0193
     22 C16         3.3830   26.6720    8.0280 C.ar      1 EZR         0.0655
     23 C18        -4.0230   32.0620   11.8520 C.ar      1 EZR         0.0909
     24 C19         1.1540   31.0270    7.9520 C.2       1 EZR         0.1770
     25 C23         1.9520   25.7920   11.2700 C.3       1 EZR        -0.0122
     26 C25         1.5410   23.4300   11.8880 C.3       1 EZR        -0.0430
     27 N27         2.0120   28.7310    8.3070 N.pl3     1 EZR        -0.2565
     28 N28         1.3350   32.1770    7.3000 N.pl3     1 EZR        -0.2149
     29 N29         2.9660   29.8700    6.6760 N.2       1 EZR        -0.3149
     30 N30         0.4230   32.9860    7.8550 N.2       1 EZR        -0.2568
     31 N31         2.7890   25.9170    9.0580 N.pl3     1 EZR        -0.3014
     32 N32        -5.4480   34.5370   14.1590 N.pl3     1 EZR        -0.3378
     33 N33         2.5290   24.4330   11.4400 N.4       1 EZR         0.2358
     34 O34        -4.3580   30.8110   11.3760 O.3       1 EZR        -0.3215
     35 H1         -1.6667   34.4256   11.6503 H         1 EZR         0.0570
     36 H2          5.0720   28.7364    5.1105 H         1 EZR         0.0420
     37 H3          4.7404   25.1567    7.4271 H         1 EZR         0.0421
     38 H4         -3.1714   35.5370   13.2208 H         1 EZR         0.0437
     39 H5         -1.6256   33.9826    9.5049 H         1 EZR         0.0596
     40 H6          3.9238   26.4813   10.7324 H         1 EZR         0.0564
     41 H7          2.5929   27.6046   10.2923 H         1 EZR         0.0564
     42 H8          2.2905   23.9454    8.5722 H         1 EZR         0.0564
     43 H9          4.0205   24.3790    8.3582 H         1 EZR         0.0564
     44 H10         4.4803   24.2065   10.6432 H         1 EZR         0.0834
     45 H11         3.3651   22.8344   10.3268 H         1 EZR         0.0834
     46 H12        -5.9992   29.5759   11.5882 H         1 EZR         0.0580
     47 H13        -6.3452   31.3384   11.5695 H         1 EZR         0.0580
     48 H14        -5.5920   30.5862   13.0164 H         1 EZR         0.0580
     49 H15         5.7860   26.4141    5.6520 H         1 EZR         0.0487
     50 H16        -0.1369   29.2291    9.9689 H         1 EZR         0.0616
     51 H17        -1.9508   30.1555   11.3583 H         1 EZR         0.0590
     52 H18        -5.7786   32.1789   13.0602 H         1 EZR         0.0439
     53 H19         0.9524   25.7260   10.8156 H         1 EZR         0.0834
     54 H20         1.8794   26.2983   12.2439 H         1 EZR         0.0834
     55 H21         2.0332   22.4519   11.9928 H         1 EZR         0.0778
     56 H22         0.7319   23.3557   11.1465 H         1 EZR         0.0778
     57 H23         1.1224   23.7356   12.8582 H         1 EZR         0.0778
     58 H24         1.4034   28.4670    9.0949 H         1 EZR         0.2234
     59 H25         2.0108   32.3905    6.5526 H         1 EZR         0.2984
     60 H26        -5.2290   35.4703   14.5358 H         1 EZR         0.1728
     61 H27        -6.3088   34.0527   14.4512 H         1 EZR         0.1728
     62 H28         3.1394   24.5426   12.2347 H         1 EZR         0.2032
@<TRIPOS>BOND
     1    1    4 ar 
     2   20    1 ar 
     3    2   15 ar 
     4   21    2 ar 
     5   15    3 ar 
     6   22    3 ar 
     7    9    4 ar 
     8    5    8 ar 
     9   19    5 ar 
    10    8    6 ar 
    11   16    6 ar 
    12    6   24 2  
    13   21    7 ar 
    14    7   22 ar 
    15   27    7 1  
    16    8   30 2  
    17   18    9 ar 
    18    9   32 1  
    19   24   10 1  
    20   10   27 1  
    21   10   29 2  
    22   11   25 1  
    23   31   11 1  
    24   12   13 1  
    25   31   12 1  
    26   13   33 1  
    27   34   14 1  
    28   17   16 ar 
    29   19   17 ar 
    30   23   18 ar 
    31   20   19 1  
    32   23   20 ar 
    33   29   21 1  
    34   22   31 1  
    35   23   34 1  
    36   24   28 1  
    37   25   33 1  
    38   33   26 1  
    39   28   30 1  
    40    1   35 1  
    41    2   36 1  
    42    3   37 1  
    43    4   38 1  
    44    5   39 1  
    45   11   40 1  
    46   11   41 1  
    47   12   42 1  
    48   12   43 1  
    49   13   44 1  
    50   13   45 1  
    51   14   46 1  
    52   14   47 1  
    53   14   48 1  
    54   15   49 1  
    55   16   50 1  
    56   17   51 1  
    57   18   52 1  
    58   25   53 1  
    59   25   54 1  
    60   26   55 1  
    61   26   56 1  
    62   26   57 1  
    63   27   58 1  
    64   28   59 1  
    65   32   60 1  
    66   32   61 1  
    67   33   62 1  
@<TRIPOS>SUBSTRUCTURE
     1 EZR         1

