### 
### Created by X-TOOL on Mon Sep 10 21:13:01 2018
### 

@<TRIPOS>MOLECULE
3ezv_ligand
   58    63     1     0     0
SMALL
GAST_HUCK


@<TRIPOS>ATOM
      1 C1         -1.3570   30.1410   10.0370 C.ar      1 EZV        -0.0565
      2 C2         -1.8950   31.4030    9.9820 C.ar      1 EZV        -0.0256
      3 C3         -1.3610   32.3680    9.1600 C.ar      1 EZV        -0.0479
      4 C4         -0.2810   31.9710    8.4140 C.ar      1 EZV         0.0170
      5 C5          0.2860   30.7150    8.4700 C.ar      1 EZV         0.0345
      6 C6         -0.2600   29.7550    9.3020 C.ar      1 EZV        -0.0508
      7 N7          0.4700   32.6760    7.5210 N.2       1 EZV        -0.2658
      8 N8          1.4840   31.9770    6.9900 N.pl3     1 EZV        -0.2190
      9 C9          1.3760   30.7730    7.5670 C.2       1 EZV         0.1763
     10 C10         2.3430   29.6880    7.2960 C.2       1 EZV         0.1685
     11 N11         3.3510   29.7990    6.4670 N.pl3     1 EZV        -0.2568
     12 C12         4.0040   28.5970    6.5060 C.ar      1 EZV         0.0700
     13 C13         3.3820   27.7380    7.3830 C.ar      1 EZV         0.0547
     14 N14         2.3320   28.4520    7.8750 N.2       1 EZV        -0.3111
     15 C15         5.1290   28.1940    5.8110 C.ar      1 EZV        -0.0539
     16 C16         5.5590   26.9120    6.0560 C.ar      1 EZV        -0.0877
     17 C17         4.9190   26.0740    6.9370 C.ar      1 EZV        -0.0581
     18 C18         3.8010   26.4550    7.6380 C.ar      1 EZV         0.0469
     19 C19        -2.9750   31.7610   10.8590 C.ar      1 EZV        -0.0300
     20 N20         3.1440   25.6050    8.5300 N.pl3     1 EZV        -0.2997
     21 C21         2.9180   26.3300    9.7550 C.3       1 EZV         0.0671
     22 C22         2.0220   25.4640   10.6060 C.3       1 EZV        -0.0118
     23 N23         2.7380   24.1820   10.8440 N.4       1 EZV         0.2359
     24 C24         3.1180   23.4600    9.6020 C.3       1 EZV        -0.0118
     25 C25         3.9120   24.3960    8.7210 C.3       1 EZV         0.0671
     26 C26         1.9710   23.3080   11.7600 C.3       1 EZV        -0.0430
     27 C27        -3.9780   30.8940   11.2230 C.ar      1 EZV        -0.0645
     28 C28        -4.9490   31.2940   12.1130 C.ar      1 EZV        -0.0425
     29 C29        -4.9360   32.5620   12.6500 C.ar      1 EZV         0.0373
     30 C30        -3.9340   33.4320   12.2830 C.ar      1 EZV        -0.0425
     31 C31        -2.9620   33.0240   11.4020 C.ar      1 EZV        -0.0645
     32 N32        -5.9220   32.9760   13.5650 N.pl3     1 EZV        -0.3358
     33 H1         -1.8199   29.4122   10.6925 H         1 EZV         0.0606
     34 H2         -1.7656   33.3722    9.1057 H         1 EZV         0.0611
     35 H3          0.1529   28.7551    9.3712 H         1 EZV         0.0621
     36 H4          2.1816   32.2919    6.3007 H         1 EZV         0.2956
     37 H5          3.6011   30.6227    5.9013 H         1 EZV         0.2242
     38 H6          5.6407   28.8492    5.1153 H         1 EZV         0.0418
     39 H7          6.4367   26.5479    5.5343 H         1 EZV         0.0513
     40 H8          5.3113   25.0743    7.0844 H         1 EZV         0.0403
     41 H9          2.4273   27.2913    9.5427 H         1 EZV         0.0569
     42 H10         3.8724   26.5115   10.2708 H         1 EZV         0.0569
     43 H11         1.0743   25.2735   10.0810 H         1 EZV         0.0834
     44 H12         1.8164   25.9633   11.5643 H         1 EZV         0.0834
     45 H13         3.5991   24.4176   11.3120 H         1 EZV         0.2032
     46 H14         2.2114   23.1328    9.0719 H         1 EZV         0.0834
     47 H15         3.7307   22.5826    9.8566 H         1 EZV         0.0834
     48 H16         4.8703   24.6372    9.2041 H         1 EZV         0.0569
     49 H17         4.1016   23.9189    7.7482 H         1 EZV         0.0569
     50 H18         1.7057   23.8707   12.6672 H         1 EZV         0.0778
     51 H19         2.5841   22.4371   12.0350 H         1 EZV         0.0778
     52 H20         1.0533   22.9668   11.2586 H         1 EZV         0.0778
     53 H21        -4.0043   29.8929   10.8081 H         1 EZV         0.0595
     54 H22        -5.7342   30.6018   12.3948 H         1 EZV         0.0522
     55 H23        -3.9121   34.4371   12.6885 H         1 EZV         0.0522
     56 H24        -2.1693   33.7114   11.1297 H         1 EZV         0.0595
     57 H25        -6.6729   32.3274   13.8415 H         1 EZV         0.1729
     58 H26        -5.8927   33.9276   13.9582 H         1 EZV         0.1729
@<TRIPOS>BOND
     1    1    2 ar 
     2    1    6 ar 
     3    2    3 ar 
     4    2   19 1  
     5    3    4 ar 
     6    4    5 ar 
     7    4    7 2  
     8    5    6 ar 
     9    5    9 2  
    10    7    8 1  
    11    8    9 1  
    12    9   10 1  
    13   10   11 1  
    14   10   14 2  
    15   11   12 1  
    16   12   13 ar 
    17   12   15 ar 
    18   13   14 1  
    19   13   18 ar 
    20   15   16 ar 
    21   16   17 ar 
    22   17   18 ar 
    23   18   20 1  
    24   19   27 ar 
    25   19   31 ar 
    26   20   21 1  
    27   20   25 1  
    28   21   22 1  
    29   22   23 1  
    30   23   24 1  
    31   23   26 1  
    32   24   25 1  
    33   27   28 ar 
    34   28   29 ar 
    35   29   30 ar 
    36   29   32 1  
    37   30   31 ar 
    38    1   33 1  
    39    3   34 1  
    40    6   35 1  
    41    8   36 1  
    42   11   37 1  
    43   15   38 1  
    44   16   39 1  
    45   17   40 1  
    46   21   41 1  
    47   21   42 1  
    48   22   43 1  
    49   22   44 1  
    50   23   45 1  
    51   24   46 1  
    52   24   47 1  
    53   25   48 1  
    54   25   49 1  
    55   26   50 1  
    56   26   51 1  
    57   26   52 1  
    58   27   53 1  
    59   28   54 1  
    60   30   55 1  
    61   31   56 1  
    62   32   57 1  
    63   32   58 1  
@<TRIPOS>SUBSTRUCTURE
     1 EZV         1

