### 
### Created by X-TOOL on Mon Sep 10 21:12:58 2018
### 

@<TRIPOS>MOLECULE
3f07_ligand
   37    38     1     0     0
SMALL
GAST_HUCK


@<TRIPOS>ATOM
      1 N1        -27.3910   31.0390  -40.1790 N.pl3     1 AGE        -0.2614
      2 C2        -22.6810   31.9490  -45.4140 C.ar      1 AGE        -0.0684
      3 N2        -29.3170   25.1940  -38.5060 N.am      1 AGE        -0.1682
      4 C4        -21.6490   32.1850  -43.1150 C.ar      1 AGE        -0.0580
      5 C5        -22.8920   31.7590  -42.4440 C.ar      1 AGE        -0.0264
      6 C6        -24.0350   31.4280  -43.3290 C.ar      1 AGE        -0.0580
      7 O1        -30.3160   24.3350  -38.3920 O.3       1 AGE        -0.2729
      8 O2        -30.6400   26.8100  -39.2920 O.2       1 AGE        -0.3983
      9 O3        -23.3360   31.4600  -38.5510 O.2       1 AGE        -0.3897
     10 C1        -23.9330   31.5200  -44.7930 C.ar      1 AGE        -0.0681
     11 C3        -21.5320   32.2840  -44.5650 C.ar      1 AGE        -0.0681
     12 C7        -22.7960   31.7270  -40.8910 C.3       1 AGE         0.0508
     13 C8        -23.7630   31.3790  -39.6860 C.2       1 AGE         0.1231
     14 C9        -25.2330   30.9450  -39.7890 C.2       1 AGE         0.0298
     15 C10       -26.2540   31.7800  -40.2470 C.2       1 AGE         0.0527
     16 C11       -28.6860   31.6210  -40.5910 C.3       1 AGE         0.0456
     17 C12       -27.2160   29.7150  -39.6950 C.2       1 AGE         0.0693
     18 C13       -25.8260   29.6680  -39.4450 C.2       1 AGE        -0.0451
     19 C14       -28.3030   28.6660  -39.5160 C.2       1 AGE        -0.0271
     20 C15       -28.2540   27.3420  -39.0520 C.2       1 AGE         0.0010
     21 C16       -29.5150   26.4580  -38.9710 C.2       1 AGE         0.2034
     22 H1        -22.6021   32.0191  -46.4929 H         1 AGE         0.0561
     23 H2        -28.3950   24.9085  -38.2446 H         1 AGE         0.2198
     24 H3        -20.7880   32.4344  -42.5054 H         1 AGE         0.0561
     25 H4        -24.9711   31.1096  -42.8846 H         1 AGE         0.0561
     26 H5        -29.9865   23.5109  -38.0531 H         1 AGE         0.2489
     27 H6        -24.7868   31.2695  -45.4122 H         1 AGE         0.0600
     28 H7        -20.5990   32.6041  -45.0145 H         1 AGE         0.0600
     29 H8        -22.4852   32.7551  -40.6535 H         1 AGE         0.0637
     30 H9        -21.9532   31.0407  -40.7217 H         1 AGE         0.0637
     31 H10       -26.1590   32.8100  -40.5876 H         1 AGE         0.1033
     32 H11       -28.5327   32.6585  -40.9228 H         1 AGE         0.0586
     33 H12       -29.3817   31.6075  -39.7391 H         1 AGE         0.0586
     34 H13       -29.1071   31.0301  -41.4178 H         1 AGE         0.0586
     35 H14       -25.2850   28.8071  -39.0549 H         1 AGE         0.0433
     36 H15       -29.2991   29.0030  -39.7989 H         1 AGE         0.0725
     37 H16       -27.2969   26.9267  -38.7399 H         1 AGE         0.0545
@<TRIPOS>BOND
     1    1   15 1  
     2    1   16 1  
     3   17    1 1  
     4   10    2 ar 
     5   11    2 ar 
     6    3    7 1  
     7   21    3 am 
     8    5    4 ar 
     9    4   11 ar 
    10    5    6 ar 
    11   12    5 1  
    12    6   10 ar 
    13   21    8 2  
    14   13    9 2  
    15   13   12 1  
    16   14   13 1  
    17   14   15 2  
    18   18   14 1  
    19   17   18 2  
    20   19   17 1  
    21   20   19 2  
    22   20   21 1  
    23    2   22 1  
    24    3   23 1  
    25    4   24 1  
    26    6   25 1  
    27    7   26 1  
    28   10   27 1  
    29   11   28 1  
    30   12   29 1  
    31   12   30 1  
    32   15   31 1  
    33   16   32 1  
    34   16   33 1  
    35   16   34 1  
    36   18   35 1  
    37   19   36 1  
    38   20   37 1  
@<TRIPOS>SUBSTRUCTURE
     1 AGE         1

