### 
### Created by X-TOOL on Mon Sep 10 21:12:58 2018
### 

@<TRIPOS>MOLECULE
3f0r_ligand
   44    44     1     0     0
SMALL
GAST_HUCK


@<TRIPOS>ATOM
      1 O1         47.2150   -0.4040   12.0720 O.3       1 TSN        -0.2729
      2 O2         45.6310    0.8080   10.2230 O.2       1 TSN        -0.3988
      3 O3         40.5610   -0.6150    5.5460 O.2       1 TSN        -0.3812
      4 N1         45.9190   -0.8560   11.7090 N.am      1 TSN        -0.1684
      5 N2         35.7150   -4.9800    4.8270 N.pl3     1 TSN        -0.3118
      6 C1         38.6440   -1.9690    5.9650 C.ar      1 TSN         0.0217
      7 C2         38.7160   -2.6310    4.6490 C.ar      1 TSN        -0.0543
      8 C3         37.7700   -3.6090    4.2770 C.ar      1 TSN        -0.0377
      9 C4         36.6930   -3.9870    5.1960 C.ar      1 TSN         0.0456
     10 C5         36.6250   -3.3290    6.5080 C.ar      1 TSN        -0.0377
     11 C6         37.5670   -2.3530    6.8840 C.ar      1 TSN        -0.0543
     12 C7         39.6640   -0.9180    6.3470 C.2       1 TSN         0.1385
     13 C8         39.6050   -0.2170    7.7210 C.3       1 TSN         0.0582
     14 C9         41.0080    0.0870    8.2430 C.2       1 TSN        -0.0497
     15 C10        41.6780   -0.6290    9.1860 C.2       1 TSN        -0.0439
     16 C11        43.0330   -0.1350    9.5320 C.2       1 TSN        -0.0556
     17 C12        43.8460   -0.7270   10.4550 C.2       1 TSN        -0.0023
     18 C13        45.1820   -0.2010   10.7770 C.2       1 TSN         0.2026
     19 C14        38.8170    1.0970    7.6160 C.3       1 TSN        -0.0365
     20 C15        41.0750   -1.8740    9.8600 C.3       1 TSN        -0.0375
     21 C17        35.7630   -5.6520    3.5110 C.3       1 TSN         0.0163
     22 C16        34.6150   -5.3640    5.7550 C.3       1 TSN         0.0163
     23 H1         47.7764   -0.4072   11.3057 H         1 TSN         0.2489
     24 H2         45.5426   -1.6718   12.1481 H         1 TSN         0.2198
     25 H3         39.5069   -2.3623    3.9581 H         1 TSN         0.0638
     26 H4         37.8402   -4.0840    3.3051 H         1 TSN         0.0531
     27 H5         35.8350   -3.6001    7.1990 H         1 TSN         0.0531
     28 H6         37.4962   -1.8825    7.8580 H         1 TSN         0.0638
     29 H7         39.0970   -0.8836    8.4334 H         1 TSN         0.0699
     30 H8         41.5169    0.9534    7.8232 H         1 TSN         0.0697
     31 H9         43.4011    0.7525    9.0194 H         1 TSN         0.0698
     32 H10        43.4938   -1.6191   10.9707 H         1 TSN         0.0537
     33 H11        37.8043    0.8882    7.2406 H         1 TSN         0.0283
     34 H12        39.3316    1.7788    6.9230 H         1 TSN         0.0283
     35 H13        38.7505    1.5651    8.6092 H         1 TSN         0.0283
     36 H14        40.0687   -2.0586    9.4558 H         1 TSN         0.0349
     37 H15        41.0094   -1.7078   10.9454 H         1 TSN         0.0349
     38 H16        41.7158   -2.7456    9.6605 H         1 TSN         0.0349
     39 H17        34.9315   -6.3681    3.4345 H         1 TSN         0.0480
     40 H18        36.7184   -6.1871    3.4071 H         1 TSN         0.0480
     41 H19        35.6747   -4.9009    2.7123 H         1 TSN         0.0480
     42 H20        34.7046   -4.7881    6.6879 H         1 TSN         0.0480
     43 H21        34.6830   -6.4387    5.9795 H         1 TSN         0.0480
     44 H22        33.6451   -5.1487    5.2830 H         1 TSN         0.0480
@<TRIPOS>BOND
     1    4    1 1  
     2   18    2 2  
     3   12    3 2  
     4   18    4 am 
     5    9    5 1  
     6    5   21 1  
     7    5   22 1  
     8    6    7 ar 
     9    6   11 ar 
    10   12    6 1  
    11    7    8 ar 
    12    8    9 ar 
    13   10    9 ar 
    14   11   10 ar 
    15   13   12 1  
    16   14   13 1  
    17   13   19 1  
    18   15   14 2  
    19   16   15 1  
    20   15   20 1  
    21   17   16 2  
    22   17   18 1  
    23    1   23 1  
    24    4   24 1  
    25    7   25 1  
    26    8   26 1  
    27   10   27 1  
    28   11   28 1  
    29   13   29 1  
    30   14   30 1  
    31   16   31 1  
    32   17   32 1  
    33   19   33 1  
    34   19   34 1  
    35   19   35 1  
    36   20   36 1  
    37   20   37 1  
    38   20   38 1  
    39   21   39 1  
    40   21   40 1  
    41   21   41 1  
    42   22   42 1  
    43   22   43 1  
    44   22   44 1  
@<TRIPOS>SUBSTRUCTURE
     1 TSN         1

