### 
### Created by X-TOOL on Mon Sep 10 21:12:57 2018
### 

@<TRIPOS>MOLECULE
3f15_ligand
   40    40     1     0     0
SMALL
GAST_HUCK


@<TRIPOS>ATOM
      1 N1         -1.9550   -5.0850   -3.7950 N.am      1 HS1        -0.2140
      2 C2         -4.9290   -6.6750   -6.9970 C.ar      1 HS1        -0.0313
      3 N2         -1.6140   -2.1030   -5.3110 N.am      1 HS1        -0.1629
      4 C4         -4.7400   -5.8430   -8.1050 C.ar      1 HS1         0.0908
      5 C5         -2.5590   -5.1750   -7.2270 C.ar      1 HS1        -0.0440
      6 C6         -1.6090   -5.9850   -1.3390 C.3       1 HS1         0.0953
      7 O1         -1.6050   -7.5090   -4.5700 O.2       1 HS1        -0.1514
      8 O2         -0.3230   -5.8060   -5.5920 O.2       1 HS1        -0.1514
      9 O3         -5.6780   -5.7400   -9.1140 O.3       1 HS1        -0.3212
     10 O4         -1.5030   -8.3040   -1.8940 O.3       1 HS1        -0.3924
     11 O7         -3.2590   -2.8540   -4.0040 O.2       1 HS1        -0.3952
     12 C9         -2.0750   -2.8940   -4.3480 C.2       1 HS1         0.2177
     13 O5         -2.4990   -1.1930   -5.8960 O.3       1 HS1        -0.2717
     14 C11        -1.1100   -3.8820   -3.7080 C.3       1 HS1         0.1203
     15 C8         -2.4980   -5.6870   -2.5450 C.3       1 HS1         0.0602
     16 O6         -0.8500   -4.8410   -0.9580 O.3       1 HS1        -0.3879
     17 C12        -0.6870   -7.1540   -1.6500 C.3       1 HS1         0.0717
     18 S1         -1.5910   -6.1300   -4.9960 S.o2      1 HS1         0.0677
     19 C3         -2.7440   -5.9980   -6.1110 C.ar      1 HS1         0.0973
     20 C7         -3.5520   -5.0970   -8.2130 C.ar      1 HS1        -0.0313
     21 C10        -6.6590   -6.7570   -9.3570 C.3       1 HS1         0.0594
     22 C1         -3.9320   -6.7500   -6.0100 C.ar      1 HS1        -0.0440
     23 H1         -5.8380   -7.2577   -6.9004 H         1 HS1         0.0542
     24 H2         -0.6609   -2.1572   -5.6088 H         1 HS1         0.2217
     25 H3         -1.6474   -4.5974   -7.3292 H         1 HS1         0.0608
     26 H4         -2.2553   -6.2656   -0.4943 H         1 HS1         0.0632
     27 H5         -2.0235   -8.4912   -1.1216 H         1 HS1         0.2095
     28 H6         -2.0432   -0.6945   -6.5640 H         1 HS1         0.2490
     29 H7         -0.1782   -3.9855   -4.2834 H         1 HS1         0.0719
     30 H8         -0.8710   -3.6157   -2.6678 H         1 HS1         0.0719
     31 H9         -2.9529   -6.6451   -2.8367 H         1 HS1         0.0506
     32 H10        -3.2817   -5.0024   -2.1884 H         1 HS1         0.0506
     33 H11        -1.4402   -4.1321   -0.7305 H         1 HS1         0.2099
     34 H12        -0.0211   -7.3427   -0.7951 H         1 HS1         0.0583
     35 H13        -0.0839   -6.9276   -2.5416 H         1 HS1         0.0583
     36 H14        -3.4025   -4.4523   -9.0716 H         1 HS1         0.0542
     37 H15        -7.2937   -6.4591  -10.2046 H         1 HS1         0.0577
     38 H16        -7.2824   -6.8870   -8.4601 H         1 HS1         0.0577
     39 H17        -6.1536   -7.7051   -9.5929 H         1 HS1         0.0577
     40 H18        -4.0792   -7.3988   -5.1541 H         1 HS1         0.0608
@<TRIPOS>BOND
     1    1   14 1  
     2    1   15 1  
     3   18    1 am 
     4    4    2 ar 
     5    2   22 ar 
     6   12    3 am 
     7    3   13 1  
     8    4    9 1  
     9   20    4 ar 
    10   19    5 ar 
    11    5   20 ar 
    12   15    6 1  
    13    6   16 1  
    14    6   17 1  
    15   18    7 2  
    16   18    8 2  
    17    9   21 1  
    18   17   10 1  
    19   12   11 2  
    20   14   12 1  
    21   18   19 1  
    22   19   22 ar 
    23    2   23 1  
    24    3   24 1  
    25    5   25 1  
    26    6   26 1  
    27   10   27 1  
    28   13   28 1  
    29   14   29 1  
    30   14   30 1  
    31   15   31 1  
    32   15   32 1  
    33   16   33 1  
    34   17   34 1  
    35   17   35 1  
    36   20   36 1  
    37   21   37 1  
    38   21   38 1  
    39   21   39 1  
    40   22   40 1  
@<TRIPOS>SUBSTRUCTURE
     1 HS1         1

