### 
### Created by X-TOOL on Mon Sep 10 21:12:57 2018
### 

@<TRIPOS>MOLECULE
3f16_ligand
   33    33     1     0     0
SMALL
GAST_HUCK


@<TRIPOS>ATOM
      1 O3         -4.0330   -3.1390   -4.2650 O.2       1 HS3        -0.3948
      2 C8         -2.8350   -3.2600   -4.3480 C.2       1 HS3         0.2228
      3 N1         -2.1170   -2.5480   -5.2300 N.am      1 HS3        -0.1626
      4 O6         -2.7970   -1.5770   -5.9840 O.3       1 HS3        -0.2717
      5 C9         -1.7820   -4.2410   -3.7640 C.3       1 HS3         0.1507
      6 C7         -1.3610   -4.0100   -2.4770 C.3       1 HS3         0.0808
      7 O4         -2.5240   -3.6340   -1.6980 O.3       1 HS3        -0.3908
      8 N2         -2.3020   -5.6730   -3.6680 N.am      1 HS3        -0.2244
      9 S1         -1.9000   -6.4430   -5.0230 S.o2      1 HS3         0.0656
     10 O1         -1.8310   -7.8360   -4.6690 O.2       1 HS3        -0.1516
     11 O2         -0.6020   -5.9870   -5.4460 O.2       1 HS3        -0.1516
     12 C3         -2.9500   -6.2610   -6.2420 C.ar      1 HS3         0.0971
     13 C6         -4.0980   -7.0610   -6.3130 C.ar      1 HS3        -0.0441
     14 C5         -5.0090   -6.9350   -7.3650 C.ar      1 HS3        -0.0313
     15 C4         -4.7760   -6.0080   -8.3880 C.ar      1 HS3         0.0908
     16 C2         -3.6300   -5.2120   -8.3300 C.ar      1 HS3        -0.0313
     17 C1         -2.7210   -5.3390   -7.2740 C.ar      1 HS3        -0.0441
     18 O5         -5.6410   -5.8620   -9.4510 O.3       1 HS3        -0.3212
     19 C10        -6.7410   -6.7420   -9.6840 C.3       1 HS3         0.0594
     20 H1         -1.1359   -2.7025   -5.3461 H         1 HS3         0.2217
     21 H2         -2.1846   -1.1446   -6.5674 H         1 HS3         0.2490
     22 H3         -0.9104   -4.2065   -4.4342 H         1 HS3         0.0776
     23 H4         -0.6215   -3.1958   -2.4644 H         1 HS3         0.0602
     24 H5         -0.9091   -4.9223   -2.0604 H         1 HS3         0.0602
     25 H6         -2.9105   -2.8486   -2.0670 H         1 HS3         0.2097
     26 H7         -2.8049   -6.0645   -2.8974 H         1 HS3         0.1705
     27 H8         -4.2834   -7.7932   -5.5354 H         1 HS3         0.0608
     28 H9         -5.8973   -7.5558   -7.3891 H         1 HS3         0.0542
     29 H10        -3.4423   -4.4864   -9.1132 H         1 HS3         0.0542
     30 H11        -1.8318   -4.7193   -7.2532 H         1 HS3         0.0608
     31 H12        -7.2811   -6.4225  -10.5874 H         1 HS3         0.0577
     32 H13        -7.4220   -6.7143   -8.8206 H         1 HS3         0.0577
     33 H14        -6.3673   -7.7671   -9.8235 H         1 HS3         0.0577
@<TRIPOS>BOND
     1    1    2 2  
     2    2    3 am 
     3    2    5 1  
     4    3    4 1  
     5    5    6 1  
     6    5    8 1  
     7    6    7 1  
     8    8    9 am 
     9    9   10 2  
    10    9   11 2  
    11    9   12 1  
    12   12   13 ar 
    13   12   17 ar 
    14   13   14 ar 
    15   14   15 ar 
    16   15   16 ar 
    17   15   18 1  
    18   16   17 ar 
    19   18   19 1  
    20    3   20 1  
    21    4   21 1  
    22    5   22 1  
    23    6   23 1  
    24    6   24 1  
    25    7   25 1  
    26    8   26 1  
    27   13   27 1  
    28   14   28 1  
    29   16   29 1  
    30   17   30 1  
    31   19   31 1  
    32   19   32 1  
    33   19   33 1  
@<TRIPOS>SUBSTRUCTURE
     1 HS3         1

