### 
### Created by X-TOOL on Mon Sep 10 21:12:57 2018
### 

@<TRIPOS>MOLECULE
3f17_ligand
   33    34     1     0     0
SMALL
GAST_HUCK


@<TRIPOS>ATOM
      1 O4         -0.2930   -5.3680    5.1730 O.2       1 HS4        -0.1501
      2 S1          0.7070   -5.9110    4.2810 S.o2      1 HS4         0.0703
      3 O3          0.4190   -7.0990    3.6070 O.2       1 HS4        -0.1501
      4 N1          0.7600   -4.7210    3.2140 N.am      1 HS4        -0.2276
      5 C12         0.5100   -3.3290    3.4630 C.3       1 HS4         0.1298
      6 C14         1.6640   -2.6940    4.1890 C.2       1 HS4         0.3057
      7 O1          2.8140   -2.6850    3.7560 O.2       1 HS4        -0.3264
      8 N2          1.3410   -2.1240    5.3270 N.2       1 HS4         0.0367
      9 O2          2.3260   -1.4820    6.0380 O.2       1 HS4        -0.1732
     10 C13         1.8640   -6.0310    5.3800 C.ar      1 HS4         0.1083
     11 C10         2.9560   -6.8100    4.9840 C.ar      1 HS4        -0.0345
     12 C5          4.0380   -7.0280    5.8320 C.ar      1 HS4        -0.0522
     13 C11         1.8870   -5.4460    6.6500 C.ar      1 HS4        -0.0345
     14 C8          2.9740   -5.6630    7.5010 C.ar      1 HS4        -0.0522
     15 C2          4.0660   -6.4360    7.0930 C.ar      1 HS4        -0.0178
     16 C1          5.2040   -6.7240    8.0100 C.ar      1 HS4        -0.0179
     17 C4          6.5320   -6.7750    7.6000 C.ar      1 HS4        -0.0540
     18 C7          7.5390   -7.0950    8.5130 C.ar      1 HS4        -0.0612
     19 C9          7.2220   -7.3960    9.8310 C.ar      1 HS4        -0.0617
     20 C6          5.8940   -7.3770   10.2380 C.ar      1 HS4        -0.0612
     21 C3          4.8940   -7.0580    9.3310 C.ar      1 HS4        -0.0540
     22 H1          0.9917   -4.9728    2.2743 H         1 HS4         0.1703
     23 H2         -0.3980   -3.2309    4.0761 H         1 HS4         0.0728
     24 H3          0.3617   -2.8131    2.5029 H         1 HS4         0.0728
     25 H4          2.9598   -7.2537    3.9950 H         1 HS4         0.0637
     26 H5          4.8593   -7.6586    5.5112 H         1 HS4         0.0624
     27 H6          1.0609   -4.8237    6.9746 H         1 HS4         0.0637
     28 H7          2.9709   -5.2254    8.4928 H         1 HS4         0.0624
     29 H8          6.7864   -6.5655    6.5673 H         1 HS4         0.0624
     30 H9          8.5740   -7.1085    8.1910 H         1 HS4         0.0618
     31 H10         8.0057   -7.6442   10.5376 H         1 HS4         0.0618
     32 H11         5.6389   -7.6116   11.2651 H         1 HS4         0.0618
     33 H12         3.8584   -7.0680    9.6512 H         1 HS4         0.0624
@<TRIPOS>BOND
     1    1    2 2  
     2    2    3 2  
     3    2    4 am 
     4    2   10 1  
     5    4    5 1  
     6    5    6 1  
     7    6    7 2  
     8    6    8 1  
     9    8    9 2  
    10   10   11 ar 
    11   10   13 ar 
    12   11   12 ar 
    13   12   15 ar 
    14   13   14 ar 
    15   14   15 ar 
    16   15   16 1  
    17   16   17 ar 
    18   16   21 ar 
    19   17   18 ar 
    20   18   19 ar 
    21   19   20 ar 
    22   20   21 ar 
    23    4   22 1  
    24    5   23 1  
    25    5   24 1  
    26   11   25 1  
    27   12   26 1  
    28   13   27 1  
    29   14   28 1  
    30   17   29 1  
    31   18   30 1  
    32   19   31 1  
    33   20   32 1  
    34   21   33 1  
@<TRIPOS>SUBSTRUCTURE
     1 HS4         1

