### 
### Created by X-TOOL on Mon Sep 10 21:12:57 2018
### 

@<TRIPOS>MOLECULE
3f18_ligand
   32    32     1     0     0
SMALL
GAST_HUCK


@<TRIPOS>ATOM
      1 O5        -12.8890   -7.3620  -20.2950 O.2       1 HS5        -0.1505
      2 S1        -13.1520   -6.1480  -19.5660 S.o2      1 HS5         0.0708
      3 O4        -14.4130   -5.7650  -18.9460 O.2       1 HS5        -0.1505
      4 N2        -13.1280   -5.3070  -20.8620 N.am      1 HS5        -0.2136
      5 C10       -13.4540   -3.8770  -20.8320 C.3       1 HS5         0.1204
      6 C9        -12.4370   -2.9860  -20.1520 C.2       1 HS5         0.2177
      7 O3        -11.2850   -2.8670  -20.5550 O.2       1 HS5        -0.3952
      8 N1        -12.8670   -2.3080  -19.0940 N.am      1 HS5        -0.1629
      9 O2        -11.9350   -1.5510  -18.4030 O.3       1 HS5        -0.2717
     10 C8        -12.9110   -5.9410  -22.1610 C.3       1 HS5         0.0552
     11 C6        -11.6870   -6.2990  -22.9950 C.3       1 HS5         0.0614
     12 O1        -11.7070   -7.7230  -23.1600 O.3       1 HS5        -0.3934
     13 C3        -11.9460   -6.0970  -18.4820 C.ar      1 HS5         0.1044
     14 C5        -12.1220   -5.3690  -17.2960 C.ar      1 HS5        -0.0370
     15 C7        -11.1120   -5.3240  -16.3320 C.ar      1 HS5        -0.0263
     16 C4         -9.9130   -6.0090  -16.5300 C.ar      1 HS5         0.1325
     17 F1         -8.9370   -5.9700  -15.6000 F         1 HS5        -0.1834
     18 C2         -9.7280   -6.7410  -17.7030 C.ar      1 HS5        -0.0263
     19 C1        -10.7410   -6.7860  -18.6650 C.ar      1 HS5        -0.0370
     20 H1        -14.4122   -3.7598  -20.3046 H         1 HS5         0.0719
     21 H2        -13.5630   -3.5334  -21.8712 H         1 HS5         0.0719
     22 H3        -13.8246   -2.3425  -18.8078 H         1 HS5         0.2217
     23 H4        -12.3601   -1.1165  -17.6730 H         1 HS5         0.2490
     24 H5        -13.4911   -5.3020  -22.8430 H         1 HS5         0.0502
     25 H6        -13.4184   -6.9102  -22.0460 H         1 HS5         0.0502
     26 H7        -10.7689   -5.9901  -22.4739 H         1 HS5         0.0573
     27 H8        -11.7370   -5.8025  -23.9753 H         1 HS5         0.0573
     28 H9        -10.9567   -7.9913  -23.6773 H         1 HS5         0.2095
     29 H10       -13.0506   -4.8362  -17.1259 H         1 HS5         0.0627
     30 H11       -11.2611   -4.7524  -15.4231 H         1 HS5         0.0604
     31 H12        -8.7991   -7.2747  -17.8683 H         1 HS5         0.0604
     32 H13       -10.5909   -7.3648  -19.5692 H         1 HS5         0.0627
@<TRIPOS>BOND
     1    1    2 2  
     2    2    3 2  
     3    2    4 am 
     4    2   13 1  
     5    4    5 1  
     6    4   10 1  
     7    5    6 1  
     8    6    7 2  
     9    6    8 am 
    10    8    9 1  
    11   10   11 1  
    12   11   12 1  
    13   13   14 ar 
    14   13   19 ar 
    15   14   15 ar 
    16   15   16 ar 
    17   16   17 1  
    18   16   18 ar 
    19   18   19 ar 
    20    5   20 1  
    21    5   21 1  
    22    8   22 1  
    23    9   23 1  
    24   10   24 1  
    25   10   25 1  
    26   11   26 1  
    27   11   27 1  
    28   12   28 1  
    29   14   29 1  
    30   15   30 1  
    31   18   31 1  
    32   19   32 1  
@<TRIPOS>SUBSTRUCTURE
     1 HS5         1

