### 
### Created by X-TOOL on Mon Sep 10 21:12:57 2018
### 

@<TRIPOS>MOLECULE
3f19_ligand
   25    25     1     0     0
SMALL
GAST_HUCK


@<TRIPOS>ATOM
      1 O4        -12.9780   -7.5960  -20.0250 O.2       1 HS6        -0.1507
      2 S1        -12.9230   -6.2390  -19.5440 S.o2      1 HS6         0.0684
      3 O3        -14.1240   -5.8720  -18.8490 O.2       1 HS6        -0.1507
      4 N1        -12.7500   -5.2670  -20.8100 N.am      1 HS6        -0.2290
      5 C6        -13.3220   -3.9340  -20.8330 C.3       1 HS6         0.1173
      6 C8        -12.3690   -2.9560  -20.2060 C.2       1 HS6         0.2175
      7 O2        -11.2230   -2.8560  -20.6180 O.2       1 HS6        -0.3952
      8 N2        -12.8300   -2.2370  -19.1900 N.am      1 HS6        -0.1629
      9 O1        -11.9550   -1.3660  -18.5540 O.3       1 HS6        -0.2717
     10 C3        -11.7010   -6.1350  -18.4930 C.ar      1 HS6         0.1042
     11 C1        -10.5230   -6.8620  -18.7060 C.ar      1 HS6        -0.0370
     12 C5        -11.8020   -5.3490  -17.3350 C.ar      1 HS6        -0.0370
     13 C7        -10.7460   -5.2850  -16.4220 C.ar      1 HS6        -0.0263
     14 C4         -9.5760   -6.0130  -16.6540 C.ar      1 HS6         0.1325
     15 F1         -8.5510   -5.9650  -15.7780 F         1 HS6        -0.1834
     16 C2         -9.4640   -6.8000  -17.7970 C.ar      1 HS6        -0.0263
     17 H1        -12.2342   -5.5890  -21.6039 H         1 HS6         0.1702
     18 H2        -14.2673   -3.9333  -20.2706 H         1 HS6         0.0717
     19 H3        -13.5149   -3.6381  -21.8747 H         1 HS6         0.0717
     20 H4        -13.7806   -2.3201  -18.8909 H         1 HS6         0.2217
     21 H5        -12.4109   -0.9181  -17.8511 H         1 HS6         0.2490
     22 H6        -10.4316   -7.4825  -19.5901 H         1 HS6         0.0627
     23 H7        -12.7087   -4.7855  -17.1467 H         1 HS6         0.0627
     24 H8        -10.8345   -4.6704  -15.5335 H         1 HS6         0.0604
     25 H9         -8.5566   -7.3637  -17.9813 H         1 HS6         0.0604
@<TRIPOS>BOND
     1    1    2 2  
     2    2    3 2  
     3    2    4 am 
     4    2   10 1  
     5    4    5 1  
     6    5    6 1  
     7    6    7 2  
     8    6    8 am 
     9    8    9 1  
    10   10   11 ar 
    11   10   12 ar 
    12   11   16 ar 
    13   12   13 ar 
    14   13   14 ar 
    15   14   15 1  
    16   14   16 ar 
    17    4   17 1  
    18    5   18 1  
    19    5   19 1  
    20    8   20 1  
    21    9   21 1  
    22   11   22 1  
    23   12   23 1  
    24   13   24 1  
    25   16   25 1  
@<TRIPOS>SUBSTRUCTURE
     1 HS6         1

