### 
### Created by X-TOOL on Mon Sep 10 21:12:57 2018
### 

@<TRIPOS>MOLECULE
3f1a_ligand
   25    25     1     0     0
SMALL
GAST_HUCK


@<TRIPOS>ATOM
      1 O3         -3.2280   -2.8730   -4.0420 O.2       1 HS7        -0.3952
      2 C7         -2.0720   -2.9710   -4.4410 C.2       1 HS7         0.2175
      3 N2         -1.6250   -2.2740   -5.4770 N.am      1 HS7        -0.1629
      4 O4         -2.5160   -1.4250   -6.1220 O.3       1 HS7        -0.2717
      5 C8         -1.0770   -3.8840   -3.7680 C.3       1 HS7         0.1173
      6 N1         -1.5600   -5.2490   -3.7800 N.am      1 HS7        -0.2286
      7 S1         -1.3690   -6.1880   -5.0640 S.o2      1 HS7         0.0702
      8 O1         -0.1670   -5.8050   -5.7600 O.2       1 HS7        -0.1502
      9 O2         -1.3210   -7.5460   -4.6010 O.2       1 HS7        -0.1502
     10 C3         -2.6150   -6.0230   -6.0660 C.ar      1 HS7         0.1083
     11 C1         -2.4580   -5.4100   -7.3150 C.ar      1 HS7        -0.0351
     12 C6         -3.8770   -6.5050   -5.7080 C.ar      1 HS7        -0.0351
     13 C5         -4.9650   -6.3790   -6.5770 C.ar      1 HS7        -0.0599
     14 C4         -4.7910   -5.7730   -7.8210 C.ar      1 HS7        -0.0616
     15 C2         -3.5370   -5.2870   -8.1890 C.ar      1 HS7        -0.0599
     16 H1         -0.6770   -2.3568   -5.7842 H         1 HS7         0.2217
     17 H2         -2.0727   -0.9890   -6.8404 H         1 HS7         0.2490
     18 H3         -0.9327   -3.5592   -2.7270 H         1 HS7         0.0717
     19 H4         -0.1178   -3.8337   -4.3041 H         1 HS7         0.0717
     20 H5         -2.0218   -5.6127   -2.9710 H         1 HS7         0.1702
     21 H6         -1.4865   -5.0268   -7.6056 H         1 HS7         0.0637
     22 H7         -4.0140   -6.9825   -4.7445 H         1 HS7         0.0637
     23 H8         -5.9404   -6.7510   -6.2849 H         1 HS7         0.0618
     24 H9         -5.6299   -5.6799   -8.5012 H         1 HS7         0.0618
     25 H10        -3.4012   -4.8136   -9.1546 H         1 HS7         0.0618
@<TRIPOS>BOND
     1    1    2 2  
     2    2    3 am 
     3    2    5 1  
     4    3    4 1  
     5    5    6 1  
     6    6    7 am 
     7    7    8 2  
     8    7    9 2  
     9    7   10 1  
    10   10   11 ar 
    11   10   12 ar 
    12   11   15 ar 
    13   12   13 ar 
    14   13   14 ar 
    15   14   15 ar 
    16    3   16 1  
    17    4   17 1  
    18    5   18 1  
    19    5   19 1  
    20    6   20 1  
    21   11   21 1  
    22   12   22 1  
    23   13   23 1  
    24   14   24 1  
    25   15   25 1  
@<TRIPOS>SUBSTRUCTURE
     1 HS7         1

