### 
### Created by X-TOOL on Mon Sep 10 21:13:02 2018
### 

@<TRIPOS>MOLECULE
3f2a_ligand
   47    49     1     0     0
SMALL
GAST_HUCK


@<TRIPOS>ATOM
      1 C1         73.3120   36.8670    2.3800 C.ar      1 985         0.0661
      2 N2         73.9550   35.7990    3.0270 N.ar      1 985        -0.2578
      3 C3         74.0510   35.6590    4.3900 C.ar      1 985         0.1419
      4 C4         73.4500   36.6740    5.1930 C.ar      1 985         0.0579
      5 N5         72.8280   37.7060    4.5700 N.ar      1 985        -0.2862
      6 C6         72.7300   37.8510    3.2270 C.ar      1 985         0.0329
      7 N1         74.7200   34.5550    4.9160 N.pl3     1 985        -0.2827
      8 C2         75.6310   33.7940    4.0240 C.3       1 985         0.0712
      9 C11        75.0250   32.4830    3.4600 C.3       1 985        -0.0113
     10 N3         73.7600   32.0960    4.1430 N.4       1 985         0.2346
     11 C5         74.0560   31.7080    5.5420 C.3       1 985        -0.0302
     12 C14        73.7190   32.8540    6.5160 C.3       1 985         0.0079
     13 C7         74.5730   34.1330    6.3410 C.3       1 985         0.0363
     14 C8         73.1670   30.9460    3.4390 C.3       1 985        -0.0430
     15 C10        73.1610   36.8120   -2.0030 C.ar      1 985        -0.0495
     16 C16        72.9670   38.0650   -1.3260 C.ar      1 985        -0.0560
     17 C12        73.0170   38.1010    0.1070 C.ar      1 985        -0.0476
     18 C13        73.2600   36.9040    0.8740 C.ar      1 985         0.0054
     19 C17        73.4510   35.6720    0.1690 C.ar      1 985        -0.0393
     20 C15        73.4050   35.6140   -1.2590 C.ar      1 985        -0.0155
     21 C18        73.6000   34.3320   -1.9840 C.2       1 985        -0.0447
     22 C19        74.1240   33.1950   -1.4270 C.2       1 985        -0.0276
     23 C9         74.2780   31.9400   -2.2050 C.2       1 985         0.0524
     24 O1         74.9620   31.0730   -1.7560 O.co2     1 985        -0.5634
     25 O2         73.6240   31.8170   -3.3860 O.co2     1 985        -0.5634
     26 H1         73.4896   36.6216    6.2750 H         1 985         0.0819
     27 H2         72.2150   38.7054    2.8030 H         1 985         0.0806
     28 H3         76.5362   33.5376    4.5940 H         1 985         0.0576
     29 H4         75.9023   34.4404    3.1764 H         1 985         0.0576
     30 H5         75.7572   31.6724    3.5893 H         1 985         0.0834
     31 H6         74.8182   32.6229    2.3887 H         1 985         0.0834
     32 H7         73.1162   32.8716    4.1335 H         1 985         0.2031
     33 H8         75.1251   31.4645    5.6293 H         1 985         0.0815
     34 H9         73.4560   30.8244    5.8049 H         1 985         0.0815
     35 H10        73.8645   32.4842    7.5417 H         1 985         0.0337
     36 H11        72.6632   33.1261    6.3707 H         1 985         0.0337
     37 H12        74.0950   34.9510    6.8998 H         1 985         0.0524
     38 H13        75.5747   33.9431    6.7540 H         1 985         0.0524
     39 H14        72.9447   31.2276    2.3991 H         1 985         0.0778
     40 H15        72.2371   30.6464    3.9445 H         1 985         0.0778
     41 H16        73.8763   30.1053    3.4476 H         1 985         0.0778
     42 H17        73.1222   36.7741   -3.0856 H         1 985         0.0660
     43 H18        72.7851   38.9717   -1.8915 H         1 985         0.0629
     44 H19        72.8697   39.0434    0.6220 H         1 985         0.0661
     45 H20        73.6345   34.7631    0.7306 H         1 985         0.0671
     46 H21        73.3058   34.2932   -3.0318 H         1 985         0.0698
     47 H22        74.4364   33.2125   -0.3839 H         1 985         0.0637
@<TRIPOS>BOND
     1    1    2 ar 
     2    1    6 ar 
     3   18    1 1  
     4    2    3 ar 
     5    3    4 ar 
     6    3    7 1  
     7    5    4 ar 
     8    6    5 ar 
     9    7    8 1  
    10    7   13 1  
    11    8    9 1  
    12    9   10 1  
    13   11   10 1  
    14   10   14 1  
    15   12   11 1  
    16   13   12 1  
    17   16   15 ar 
    18   15   20 ar 
    19   17   16 ar 
    20   17   18 ar 
    21   18   19 ar 
    22   19   20 ar 
    23   20   21 1  
    24   21   22 2  
    25   22   23 1  
    26   23   24 ar 
    27   23   25 ar 
    28    4   26 1  
    29    6   27 1  
    30    8   28 1  
    31    8   29 1  
    32    9   30 1  
    33    9   31 1  
    34   10   32 1  
    35   11   33 1  
    36   11   34 1  
    37   12   35 1  
    38   12   36 1  
    39   13   37 1  
    40   13   38 1  
    41   14   39 1  
    42   14   40 1  
    43   14   41 1  
    44   15   42 1  
    45   16   43 1  
    46   17   44 1  
    47   19   45 1  
    48   21   46 1  
    49   22   47 1  
@<TRIPOS>SUBSTRUCTURE
     1 985         1

