### 
### Created by X-TOOL on Mon Sep 10 21:13:00 2018
### 

@<TRIPOS>MOLECULE
3f33_ligand
   31    31     1     0     0
SMALL
GAST_HUCK


@<TRIPOS>ATOM
      1 O1         33.5450    0.2120   33.8030 O.3       1 PFL        -0.3409
      2 C1         33.8650    0.0430   35.0750 C.ar      1 PFL         0.0909
      3 C2         32.8920   -0.0840   36.0670 C.ar      1 PFL        -0.0179
      4 C6         35.2210    0.0040   35.3720 C.ar      1 PFL        -0.0179
      5 C3         33.3130   -0.2580   37.3760 C.ar      1 PFL        -0.0754
      6 C7         31.3690   -0.0410   35.8070 C.3       1 PFL        -0.0166
      7 C4         34.6680   -0.3090   37.6830 C.ar      1 PFL        -0.0861
      8 C5         35.6250   -0.1810   36.6810 C.ar      1 PFL        -0.0754
      9 C10        36.2680    0.1270   34.2530 C.3       1 PFL        -0.0166
     10 C8         30.8180   -1.4590   35.6570 C.3       1 PFL        -0.0546
     11 C9         31.0190    0.8010   34.5870 C.3       1 PFL        -0.0546
     12 C11        36.9660   -1.2240   34.0840 C.3       1 PFL        -0.0546
     13 C12        37.2920    1.2120   34.6000 C.3       1 PFL        -0.0546
     14 H1         34.3381    0.2773   33.2841 H         1 PFL         0.2430
     15 H2         32.5790   -0.3552   38.1677 H         1 PFL         0.0471
     16 H3         30.8905    0.4217   36.6828 H         1 PFL         0.0431
     17 H4         34.9815   -0.4496   38.7111 H         1 PFL         0.0489
     18 H5         36.6802   -0.2261   36.9252 H         1 PFL         0.0471
     19 H6         35.7651    0.3969   33.3127 H         1 PFL         0.0431
     20 H7         29.7345   -1.4137   35.4726 H         1 PFL         0.0252
     21 H8         31.0095   -2.0263   36.5797 H         1 PFL         0.0252
     22 H9         31.3134   -1.9573   34.8107 H         1 PFL         0.0252
     23 H10        31.4235    1.8161   34.7138 H         1 PFL         0.0252
     24 H11        29.9256    0.8529   34.4787 H         1 PFL         0.0252
     25 H12        31.4552    0.3422   33.6874 H         1 PFL         0.0252
     26 H13        37.7188   -1.1504   33.2854 H         1 PFL         0.0252
     27 H14        36.2228   -1.9900   33.8178 H         1 PFL         0.0252
     28 H15        37.4583   -1.5029   35.0273 H         1 PFL         0.0252
     29 H16        36.7777    2.1771   34.7186 H         1 PFL         0.0252
     30 H17        38.0334    1.2887   33.7910 H         1 PFL         0.0252
     31 H18        37.8003    0.9495   35.5395 H         1 PFL         0.0252
@<TRIPOS>BOND
     1    1    2 1  
     2    2    3 ar 
     3    2    4 ar 
     4    3    5 ar 
     5    3    6 1  
     6    4    8 ar 
     7    4    9 1  
     8    5    7 ar 
     9    6   10 1  
    10    6   11 1  
    11    7    8 ar 
    12    9   12 1  
    13    9   13 1  
    14    1   14 1  
    15    5   15 1  
    16    6   16 1  
    17    7   17 1  
    18    8   18 1  
    19    9   19 1  
    20   10   20 1  
    21   10   21 1  
    22   10   22 1  
    23   11   23 1  
    24   11   24 1  
    25   11   25 1  
    26   12   26 1  
    27   12   27 1  
    28   12   28 1  
    29   13   29 1  
    30   13   30 1  
    31   13   31 1  
@<TRIPOS>SUBSTRUCTURE
     1 PFL         1

