### 
### Created by X-TOOL on Mon Sep 10 21:13:00 2018
### 

@<TRIPOS>MOLECULE
3f34_ligand
   25    25     1     0     0
SMALL
GAST_HUCK


@<TRIPOS>ATOM
      1 C10        30.5590    0.2460   34.5090 C.3       1 DIE        -0.0572
      2 C9         31.4600   -0.7170   35.2990 C.3       1 DIE        -0.0256
      3 C6         32.8650   -0.1710   35.6390 C.ar      1 DIE        -0.0207
      4 C5         33.0490    0.2930   36.9310 C.ar      1 DIE        -0.0756
      5 C4         34.2730    0.7960   37.3490 C.ar      1 DIE        -0.0862
      6 C3         35.3510    0.8320   36.4800 C.ar      1 DIE        -0.0756
      7 C2         35.2050    0.3620   35.1800 C.ar      1 DIE        -0.0207
      8 C7         36.4310    0.4260   34.2540 C.3       1 DIE        -0.0256
      9 C8         36.0200    0.5430   32.7820 C.3       1 DIE        -0.0572
     10 C1         33.9650   -0.1340   34.7750 C.ar      1 DIE         0.0904
     11 O1         33.8330   -0.5890   33.4980 O.3       1 DIE        -0.3410
     12 H1         29.5877   -0.2338   34.3185 H         1 DIE         0.0249
     13 H2         31.0391    0.4948   33.5511 H         1 DIE         0.0249
     14 H3         30.4054    1.1660   35.0921 H         1 DIE         0.0249
     15 H4         31.5856   -1.6326   34.7025 H         1 DIE         0.0398
     16 H5         30.9519   -0.9614   36.2435 H         1 DIE         0.0398
     17 H6         32.2206    0.2626   37.6295 H         1 DIE         0.0471
     18 H7         34.3862    1.1633   38.3626 H         1 DIE         0.0489
     19 H8         36.3049    1.2252   36.8124 H         1 DIE         0.0471
     20 H9         37.0269   -0.4890   34.3867 H         1 DIE         0.0398
     21 H10        37.0385    1.3018   34.5258 H         1 DIE         0.0398
     22 H11        36.9208    0.5861   32.1521 H         1 DIE         0.0249
     23 H12        35.4280    1.4589   32.6383 H         1 DIE         0.0249
     24 H13        35.4164   -0.3320   32.4992 H         1 DIE         0.0249
     25 H14        32.9437   -0.8943   33.3621 H         1 DIE         0.2430
@<TRIPOS>BOND
     1    1    2 1  
     2    2    3 1  
     3    3    4 ar 
     4    3   10 ar 
     5    4    5 ar 
     6    5    6 ar 
     7    6    7 ar 
     8    7    8 1  
     9    7   10 ar 
    10    8    9 1  
    11   10   11 1  
    12    1   12 1  
    13    1   13 1  
    14    1   14 1  
    15    2   15 1  
    16    2   16 1  
    17    4   17 1  
    18    5   18 1  
    19    6   19 1  
    20    8   20 1  
    21    8   21 1  
    22    9   22 1  
    23    9   23 1  
    24    9   24 1  
    25   11   25 1  
@<TRIPOS>SUBSTRUCTURE
     1 DIE         1

