### 
### Created by X-TOOL on Mon Sep 10 21:13:00 2018
### 

@<TRIPOS>MOLECULE
3f35_ligand
   25    25     1     0     0
SMALL
GAST_HUCK


@<TRIPOS>ATOM
      1 C10        30.7170    0.3960   34.5790 C.3       1 DIE        -0.0572
      2 C9         31.4170   -0.5670   35.5430 C.3       1 DIE        -0.0256
      3 C6         32.9440   -0.3920   35.6750 C.ar      1 DIE        -0.0207
      4 C5         33.3130   -0.1120   36.9820 C.ar      1 DIE        -0.0756
      5 C4         34.6390    0.0730   37.3100 C.ar      1 DIE        -0.0862
      6 C3         35.6320   -0.0290   36.3440 C.ar      1 DIE        -0.0756
      7 C2         35.3090   -0.3220   35.0320 C.ar      1 DIE        -0.0207
      8 C7         36.4360   -0.4270   33.9920 C.3       1 DIE        -0.0256
      9 C8         35.9730    0.0360   32.5990 C.3       1 DIE        -0.0572
     10 C1         33.9780   -0.5020   34.7160 C.ar      1 DIE         0.0904
     11 O1         33.8260   -0.7830   33.4170 O.3       1 DIE        -0.3410
     12 H1         29.6383    0.1810   34.5649 H         1 DIE         0.0249
     13 H2         31.1298    0.2670   33.5676 H         1 DIE         0.0249
     14 H3         30.8801    1.4315   34.9123 H         1 DIE         0.0249
     15 H4         31.2236   -1.5926   35.1955 H         1 DIE         0.0398
     16 H5         30.9739   -0.4280   36.5401 H         1 DIE         0.0398
     17 H6         32.5531   -0.0381   37.7515 H         1 DIE         0.0471
     18 H7         34.9102    0.3009   38.3345 H         1 DIE         0.0489
     19 H8         36.6690    0.1224   36.6212 H         1 DIE         0.0471
     20 H9         36.7649   -1.4747   33.9279 H         1 DIE         0.0398
     21 H10        37.2782    0.2027   34.3148 H         1 DIE         0.0398
     22 H11        36.8063   -0.0547   31.8867 H         1 DIE         0.0249
     23 H12        35.6476    1.0855   32.6508 H         1 DIE         0.0249
     24 H13        35.1343   -0.5919   32.2639 H         1 DIE         0.0249
     25 H14        32.9030   -0.9021   33.2258 H         1 DIE         0.2430
@<TRIPOS>BOND
     1    1    2 1  
     2    2    3 1  
     3    3    4 ar 
     4    3   10 ar 
     5    4    5 ar 
     6    5    6 ar 
     7    6    7 ar 
     8    7    8 1  
     9    7   10 ar 
    10    8    9 1  
    11   10   11 1  
    12    1   12 1  
    13    1   13 1  
    14    1   14 1  
    15    2   15 1  
    16    2   16 1  
    17    4   17 1  
    18    5   18 1  
    19    6   19 1  
    20    8   20 1  
    21    8   21 1  
    22    9   22 1  
    23    9   23 1  
    24    9   24 1  
    25   11   25 1  
@<TRIPOS>SUBSTRUCTURE
     1 DIE         1

