### 
### Created by X-TOOL on Mon Sep 10 21:13:00 2018
### 

@<TRIPOS>MOLECULE
3f36_ligand
   22    22     1     0     0
SMALL
GAST_HUCK


@<TRIPOS>ATOM
      1 C8         36.6220   -0.7870   33.4900 C.3       1 IP0        -0.0544
      2 C7         36.1630    0.4670   34.2170 C.3       1 IP0        -0.0149
      3 C9         37.3770    1.2350   34.7380 C.3       1 IP0        -0.0544
      4 C2         35.2720    0.0820   35.4010 C.ar      1 IP0        -0.0114
      5 C3         35.8480   -0.4430   36.5480 C.ar      1 IP0        -0.0686
      6 C4         35.0590   -0.7950   37.6350 C.ar      1 IP0        -0.0797
      7 C5         33.6830   -0.6180   37.5750 C.ar      1 IP0        -0.0776
      8 C6         33.1070   -0.0900   36.4330 C.ar      1 IP0        -0.0399
      9 C1         33.8970    0.2600   35.3460 C.ar      1 IP0         0.0895
     10 O1         33.3270    0.7750   34.2270 O.3       1 IP0        -0.3369
     11 H          37.1864   -1.4177   34.1769 H         1 IP0         0.0252
     12 H          35.7520   -1.3329   33.1251 H         1 IP0         0.0252
     13 H          37.2556   -0.5063   32.6486 H         1 IP0         0.0252
     14 H          35.6019    1.0928   33.5230 H         1 IP0         0.0433
     15 H          37.0420    2.1343   35.2548 H         1 IP0         0.0252
     16 H          37.9353    0.6038   35.4294 H         1 IP0         0.0252
     17 H          38.0166    1.5127   33.9002 H         1 IP0         0.0252
     18 H          36.9282   -0.5804   36.5966 H         1 IP0         0.0526
     19 H          35.5183   -1.2090   38.5326 H         1 IP0         0.0505
     20 H          33.0587   -0.8941   38.4247 H         1 IP0         0.0531
     21 H          32.0273    0.0519   36.3864 H         1 IP0         0.0521
     22 H          32.7040    0.1404   33.8655 H         1 IP0         0.2456
@<TRIPOS>BOND
     1    1    2 1  
     2    2    3 1  
     3    2    4 1  
     4    4    5 ar 
     5    4    9 ar 
     6    5    6 ar 
     7    6    7 ar 
     8    7    8 ar 
     9    8    9 ar 
    10    9   10 1  
    11    1   11 1  
    12    1   12 1  
    13    1   13 1  
    14    2   14 1  
    15    3   15 1  
    16    3   16 1  
    17    3   17 1  
    18    5   18 1  
    19    6   19 1  
    20    7   20 1  
    21    8   21 1  
    22   10   22 1  
@<TRIPOS>SUBSTRUCTURE
     1 IP0         1

