### 
### Created by X-TOOL on Mon Sep 10 21:13:00 2018
### 

@<TRIPOS>MOLECULE
3f37_ligand
   19    19     1     0     0
SMALL
GAST_HUCK


@<TRIPOS>ATOM
      1 C8         31.4450    0.2680   34.3700 C.3       1 2MY        -0.0348
      2 C6         32.6670    0.2810   35.2910 C.ar      1 2MY        -0.0235
      3 C5         32.5450    0.1430   36.6640 C.ar      1 2MY        -0.0759
      4 C4         33.6870    0.1310   37.4520 C.ar      1 2MY        -0.0862
      5 C3         34.9540    0.2190   36.8970 C.ar      1 2MY        -0.0759
      6 C2         35.0790    0.3230   35.5240 C.ar      1 2MY        -0.0235
      7 C7         36.4560    0.4190   34.8680 C.3       1 2MY        -0.0348
      8 C1         33.9440    0.3410   34.7310 C.ar      1 2MY         0.0899
      9 O1         34.1200    0.4390   33.3930 O.3       1 2MY        -0.3410
     10 H1         30.5289    0.2187   34.9770 H         1 2MY         0.0366
     11 H2         31.4939   -0.6093   33.7082 H         1 2MY         0.0366
     12 H3         31.4336    1.1852   33.7629 H         1 2MY         0.0366
     13 H4         31.5659    0.0452   37.1188 H         1 2MY         0.0471
     14 H5         33.5858    0.0508   38.5283 H         1 2MY         0.0489
     15 H6         35.8339    0.2065   37.5300 H         1 2MY         0.0471
     16 H7         37.2348    0.3897   35.6443 H         1 2MY         0.0366
     17 H8         36.5308    1.3634   34.3090 H         1 2MY         0.0366
     18 H9         36.5936   -0.4271   34.1786 H         1 2MY         0.0366
     19 H10        33.2731    0.4413   32.9627 H         1 2MY         0.2430
@<TRIPOS>BOND
     1    1    2 1  
     2    2    3 ar 
     3    2    8 ar 
     4    3    4 ar 
     5    4    5 ar 
     6    5    6 ar 
     7    6    7 1  
     8    6    8 ar 
     9    8    9 1  
    10    1   10 1  
    11    1   11 1  
    12    1   12 1  
    13    3   13 1  
    14    4   14 1  
    15    5   15 1  
    16    7   16 1  
    17    7   17 1  
    18    7   18 1  
    19    9   19 1  
@<TRIPOS>SUBSTRUCTURE
     1 2MY         1

