### 
### Created by X-TOOL on Mon Sep 10 21:13:00 2018
### 

@<TRIPOS>MOLECULE
3f38_ligand
   19    19     1     0     0
SMALL
GAST_HUCK


@<TRIPOS>ATOM
      1 C8         31.3580   -0.0500   34.9490 C.3       1 2MY        -0.0348
      2 C6         32.7790   -0.0870   35.5060 C.ar      1 2MY        -0.0235
      3 C5         32.9720   -0.1640   36.8760 C.ar      1 2MY        -0.0759
      4 C4         34.2570   -0.2010   37.3960 C.ar      1 2MY        -0.0862
      5 C3         35.3520   -0.1570   36.5410 C.ar      1 2MY        -0.0759
      6 C2         35.1600   -0.0830   35.1600 C.ar      1 2MY        -0.0235
      7 C7         36.3700   -0.0350   34.2200 C.3       1 2MY        -0.0348
      8 C1         33.8710   -0.0430   34.6420 C.ar      1 2MY         0.0899
      9 O1         33.6600    0.0310   33.2870 O.3       1 2MY        -0.3410
     10 H1         30.6376   -0.0936   35.7791 H         1 2MY         0.0366
     11 H2         31.2026   -0.9116   34.2831 H         1 2MY         0.0366
     12 H3         31.2099    0.8819   34.3836 H         1 2MY         0.0366
     13 H4         32.1174   -0.1954   37.5421 H         1 2MY         0.0471
     14 H5         34.4073   -0.2641   38.4677 H         1 2MY         0.0489
     15 H6         36.3568   -0.1802   36.9471 H         1 2MY         0.0471
     16 H7         37.2961   -0.0769   34.8121 H         1 2MY         0.0366
     17 H8         36.3473    0.8997   33.6405 H         1 2MY         0.0366
     18 H9         36.3349   -0.8933   33.5330 H         1 2MY         0.0366
     19 H10        32.7261    0.0493   33.1136 H         1 2MY         0.2430
@<TRIPOS>BOND
     1    1    2 1  
     2    2    3 ar 
     3    2    8 ar 
     4    3    4 ar 
     5    4    5 ar 
     6    5    6 ar 
     7    6    7 1  
     8    6    8 ar 
     9    8    9 1  
    10    1   10 1  
    11    1   11 1  
    12    1   12 1  
    13    3   13 1  
    14    4   14 1  
    15    5   15 1  
    16    7   16 1  
    17    7   17 1  
    18    7   18 1  
    19    9   19 1  
@<TRIPOS>SUBSTRUCTURE
     1 2MY         1

