### 
### Created by X-TOOL on Mon Sep 10 21:13:00 2018
### 

@<TRIPOS>MOLECULE
3f39_ligand
   13    13     1     0     0
SMALL
GAST_HUCK


@<TRIPOS>ATOM
      1 C1         34.5290    0.4680   35.6510 C.ar      1 IPH         0.0876
      2 C2         35.6710   -0.2940   35.8590 C.ar      1 IPH        -0.0334
      3 C3         36.5210   -0.5810   34.8000 C.ar      1 IPH        -0.0707
      4 C4         36.2290   -0.1060   33.5240 C.ar      1 IPH        -0.0729
      5 C5         35.0840    0.6540   33.3100 C.ar      1 IPH        -0.0707
      6 C6         34.2310    0.9400   34.3770 C.ar      1 IPH        -0.0334
      7 O1         33.6930    0.7410   36.7020 O.3       1 IPH        -0.3331
      8 H1         35.8993   -0.6658   36.8513 H         1 IPH         0.0542
      9 H2         37.4124   -1.1750   34.9662 H         1 IPH         0.0589
     10 H3         36.8941   -0.3286   32.6975 H         1 IPH         0.0523
     11 H4         34.8547    1.0233   32.3170 H         1 IPH         0.0589
     12 H5         33.3365    1.5298   34.2129 H         1 IPH         0.0542
     13 H6         34.0419    0.3476   37.4932 H         1 IPH         0.2481
@<TRIPOS>BOND
     1    1    2 ar 
     2    1    6 ar 
     3    1    7 1  
     4    2    3 ar 
     5    3    4 ar 
     6    4    5 ar 
     7    5    6 ar 
     8    2    8 1  
     9    3    9 1  
    10    4   10 1  
    11    5   11 1  
    12    6   12 1  
    13    7   13 1  
@<TRIPOS>SUBSTRUCTURE
     1 IPH         1

