### 
### Created by X-TOOL on Mon Sep 10 21:12:58 2018
### 

@<TRIPOS>MOLECULE
3f3c_ligand
   23    23     1     0     0
SMALL
GAST_HUCK


@<TRIPOS>ATOM
      1 N          25.9520   32.2700   19.1620 N.4       1 PFF         0.2341
      2 CA         27.2540   31.6260   19.1260 C.3       1 PFF         0.0373
      3 C          27.2000   30.3180   18.3880 C.2       1 PFF         0.0865
      4 O          28.2740   29.6910   18.1950 O.co2     1 PFF        -0.5641
      5 OXT        26.0890   29.9050   18.0060 O.co2     1 PFF        -0.5641
      6 CB         27.7240   31.3570   20.5520 C.3       1 PFF         0.0343
      7 CG         28.0240   32.6860   21.1950 C.ar      1 PFF        -0.0398
      8 CD1        28.6550   33.6630   20.4380 C.ar      1 PFF        -0.0617
      9 CD2        27.6660   32.9360   22.5200 C.ar      1 PFF        -0.0617
     10 CE1        28.9370   34.8970   20.9980 C.ar      1 PFF        -0.0349
     11 CE2        27.9470   34.1790   23.0870 C.ar      1 PFF        -0.0349
     12 CZ         28.5800   35.1500   22.3190 C.ar      1 PFF         0.1248
     13 F          28.8640   36.3490   22.8450 F         1 PFF        -0.1893
     14 H1         26.0223   33.1421   19.6625 H         1 PFF         0.2012
     15 H2         25.2918   31.6674   19.6280 H         1 PFF         0.2012
     16 H3         25.6387   32.4473   18.2205 H         1 PFF         0.2012
     17 H4         27.9688   32.2939   18.6231 H         1 PFF         0.1048
     18 H5         28.6314   30.7354   20.5362 H         1 PFF         0.0493
     19 H6         26.9340   30.8385   21.1151 H         1 PFF         0.0493
     20 H7         28.9269   33.4598   19.4085 H         1 PFF         0.0547
     21 H8         27.1724   32.1688   23.1054 H         1 PFF         0.0547
     22 H9         29.4329   35.6617   20.4111 H         1 PFF         0.0587
     23 H10        27.6747   34.3859   24.1157 H         1 PFF         0.0587
@<TRIPOS>BOND
     1    1    2 1  
     2    2    3 1  
     3    2    6 1  
     4    3    4 ar 
     5    3    5 ar 
     6    6    7 1  
     7    7    8 ar 
     8    7    9 ar 
     9    8   10 ar 
    10    9   11 ar 
    11   10   12 ar 
    12   11   12 ar 
    13   12   13 1  
    14    1   14 1  
    15    1   15 1  
    16    1   16 1  
    17    2   17 1  
    18    6   18 1  
    19    6   19 1  
    20    8   20 1  
    21    9   21 1  
    22   10   22 1  
    23   11   23 1  
@<TRIPOS>SUBSTRUCTURE
     1 PFF         1

