### 
### Created by X-TOOL on Mon Sep 10 21:12:58 2018
### 

@<TRIPOS>MOLECULE
3f3d_ligand
   20    19     1     0     0
SMALL
GAST_HUCK


@<TRIPOS>ATOM
      1 N          24.7800   32.3240   18.9560 N.4       1 MET         0.2327
      2 CA         26.0420   31.5560   19.1590 C.3       1 MET         0.0291
      3 C          26.0530   30.2750   18.3320 C.2       1 MET         0.0844
      4 O          27.0750   29.5870   18.1880 O.co2     1 MET        -0.5643
      5 CB         26.2180   31.2200   20.6420 C.3       1 MET         0.0114
      6 CG         26.4500   32.4190   21.5410 C.3       1 MET         0.0001
      7 SD         28.0080   33.2230   21.1440 S.3       1 MET        -0.1638
      8 CE         27.4780   34.8100   20.5360 C.3       1 MET        -0.0181
      9 OXT        25.0130   29.8920   17.7990 O.co2     1 MET        -0.5643
     10 H1         24.8036   33.1627   19.5146 H         1 MET         0.2010
     11 H2         23.9937   31.7576   19.2333 H         1 MET         0.2010
     12 H3         24.6897   32.5709   17.9829 H         1 MET         0.2010
     13 H4         26.8858   32.1842   18.8376 H         1 MET         0.1024
     14 H5         27.0818   30.5461   20.7403 H         1 MET         0.0347
     15 H6         25.3095   30.7044   20.9865 H         1 MET         0.0347
     16 H7         26.4734   32.0849   22.5888 H         1 MET         0.0379
     17 H8         25.6283   33.1372   21.4034 H         1 MET         0.0379
     18 H9         28.3578   35.4073   20.2546 H         1 MET         0.0340
     19 H10        26.9150   35.3345   21.3221 H         1 MET         0.0340
     20 H11        26.8338   34.6689   19.6556 H         1 MET         0.0340
@<TRIPOS>BOND
     1    1    2 1  
     2    2    3 1  
     3    2    5 1  
     4    3    4 ar 
     5    3    9 ar 
     6    5    6 1  
     7    6    7 1  
     8    7    8 1  
     9    1   10 1  
    10    1   11 1  
    11    1   12 1  
    12    2   13 1  
    13    5   14 1  
    14    5   15 1  
    15    6   16 1  
    16    6   17 1  
    17    8   18 1  
    18    8   19 1  
    19    8   20 1  
@<TRIPOS>SUBSTRUCTURE
     1 MET         1

