### 
### Created by X-TOOL on Mon Sep 10 21:12:57 2018
### 

@<TRIPOS>MOLECULE
3f3e_ligand
   22    21     1     0     0
SMALL
GAST_HUCK


@<TRIPOS>ATOM
      1 N          25.0760   32.3490   18.9300 N.4       1 LEU         0.2327
      2 CA         26.3920   31.6910   18.8700 C.3       1 LEU         0.0286
      3 C          26.3170   30.3870   18.1090 C.2       1 LEU         0.0844
      4 O          27.3170   29.6230   17.9980 O.co2     1 LEU        -0.5643
      5 CB         26.8930   31.3560   20.2840 C.3       1 LEU         0.0047
      6 CG         26.9710   32.5090   21.2790 C.3       1 LEU        -0.0400
      7 CD1        27.4190   31.9970   22.6990 C.3       1 LEU        -0.0624
      8 CD2        27.8850   33.6130   20.7820 C.3       1 LEU        -0.0624
      9 OXT        25.2300   30.0260   17.6370 O.co2     1 LEU        -0.5643
     10 H1         25.1558   33.2137   19.4418 H         1 LEU         0.2010
     11 H2         24.4182   31.7430   19.3948 H         1 LEU         0.2010
     12 H3         24.7533   32.5408   17.9945 H         1 LEU         0.2010
     13 H4         27.1049   32.3664   18.3744 H         1 LEU         0.1024
     14 H5         27.9033   30.9319   20.1869 H         1 LEU         0.0341
     15 H6         26.2162   30.5983   20.7057 H         1 LEU         0.0341
     16 H7         25.9608   32.9328   21.3787 H         1 LEU         0.0298
     17 H8         27.4673   32.8462   23.3965 H         1 LEU         0.0232
     18 H9         28.4110   31.5278   22.6234 H         1 LEU         0.0232
     19 H10        26.6917   31.2594   23.0691 H         1 LEU         0.0232
     20 H11        27.5479   33.9495   19.7905 H         1 LEU         0.0232
     21 H12        28.9143   33.2320   20.7095 H         1 LEU         0.0232
     22 H13        27.8555   34.4580   21.4856 H         1 LEU         0.0232
@<TRIPOS>BOND
     1    1    2 1  
     2    2    3 1  
     3    2    5 1  
     4    3    4 ar 
     5    3    9 ar 
     6    5    6 1  
     7    6    7 1  
     8    6    8 1  
     9    1   10 1  
    10    1   11 1  
    11    1   12 1  
    12    2   13 1  
    13    5   14 1  
    14    5   15 1  
    15    6   16 1  
    16    7   17 1  
    17    7   18 1  
    18    7   19 1  
    19    8   20 1  
    20    8   21 1  
    21    8   22 1  
@<TRIPOS>SUBSTRUCTURE
     1 LEU         1

