### 
### Created by X-TOOL on Fri Sep 26 17:34:46 2014
### 

@<TRIPOS>MOLECULE
3f3t_ligand
   55    58     1     0     0
SMALL
GAST_HUCK


@<TRIPOS>ATOM
      1 CBB        -5.3160   35.3030   -9.1670 C.ar      1 MOL         0.0113
      2 CAO        -5.2040   35.0410  -10.5340 C.ar      1 MOL        -0.0551
      3 CAG        -6.1790   35.5510  -11.3950 C.ar      1 MOL        -0.0647
      4 CAF        -7.2460   36.3230  -10.9300 C.ar      1 MOL        -0.0656
      5 CAM        -7.3510   36.5850   -9.5690 C.ar      1 MOL        -0.0608
      6 CBA        -6.4010   36.0790   -8.6920 C.ar      1 MOL        -0.0315
      7 CAN        -6.5370   36.3470   -7.3330 C.ar      1 MOL        -0.0747
      8 CAI        -5.5930   35.8300   -6.4480 C.ar      1 MOL        -0.0815
      9 CAL        -4.5190   35.0780   -6.9020 C.ar      1 MOL        -0.0435
     10 CAX        -4.3570   34.7970   -8.2690 C.ar      1 MOL         0.0821
     11 NAS        -3.3200   34.0400   -8.7110 N.am      1 MOL        -0.2077
     12 CAU        -2.8390   32.9920   -8.0100 C.2       1 MOL         0.3276
     13 OAE        -3.3070   32.6940   -6.9070 O.2       1 MOL        -0.3767
     14 NAT        -1.8200   32.3100   -8.5620 N.am      1 MOL        -0.1784
     15 CAZ        -1.1910   31.2560   -7.9900 C.2       1 MOL         0.2196
     16 CAQ        -1.7670   30.2030   -7.3820 C.2       1 MOL        -0.0187
     17 CAY        -0.7350   29.4500   -6.9680 C.2       1 MOL        -0.0024
     18 CBD        -0.7610   28.0740   -6.2210 C.3       1 MOL        -0.0451
     19 CAB        -1.4560   27.0300   -7.1120 C.3       1 MOL        -0.0852
     20 CAC         0.6670   27.6190   -5.9250 C.3       1 MOL        -0.0852
     21 CAA        -1.4570   28.1530   -4.8590 C.3       1 MOL        -0.0852
     22 NAR         0.4010   30.0380   -7.3350 N.2       1 MOL        -0.1655
     23 NBC         0.1480   31.0980   -7.9140 N.pl3     1 MOL        -0.1064
     24 CAW         1.1320   31.8850   -8.3950 C.ar      1 MOL         0.1170
     25 CAP         1.1860   33.2460   -8.1640 C.ar      1 MOL        -0.0048
     26 CAK         2.1700   31.3200   -9.1490 C.ar      1 MOL        -0.0339
     27 CAH         3.2300   32.0820   -9.6820 C.ar      1 MOL        -0.0744
     28 CAJ         3.2610   33.4540   -9.4390 C.ar      1 MOL        -0.0489
     29 CAV         2.2330   34.0250   -8.6840 C.ar      1 MOL         0.0335
     30 NAD         2.2460   35.3370   -8.4280 N.pl3     1 MOL        -0.3378
     31 H1         -4.3779   34.4542  -10.9191 H         1 MOL         0.0629
     32 H2         -6.1051   35.3412  -12.4559 H         1 MOL         0.0578
     33 H3         -7.9834   36.7132  -11.6222 H         1 MOL         0.0611
     34 H4         -8.1731   37.1833   -9.1930 H         1 MOL         0.0587
     35 H5         -7.3630   36.9475   -6.9694 H         1 MOL         0.0439
     36 H6         -5.6996   36.0187   -5.3859 H         1 MOL         0.0565
     37 H7         -3.7932   34.7012   -6.1905 H         1 MOL         0.0440
     38 H8         -2.8972   34.2675   -9.5882 H         1 MOL         0.2319
     39 H9         -1.5025   32.6036   -9.4637 H         1 MOL         0.2346
     40 H10        -2.8304   30.0058   -7.2544 H         1 MOL         0.0222
     41 H11        -1.4774   26.0606   -6.5925 H         1 MOL         0.0133
     42 H12        -0.9023   26.9274   -8.0569 H         1 MOL         0.0133
     43 H13        -2.4852   27.3554   -7.3236 H         1 MOL         0.0133
     44 H14         1.1648   28.3649   -5.2879 H         1 MOL         0.0133
     45 H15         1.2217   27.5145   -6.8691 H         1 MOL         0.0133
     46 H16         0.6427   26.6501   -5.4047 H         1 MOL         0.0133
     47 H17        -2.4988   28.4776   -4.9979 H         1 MOL         0.0133
     48 H18        -0.9299   28.8761   -4.2192 H         1 MOL         0.0133
     49 H19        -1.4423   27.1621   -4.3817 H         1 MOL         0.0133
     50 H20         0.4099   33.7192   -7.5734 H         1 MOL         0.0498
     51 H21         2.1572   30.2513   -9.3301 H         1 MOL         0.0500
     52 H22         4.0075   31.6087  -10.2707 H         1 MOL         0.0574
     53 H23         4.0666   34.0661   -9.8280 H         1 MOL         0.0481
     54 H24         1.4897   35.7607   -7.8718 H         1 MOL         0.1717
     55 H25         3.0123   35.9242   -8.7869 H         1 MOL         0.1717
@<TRIPOS>BOND
     1    1    2 ar 
     2    1    6 ar 
     3    1   10 ar 
     4    2    3 ar 
     5    3    4 ar 
     6    4    5 ar 
     7    5    6 ar 
     8    6    7 ar 
     9    7    8 ar 
    10    8    9 ar 
    11    9   10 ar 
    12   10   11 1  
    13   11   12 am 
    14   12   13 2  
    15   12   14 am 
    16   14   15 1  
    17   15   16 2  
    18   15   23 1  
    19   16   17 1  
    20   17   18 1  
    21   17   22 2  
    22   18   19 1  
    23   18   20 1  
    24   18   21 1  
    25   22   23 1  
    26   23   24 1  
    27   24   25 ar 
    28   24   26 ar 
    29   25   29 ar 
    30   26   27 ar 
    31   27   28 ar 
    32   28   29 ar 
    33   29   30 1  
    34    2   31 1  
    35    3   32 1  
    36    4   33 1  
    37    5   34 1  
    38    7   35 1  
    39    8   36 1  
    40    9   37 1  
    41   11   38 1  
    42   14   39 1  
    43   16   40 1  
    44   19   41 1  
    45   19   42 1  
    46   19   43 1  
    47   20   44 1  
    48   20   45 1  
    49   20   46 1  
    50   21   47 1  
    51   21   48 1  
    52   21   49 1  
    53   25   50 1  
    54   26   51 1  
    55   27   52 1  
    56   28   53 1  
    57   30   54 1  
    58   30   55 1  
@<TRIPOS>SUBSTRUCTURE
     1 MOL         1

