### 
### Created by X-TOOL on Fri Sep 26 17:34:45 2014
### 

@<TRIPOS>MOLECULE
3f3u_ligand
   49    51     1     0     0
SMALL
GAST_HUCK


@<TRIPOS>ATOM
      1 CBB        -5.1810   35.2550   -8.6540 C.ar      1 MOL        -0.0415
      2 CBA        -6.2590   36.1180   -8.3890 C.ar      1 MOL        -0.0757
      3 CAN        -6.7010   36.3220   -7.0720 C.ar      1 MOL        -0.0773
      4 CAI        -6.0470   35.6660   -6.0310 C.ar      1 MOL        -0.0757
      5 CAL        -4.9730   34.8050   -6.2990 C.ar      1 MOL        -0.0415
      6 CAX        -4.5310   34.5940   -7.6100 C.ar      1 MOL         0.0672
      7 NAS        -3.5130   33.7850   -7.9020 N.am      1 MOL        -0.2135
      8 CAU        -3.0360   32.7990   -7.1270 C.2       1 MOL         0.3233
      9 OAE        -3.4930   32.5360   -6.0070 O.2       1 MOL        -0.3786
     10 NAT        -1.9960   32.1470   -7.6780 N.am      1 MOL        -0.1792
     11 CAZ        -1.3100   31.1030   -7.1560 C.2       1 MOL         0.2195
     12 CAQ        -1.8380   30.0230   -6.5880 C.2       1 MOL        -0.0187
     13 CAY        -0.7930   29.2670   -6.2560 C.2       1 MOL        -0.0024
     14 CBD        -0.8490   27.8950   -5.5550 C.3       1 MOL        -0.0451
     15 CAB        -1.9290   27.0950   -6.2720 C.3       1 MOL        -0.0852
     16 CAC         0.5120   27.2090   -5.6210 C.3       1 MOL        -0.0852
     17 CAA        -1.2040   28.0140   -4.0750 C.3       1 MOL        -0.0852
     18 NAR         0.3170   29.8740   -6.6260 N.2       1 MOL        -0.1656
     19 NBC         0.0160   30.9420   -7.1570 N.pl3     1 MOL        -0.1064
     20 CAW         0.9390   31.7760   -7.6610 C.ar      1 MOL         0.1170
     21 CAP         0.9690   33.1570   -7.3770 C.ar      1 MOL        -0.0048
     22 CAK         1.9050   31.2140   -8.5200 C.ar      1 MOL        -0.0339
     23 CAH         2.8970   32.0070   -9.0760 C.ar      1 MOL        -0.0744
     24 CAJ         2.9200   33.3710   -8.7830 C.ar      1 MOL        -0.0489
     25 CAV         1.9750   33.9560   -7.9460 C.ar      1 MOL         0.0335
     26 NAD         2.0510   35.2700   -7.6990 N.pl3     1 MOL        -0.3378
     27 H1         -4.8524   35.1019   -9.6756 H         1 MOL         0.0501
     28 H2         -6.7524   36.6296   -9.2075 H         1 MOL         0.0577
     29 H3         -7.5382   36.9797   -6.8682 H         1 MOL         0.0486
     30 H4         -6.3703   35.8221   -5.0082 H         1 MOL         0.0577
     31 H5         -4.4785   34.2960   -5.4796 H         1 MOL         0.0501
     32 H6         -3.0614   33.9263   -8.7830 H         1 MOL         0.2263
     33 H7         -1.6955   32.4704   -8.5753 H         1 MOL         0.2345
     34 H8         -2.8930   29.8046   -6.4292 H         1 MOL         0.0222
     35 H9         -2.0145   26.0996   -5.8116 H         1 MOL         0.0133
     36 H10        -1.6611   26.9863   -7.3333 H         1 MOL         0.0133
     37 H11        -2.8913   27.6213   -6.1888 H         1 MOL         0.0133
     38 H12         1.2572   27.8212   -5.0919 H         1 MOL         0.0133
     39 H13         0.8133   27.0924   -6.6725 H         1 MOL         0.0133
     40 H14         0.4470   26.2189   -5.1462 H         1 MOL         0.0133
     41 H15        -2.1828   28.5050   -3.9711 H         1 MOL         0.0133
     42 H16        -0.4373   28.6122   -3.5609 H         1 MOL         0.0133
     43 H17        -1.2478   27.0105   -3.6266 H         1 MOL         0.0133
     44 H18         0.2229   33.5980   -6.7258 H         1 MOL         0.0498
     45 H19         1.8720   30.1546   -8.7474 H         1 MOL         0.0500
     46 H20         3.6449   31.5731   -9.7298 H         1 MOL         0.0574
     47 H21         3.6947   33.9913   -9.2190 H         1 MOL         0.0481
     48 H22         1.3594   35.7188   -7.0816 H         1 MOL         0.1717
     49 H23         2.8011   35.8318   -8.1264 H         1 MOL         0.1717
@<TRIPOS>BOND
     1    1    2 ar 
     2    1    6 ar 
     3    2    3 ar 
     4    3    4 ar 
     5    4    5 ar 
     6    5    6 ar 
     7    6    7 1  
     8    7    8 am 
     9    8    9 2  
    10    8   10 am 
    11   10   11 1  
    12   11   12 2  
    13   11   19 1  
    14   12   13 1  
    15   13   14 1  
    16   13   18 2  
    17   14   15 1  
    18   14   16 1  
    19   14   17 1  
    20   18   19 1  
    21   19   20 1  
    22   20   21 ar 
    23   20   22 ar 
    24   21   25 ar 
    25   22   23 ar 
    26   23   24 ar 
    27   24   25 ar 
    28   25   26 1  
    29    1   27 1  
    30    2   28 1  
    31    3   29 1  
    32    4   30 1  
    33    5   31 1  
    34    7   32 1  
    35   10   33 1  
    36   12   34 1  
    37   15   35 1  
    38   15   36 1  
    39   15   37 1  
    40   16   38 1  
    41   16   39 1  
    42   16   40 1  
    43   17   41 1  
    44   17   42 1  
    45   17   43 1  
    46   21   44 1  
    47   22   45 1  
    48   23   46 1  
    49   24   47 1  
    50   26   48 1  
    51   26   49 1  
@<TRIPOS>SUBSTRUCTURE
     1 MOL         1

