### 
### Created by X-TOOL on Mon Sep 10 21:13:01 2018
### 

@<TRIPOS>MOLECULE
3f3v_ligand
   68    72     1     0     0
SMALL
GAST_HUCK


@<TRIPOS>ATOM
      1 C4        -11.0050   37.0580   -6.3800 C.ar      1 1BU         0.0356
      2 C5         -9.7470   37.6040   -6.4520 C.ar      1 1BU         0.0440
      3 C6         -8.7980   36.9380   -7.1820 C.ar      1 1BU         0.1530
      4 N1         -9.1670   35.8230   -7.7430 N.ar      1 1BU        -0.2580
      5 N3        -11.2740   35.9340   -6.9890 N.ar      1 1BU        -0.3004
      6 CAA         2.1150   35.7970   -9.2860 C.3       1 1BU        -0.0321
      7 CBA         2.0660   34.3150   -9.5840 C.ar      1 1BU        -0.0475
      8 CAQ         1.0700   33.5640   -9.0270 C.ar      1 1BU        -0.0201
      9 CAI         3.0040   33.7670  -10.4080 C.ar      1 1BU        -0.0649
     10 CAG         2.9720   32.4450  -10.6900 C.ar      1 1BU        -0.0696
     11 CAJ         1.9880   31.6870  -10.1390 C.ar      1 1BU        -0.0276
     12 CBE         1.0400   32.2470   -9.3330 C.ar      1 1BU         0.1219
     13 NBK         0.1640   31.4620   -8.8120 N.pl3     1 1BU        -0.1049
     14 NAV         0.5300   30.4060   -8.3540 N.2       1 1BU        -0.1654
     15 CBF        -0.4940   29.8160   -7.8580 C.2       1 1BU        -0.0024
     16 CBL        -0.4440   28.4130   -7.2500 C.3       1 1BU        -0.0451
     17 CAC         0.9790   28.0920   -6.9270 C.3       1 1BU        -0.0851
     18 CAD        -1.2480   28.2390   -6.0230 C.3       1 1BU        -0.0851
     19 CAB        -1.0220   27.4540   -8.2480 C.3       1 1BU        -0.0851
     20 CAR        -1.5330   30.5910   -8.0430 C.2       1 1BU        -0.0188
     21 CBG        -1.0880   31.6680   -8.6140 C.2       1 1BU         0.2196
     22 NAX        -1.7850   32.7080   -9.0140 N.am      1 1BU        -0.1797
     23 CAZ        -2.8330   33.1740   -8.4240 C.2       1 1BU         0.3207
     24 OAF        -3.1890   32.7220   -7.3730 O.2       1 1BU        -0.3797
     25 NAW        -3.4090   34.1660   -9.0420 N.am      1 1BU        -0.2192
     26 CBC        -4.4350   34.9190   -8.6220 C.ar      1 1BU         0.0575
     27 CAL        -5.2970   35.5370   -9.5100 C.ar      1 1BU        -0.0488
     28 CAN        -6.3370   36.3370   -9.0800 C.ar      1 1BU        -0.0491
     29 CAK        -4.6500   35.1690   -7.2910 C.ar      1 1BU        -0.0488
     30 CAM        -5.6800   35.9640   -6.8690 C.ar      1 1BU        -0.0491
     31 CBD        -6.5570   36.5590   -7.7520 C.ar      1 1BU         0.0542
     32 NAY        -7.5620   37.3420   -7.3330 N.pl3     1 1BU        -0.2553
     33 CAS        -9.5100   38.7770   -5.7910 C.ar      1 1BU        -0.0264
     34 CBB       -10.5190   39.3810   -5.0700 C.ar      1 1BU         0.0432
     35 NAE       -10.3200   40.5050   -4.4220 N.pl3     1 1BU        -0.3356
     36 CAO       -11.7650   38.8160   -5.0140 C.ar      1 1BU        -0.0330
     37 CAP       -12.0120   37.6510   -5.6720 C.ar      1 1BU        -0.0450
     38 C2        -10.3560   35.3310   -7.6420 C.ar      1 1BU         0.0555
     39 H1          1.2892   36.0625   -8.6096 H         1 1BU         0.0390
     40 H2          2.0169   36.3631  -10.2240 H         1 1BU         0.0390
     41 H3          3.0744   36.0433   -8.8076 H         1 1BU         0.0390
     42 H4          0.3332   34.0060   -8.3662 H         1 1BU         0.0543
     43 H5          3.7775   34.3929  -10.8382 H         1 1BU         0.0520
     44 H6          3.7151   31.9995  -11.3414 H         1 1BU         0.0590
     45 H7          1.9557   30.6228  -10.3425 H         1 1BU         0.0552
     46 H8          1.0371   27.0852   -6.4878 H         1 1BU         0.0133
     47 H9          1.3670   28.8286   -6.2081 H         1 1BU         0.0133
     48 H10         1.5805   28.1258   -7.8473 H         1 1BU         0.0133
     49 H11        -2.3014   28.4708   -6.2390 H         1 1BU         0.0133
     50 H12        -0.8760   28.9179   -5.2415 H         1 1BU         0.0133
     51 H13        -1.1654   27.1988   -5.6749 H         1 1BU         0.0133
     52 H14        -0.4665   27.5305   -9.1943 H         1 1BU         0.0133
     53 H15        -2.0798   27.7000   -8.4229 H         1 1BU         0.0133
     54 H16        -0.9436   26.4282   -7.8588 H         1 1BU         0.0133
     55 H17        -2.5653   30.3748   -7.7717 H         1 1BU         0.0222
     56 H18        -1.4780   33.1758   -9.8428 H         1 1BU         0.2344
     57 H19        -3.0391   34.3941   -9.9426 H         1 1BU         0.2231
     58 H20        -5.1518   35.3890  -10.5740 H         1 1BU         0.0480
     59 H21        -6.9911   36.7974   -9.8115 H         1 1BU         0.0509
     60 H22        -3.9880   34.7261   -6.5558 H         1 1BU         0.0480
     61 H23        -5.8114   36.1319   -5.8062 H         1 1BU         0.0509
     62 H24        -7.3473   38.3257   -7.1158 H         1 1BU         0.2184
     63 H25        -8.5276   39.2332   -5.8336 H         1 1BU         0.0530
     64 H26       -11.0897   40.9364   -3.8907 H         1 1BU         0.1723
     65 H27        -9.3941   40.9557   -4.4448 H         1 1BU         0.1723
     66 H28       -12.5536   39.2963   -4.4461 H         1 1BU         0.0620
     67 H29       -12.9963   37.1985   -5.6350 H         1 1BU         0.0616
     68 H30       -10.5808   34.3853   -8.1218 H         1 1BU         0.1020
@<TRIPOS>BOND
     1    2    1 ar 
     2    1    5 ar 
     3    1   37 ar 
     4    3    2 ar 
     5    2   33 ar 
     6    3    4 ar 
     7   32    3 1  
     8    4   38 ar 
     9   38    5 ar 
    10    7    6 1  
    11    8    7 ar 
    12    7    9 ar 
    13   12    8 ar 
    14   10    9 ar 
    15   11   10 ar 
    16   12   11 ar 
    17   13   12 1  
    18   13   14 1  
    19   21   13 1  
    20   15   14 2  
    21   15   16 1  
    22   20   15 1  
    23   16   17 1  
    24   16   18 1  
    25   16   19 1  
    26   21   20 2  
    27   22   21 1  
    28   23   22 am 
    29   23   24 2  
    30   25   23 am 
    31   26   25 1  
    32   27   26 ar 
    33   29   26 ar 
    34   28   27 ar 
    35   31   28 ar 
    36   30   29 ar 
    37   31   30 ar 
    38   31   32 1  
    39   33   34 ar 
    40   34   35 1  
    41   34   36 ar 
    42   36   37 ar 
    43    6   39 1  
    44    6   40 1  
    45    6   41 1  
    46    8   42 1  
    47    9   43 1  
    48   10   44 1  
    49   11   45 1  
    50   17   46 1  
    51   17   47 1  
    52   17   48 1  
    53   18   49 1  
    54   18   50 1  
    55   18   51 1  
    56   19   52 1  
    57   19   53 1  
    58   19   54 1  
    59   20   55 1  
    60   22   56 1  
    61   25   57 1  
    62   27   58 1  
    63   28   59 1  
    64   29   60 1  
    65   30   61 1  
    66   32   62 1  
    67   33   63 1  
    68   35   64 1  
    69   35   65 1  
    70   36   66 1  
    71   37   67 1  
    72   38   68 1  
@<TRIPOS>SUBSTRUCTURE
     1 1BU         1

