### 
### Created by X-TOOL on Mon Sep 10 21:13:01 2018
### 

@<TRIPOS>MOLECULE
3f3w_ligand
   68    72     1     0     0
SMALL
GAST_HUCK


@<TRIPOS>ATOM
      1 C4         11.8580   36.5880    6.2170 C.ar      1 1BU         0.0356
      2 C5         10.5810   37.1740    6.4450 C.ar      1 1BU         0.0440
      3 C6          9.6720   36.5080    7.2970 C.ar      1 1BU         0.1530
      4 N1         10.0980   35.3240    7.8340 N.ar      1 1BU        -0.2580
      5 N3         12.1710   35.3950    6.7830 N.ar      1 1BU        -0.3004
      6 CAA        -1.4980   35.7560    8.7070 C.3       1 1BU        -0.0321
      7 CBA        -1.5810   34.2180    9.0170 C.ar      1 1BU        -0.0475
      8 CAQ        -0.6300   33.3550    8.4760 C.ar      1 1BU        -0.0201
      9 CAI        -2.5980   33.6940    9.8180 C.ar      1 1BU        -0.0649
     10 CAG        -2.6590   32.3400   10.0760 C.ar      1 1BU        -0.0696
     11 CAJ        -1.6920   31.4950    9.5190 C.ar      1 1BU        -0.0276
     12 CBE        -0.6610   31.9860    8.7340 C.ar      1 1BU         0.1219
     13 NBK         0.2570   31.1640    8.1880 N.pl3     1 1BU        -0.1049
     14 NAV        -0.0540   30.1120    7.6050 N.2       1 1BU        -0.1654
     15 CBF         1.0760   29.5610    7.1600 C.2       1 1BU        -0.0024
     16 CBL         1.1350   28.2040    6.4140 C.3       1 1BU        -0.0451
     17 CAC        -0.3160   27.7060    6.2360 C.3       1 1BU        -0.0851
     18 CAD         1.8310   28.3070    5.0350 C.3       1 1BU        -0.0851
     19 CAB         1.9730   27.2280    7.2850 C.3       1 1BU        -0.0851
     20 CAR         2.1360   30.3360    7.4910 C.2       1 1BU        -0.0188
     21 CBG         1.5950   31.3730    8.1210 C.2       1 1BU         0.2196
     22 NAX         2.2520   32.4120    8.6330 N.am      1 1BU        -0.1797
     23 CAZ         3.3670   32.9710    8.1430 C.2       1 1BU         0.3207
     24 OAF         3.9100   32.5540    7.1230 O.2       1 1BU        -0.3797
     25 NAW         3.8660   34.0320    8.8240 N.am      1 1BU        -0.2192
     26 CBC         4.9870   34.7400    8.5120 C.ar      1 1BU         0.0575
     27 CAL         5.0360   36.1250    8.7340 C.ar      1 1BU        -0.0488
     28 CAN         6.1940   36.8660    8.4120 C.ar      1 1BU        -0.0491
     29 CAK         6.1430   34.1190    7.9940 C.ar      1 1BU        -0.0488
     30 CAM         7.2840   34.8730    7.6850 C.ar      1 1BU        -0.0491
     31 CBD         7.3330   36.2640    7.8840 C.ar      1 1BU         0.0542
     32 NAY         8.4290   37.0110    7.5890 N.pl3     1 1BU        -0.2553
     33 CAS        10.2610   38.3830    5.8300 C.ar      1 1BU        -0.0264
     34 CBB        11.2130   38.9770    4.9950 C.ar      1 1BU         0.0432
     35 NAE        10.9360   40.1390    4.4070 N.pl3     1 1BU        -0.3356
     36 CAO        12.4650   38.3900    4.7680 C.ar      1 1BU        -0.0330
     37 CAP        12.7980   37.1910    5.3790 C.ar      1 1BU        -0.0450
     38 C2         11.2930   34.7790    7.5750 C.ar      1 1BU         0.0555
     39 H1         -0.6284   35.9538    8.0630 H         1 1BU         0.0390
     40 H2         -1.3916   36.3146    9.6486 H         1 1BU         0.0390
     41 H3         -2.4158   36.0764    8.1923 H         1 1BU         0.0390
     42 H4          0.1508   33.7574    7.8407 H         1 1BU         0.0543
     43 H5         -3.3452   34.3562   10.2403 H         1 1BU         0.0520
     44 H6         -3.4460   31.9356   10.7023 H         1 1BU         0.0590
     45 H7         -1.7512   30.4290    9.7066 H         1 1BU         0.0552
     46 H8         -0.3103   26.7411    5.7079 H         1 1BU         0.0133
     47 H9         -0.8868   28.4413    5.6499 H         1 1BU         0.0133
     48 H10        -0.7844   27.5808    7.2233 H         1 1BU         0.0133
     49 H11         2.8632   28.6621    5.1709 H         1 1BU         0.0133
     50 H12         1.2805   29.0152    4.3984 H         1 1BU         0.0133
     51 H13         1.8440   27.3169    4.5559 H         1 1BU         0.0133
     52 H14         1.5071   27.1293    8.2766 H         1 1BU         0.0133
     53 H15         2.9942   27.6212    7.3972 H         1 1BU         0.0133
     54 H16         2.0110   26.2424    6.7980 H         1 1BU         0.0133
     55 H17         3.1898   30.1516    7.2875 H         1 1BU         0.0222
     56 H18         1.8755   32.8156    9.4669 H         1 1BU         0.2344
     57 H19         3.3607   34.3237    9.6361 H         1 1BU         0.2231
     58 H20         4.1758   36.6311    9.1571 H         1 1BU         0.0480
     59 H21         6.1963   37.9367    8.5811 H         1 1BU         0.0509
     60 H22         6.1492   33.0470    7.8331 H         1 1BU         0.0480
     61 H23         8.1541   34.3686    7.2807 H         1 1BU         0.0509
     62 H24         8.3182   38.0350    7.5842 H         1 1BU         0.2184
     63 H25         9.2976   38.8517    5.9948 H         1 1BU         0.0530
     64 H26        11.6316   40.5830    3.7907 H         1 1BU         0.1723
     65 H27        10.0261   40.5939    4.5685 H         1 1BU         0.1723
     66 H28        13.1771   38.8762    4.1110 H         1 1BU         0.0620
     67 H29        13.7656   36.7323    5.2101 H         1 1BU         0.0616
     68 H30        11.5506   33.8227    8.0157 H         1 1BU         0.1020
@<TRIPOS>BOND
     1    2    1 ar 
     2    1    5 ar 
     3    1   37 ar 
     4    3    2 ar 
     5    2   33 ar 
     6    3    4 ar 
     7   32    3 1  
     8    4   38 ar 
     9   38    5 ar 
    10    7    6 1  
    11    8    7 ar 
    12    7    9 ar 
    13   12    8 ar 
    14   10    9 ar 
    15   11   10 ar 
    16   12   11 ar 
    17   13   12 1  
    18   13   14 1  
    19   21   13 1  
    20   15   14 2  
    21   15   16 1  
    22   20   15 1  
    23   16   17 1  
    24   16   18 1  
    25   16   19 1  
    26   21   20 2  
    27   22   21 1  
    28   23   22 am 
    29   23   24 2  
    30   25   23 am 
    31   26   25 1  
    32   27   26 ar 
    33   29   26 ar 
    34   28   27 ar 
    35   31   28 ar 
    36   30   29 ar 
    37   31   30 ar 
    38   31   32 1  
    39   33   34 ar 
    40   34   35 1  
    41   34   36 ar 
    42   36   37 ar 
    43    6   39 1  
    44    6   40 1  
    45    6   41 1  
    46    8   42 1  
    47    9   43 1  
    48   10   44 1  
    49   11   45 1  
    50   17   46 1  
    51   17   47 1  
    52   17   48 1  
    53   18   49 1  
    54   18   50 1  
    55   18   51 1  
    56   19   52 1  
    57   19   53 1  
    58   19   54 1  
    59   20   55 1  
    60   22   56 1  
    61   25   57 1  
    62   27   58 1  
    63   28   59 1  
    64   29   60 1  
    65   30   61 1  
    66   32   62 1  
    67   33   63 1  
    68   35   64 1  
    69   35   65 1  
    70   36   66 1  
    71   37   67 1  
    72   38   68 1  
@<TRIPOS>SUBSTRUCTURE
     1 1BU         1

