### 
### Created by X-TOOL on Mon Sep 10 21:12:58 2018
### 

@<TRIPOS>MOLECULE
3f48_ligand
   13    12     1     0     0
SMALL
GAST_HUCK


@<TRIPOS>ATOM
      1 N          25.1770   32.4060   18.9430 N.4       1 ALA         0.2325
      2 CA         26.5080   31.7400   18.8570 C.3       1 ALA         0.0255
      3 C          26.3760   30.3630   18.2020 C.2       1 ALA         0.0841
      4 O          27.3870   29.6240   18.1340 O.co2     1 ALA        -0.5643
      5 CB         27.1090   31.6120   20.2560 C.3       1 ALA        -0.0095
      6 OXT        25.2540   30.0330   17.7530 O.co2     1 ALA        -0.5643
      7 H1         25.2811   33.3103   19.3760 H         1 ALA         0.2010
      8 H2         24.5526   31.8391   19.4950 H         1 ALA         0.2010
      9 H3         24.7973   32.5191   18.0161 H         1 ALA         0.2010
     10 H4         27.1753   32.3598   18.2402 H         1 ALA         0.1021
     11 H5         28.0908   31.1204   20.1897 H         1 ALA         0.0303
     12 H6         26.4399   31.0106   20.8889 H         1 ALA         0.0303
     13 H7         27.2291   32.6128   20.6965 H         1 ALA         0.0303
@<TRIPOS>BOND
     1    1    2 1  
     2    2    3 1  
     3    2    5 1  
     4    3    4 ar 
     5    3    6 ar 
     6    1    7 1  
     7    1    8 1  
     8    1    9 1  
     9    2   10 1  
    10    5   11 1  
    11    5   12 1  
    12    5   13 1  
@<TRIPOS>SUBSTRUCTURE
     1 ALA         1

