### 
### Created by X-TOOL on Mon Sep 10 21:13:00 2018
### 

@<TRIPOS>MOLECULE
3f5j_ligand
   87    90     1     0     0
SMALL
GAST_HUCK


@<TRIPOS>ATOM
      1 O1B        -2.5320   -0.8940   51.8550 O.3       1 CTT        -0.3649
      2 C1B        -1.3140   -0.4650   51.2130 C.3       1 CTT         0.1854
      3 C2B        -0.8350   -1.6100   50.3300 C.3       1 CTT         0.1339
      4 O2B        -0.5050   -2.7550   51.1230 O.3       1 CTT        -0.3841
      5 C3B         0.3820   -1.1910   49.5270 C.3       1 CTT         0.1144
      6 O3B         0.7530   -2.2840   48.6690 O.3       1 CTT        -0.3864
      7 O5B        -1.5930    0.7250   50.4530 O.3       1 CTT        -0.3407
      8 C5B        -0.6350    1.2020   49.4910 C.3       1 CTT         0.1134
      9 C6B        -1.4160    2.0720   48.4970 C.3       1 CTT         0.0730
     10 O6B        -1.4290    3.4540   48.8620 O.3       1 CTT        -0.3924
     11 C4B         0.0710    0.0710   48.7100 C.3       1 CTT         0.1184
     12 O4B         1.2930    0.5390   48.1280 O.3       1 CTT        -0.3401
     13 C1C         1.2070    0.7230   46.6710 C.3       1 CTT         0.1884
     14 C2C         2.4600    1.4270   46.1250 C.3       1 CTT         0.1341
     15 O2C         2.5970    2.6720   46.8150 O.3       1 CTT        -0.3841
     16 C3C         2.3610    1.6680   44.6170 C.3       1 CTT         0.1144
     17 O3C         3.6050    2.1910   44.1000 O.3       1 CTT        -0.3864
     18 O5C         0.9950   -0.5290   45.9960 O.3       1 CTT        -0.3405
     19 C5C         0.7680   -0.2920   44.5920 C.3       1 CTT         0.1134
     20 C6C         0.3590   -1.6020   43.9540 C.3       1 CTT         0.0730
     21 O6C        -0.9530   -1.7840   44.4820 O.3       1 CTT        -0.3924
     22 C4C         1.9470    0.3870   43.8770 C.3       1 CTT         0.1184
     23 O4C         1.5100    0.7420   42.5610 O.3       1 CTT        -0.3401
     24 C1D         2.4280    0.4540   41.4790 C.3       1 CTT         0.1884
     25 C2D         1.6930    0.4520   40.1430 C.3       1 CTT         0.1341
     26 O2D         0.6760   -0.5470   40.1980 O.3       1 CTT        -0.3841
     27 C3D         2.6790    0.1500   39.0220 C.3       1 CTT         0.1144
     28 O3D         2.0720    0.1720   37.7070 O.3       1 CTT        -0.3864
     29 O5D         3.4390    1.4570   41.3520 O.3       1 CTT        -0.3405
     30 C5D         4.4850    1.1160   40.4150 C.3       1 CTT         0.1134
     31 C6D         5.6440    2.0940   40.5650 C.3       1 CTT         0.0730
     32 O6D         6.0020    2.1900   41.9650 O.3       1 CTT        -0.3924
     33 C4D         3.8780    1.0840   39.0130 C.3       1 CTT         0.1184
     34 O4D         4.7230    0.4460   38.0650 O.3       1 CTT        -0.3401
     35 C1E         5.5230    1.2320   37.1220 C.3       1 CTT         0.1884
     36 C2E         5.8550    0.3820   35.8440 C.3       1 CTT         0.1341
     37 O2E         7.2640    0.1910   35.5420 O.3       1 CTT        -0.3841
     38 C3E         5.1830    0.9040   34.5900 C.3       1 CTT         0.1141
     39 O3E         5.1180   -0.1210   33.5850 O.3       1 CTT        -0.3864
     40 C4E         3.8240    1.4330   35.0470 C.3       1 CTT         0.1119
     41 O4E         3.0590    1.6690   33.8820 O.3       1 CTT        -0.3865
     42 O5E         4.9490    2.5650   36.9060 O.3       1 CTT        -0.3405
     43 C5E         4.1460    2.7720   35.7170 C.3       1 CTT         0.1130
     44 C6E         2.9670    3.7130   36.0480 C.3       1 CTT         0.0730
     45 O6E         1.8760    3.0400   36.7450 O.3       1 CTT        -0.3924
     46 H1         -2.3621   -1.6799   52.3609 H         1 CTT         0.2126
     47 H2         -0.5466   -0.2402   51.9683 H         1 CTT         0.0935
     48 H3         -1.6442   -1.8796   49.6354 H         1 CTT         0.0671
     49 H4         -0.2090   -3.4571   50.5556 H         1 CTT         0.2101
     50 H5          1.2134   -0.9723   50.2132 H         1 CTT         0.0648
     51 H6          0.0308   -2.4868   48.0861 H         1 CTT         0.2100
     52 H7          0.1268    1.8049   50.0069 H         1 CTT         0.0647
     53 H8         -2.4539    1.7103   48.4532 H         1 CTT         0.0584
     54 H9         -0.9517    1.9750   47.5046 H         1 CTT         0.0584
     55 H10        -0.5373    3.7799   48.8956 H         1 CTT         0.2095
     56 H11        -0.6066   -0.2245   47.8954 H         1 CTT         0.0651
     57 H12         0.3401    1.3681   46.4651 H         1 CTT         0.0938
     58 H13         3.3413    0.7995   46.3238 H         1 CTT         0.0671
     59 H14         2.6896    2.5082   47.7462 H         1 CTT         0.2101
     60 H15         1.5796    2.4230   44.4457 H         1 CTT         0.0648
     61 H16         4.3027    1.5681   44.2666 H         1 CTT         0.2100
     62 H17        -0.0848    0.3977   44.5086 H         1 CTT         0.0647
     63 H18         1.0292   -2.4208   44.2546 H         1 CTT         0.0584
     64 H19         0.3425   -1.5257   42.8568 H         1 CTT         0.0584
     65 H20        -0.9085   -1.8268   45.4300 H         1 CTT         0.2095
     66 H21         2.8012   -0.3039   43.8229 H         1 CTT         0.0651
     67 H22         2.8936   -0.5263   41.6584 H         1 CTT         0.0938
     68 H23         1.2340    1.4363   39.9685 H         1 CTT         0.0671
     69 H24         0.0729   -0.3448   40.9036 H         1 CTT         0.2101
     70 H25         3.0534   -0.8693   39.1978 H         1 CTT         0.0648
     71 H26         2.7317   -0.0223   37.0517 H         1 CTT         0.2100
     72 H27         4.8609    0.1089   40.6484 H         1 CTT         0.0647
     73 H28         5.3416    3.0840   40.1930 H         1 CTT         0.0584
     74 H29         6.5079    1.7334   39.9874 H         1 CTT         0.0584
     75 H30         6.7245    2.7987   42.0649 H         1 CTT         0.2095
     76 H31         3.6118    2.1025   38.6940 H         1 CTT         0.0651
     77 H32         6.4916    1.4127   37.6111 H         1 CTT         0.0938
     78 H33         5.4402   -0.6174   36.0417 H         1 CTT         0.0671
     79 H34         7.6752    1.0367   35.4067 H         1 CTT         0.2101
     80 H35         5.7681    1.7400   34.1792 H         1 CTT         0.0648
     81 H36         4.6943    0.2250   32.8083 H         1 CTT         0.2100
     82 H37         3.3119    0.7413   35.7321 H         1 CTT         0.0647
     83 H38         2.2033    2.0003   34.1281 H         1 CTT         0.2100
     84 H39         4.7701    3.3195   34.9954 H         1 CTT         0.0647
     85 H40         2.5772    4.1300   35.1077 H         1 CTT         0.0584
     86 H41         3.3386    4.5292   36.6849 H         1 CTT         0.0584
     87 H42         1.5401    2.3372   36.2012 H         1 CTT         0.2095
@<TRIPOS>BOND
     1    1    2 1  
     2    2    3 1  
     3    2    7 1  
     4    3    4 1  
     5    3    5 1  
     6    5    6 1  
     7    5   11 1  
     8    7    8 1  
     9    8    9 1  
    10    8   11 1  
    11    9   10 1  
    12   11   12 1  
    13   12   13 1  
    14   13   14 1  
    15   13   18 1  
    16   14   15 1  
    17   14   16 1  
    18   16   17 1  
    19   16   22 1  
    20   18   19 1  
    21   19   20 1  
    22   19   22 1  
    23   20   21 1  
    24   22   23 1  
    25   23   24 1  
    26   24   25 1  
    27   24   29 1  
    28   25   26 1  
    29   25   27 1  
    30   27   28 1  
    31   27   33 1  
    32   29   30 1  
    33   30   31 1  
    34   30   33 1  
    35   31   32 1  
    36   33   34 1  
    37   34   35 1  
    38   35   36 1  
    39   35   42 1  
    40   36   37 1  
    41   36   38 1  
    42   38   39 1  
    43   38   40 1  
    44   40   41 1  
    45   40   43 1  
    46   42   43 1  
    47   43   44 1  
    48   44   45 1  
    49    1   46 1  
    50    2   47 1  
    51    3   48 1  
    52    4   49 1  
    53    5   50 1  
    54    6   51 1  
    55    8   52 1  
    56    9   53 1  
    57    9   54 1  
    58   10   55 1  
    59   11   56 1  
    60   13   57 1  
    61   14   58 1  
    62   15   59 1  
    63   16   60 1  
    64   17   61 1  
    65   19   62 1  
    66   20   63 1  
    67   20   64 1  
    68   21   65 1  
    69   22   66 1  
    70   24   67 1  
    71   25   68 1  
    72   26   69 1  
    73   27   70 1  
    74   28   71 1  
    75   30   72 1  
    76   31   73 1  
    77   31   74 1  
    78   32   75 1  
    79   33   76 1  
    80   35   77 1  
    81   36   78 1  
    82   37   79 1  
    83   38   80 1  
    84   39   81 1  
    85   40   82 1  
    86   41   83 1  
    87   43   84 1  
    88   44   85 1  
    89   44   86 1  
    90   45   87 1  
@<TRIPOS>SUBSTRUCTURE
     1 CTT         1

