### 
### Created by X-TOOL on Mon Sep 10 21:13:00 2018
### 

@<TRIPOS>MOLECULE
3f5k_ligand
  108   112     1     0     0
SMALL
GAST_HUCK


@<TRIPOS>ATOM
      1 O2E         7.2560    0.2800   35.5230 O.3       1 CE5        -0.3841
      2 C2E         5.8370    0.3660   35.8190 C.3       1 CE5         0.1341
      3 C3E         5.1380    0.8380   34.5490 C.3       1 CE5         0.1141
      4 O3E         5.0620   -0.2610   33.6280 O.3       1 CE5        -0.3864
      5 C4E         3.7650    1.4080   34.9510 C.3       1 CE5         0.1119
      6 O4E         3.0090    1.6990   33.7840 O.3       1 CE5        -0.3865
      7 C5E         4.0640    2.7310   35.6610 C.3       1 CE5         0.1130
      8 C6E         2.8600    3.6020   36.0460 C.3       1 CE5         0.0730
      9 O6E         1.9430    2.8550   36.8950 O.3       1 CE5        -0.3924
     10 O5E         4.8170    2.4990   36.8720 O.3       1 CE5        -0.3405
     11 C1E         5.4780    1.2140   37.0910 C.3       1 CE5         0.1884
     12 O4D         4.7800    0.3910   38.0850 O.3       1 CE5        -0.3401
     13 C4D         3.8750    0.9570   39.0290 C.3       1 CE5         0.1184
     14 C5D         4.4750    0.9820   40.4320 C.3       1 CE5         0.1134
     15 O5D         3.4410    1.3760   41.3400 O.3       1 CE5        -0.3405
     16 C6D         5.6610    1.9040   40.6380 C.3       1 CE5         0.0730
     17 O6D         5.9260    1.9540   42.0590 O.3       1 CE5        -0.3924
     18 C3D         2.6590    0.0240   39.0410 C.3       1 CE5         0.1144
     19 O3D         1.9880    0.1420   37.7770 O.3       1 CE5        -0.3864
     20 C2D         1.7030    0.2430   40.2170 C.3       1 CE5         0.1341
     21 O2D         0.7720   -0.8380   40.3610 O.3       1 CE5        -0.3841
     22 C1D         2.4900    0.3410   41.5220 C.3       1 CE5         0.1884
     23 O4C         1.6010    0.6960   42.5810 O.3       1 CE5        -0.3401
     24 C4C         2.0050    0.3330   43.8910 C.3       1 CE5         0.1184
     25 C5C         0.7930   -0.3060   44.5530 C.3       1 CE5         0.1134
     26 O5C         1.0100   -0.5150   45.9430 O.3       1 CE5        -0.3405
     27 C6C         0.4200   -1.6510   43.9580 C.3       1 CE5         0.0730
     28 O6C        -0.9080   -1.8510   44.4370 O.3       1 CE5        -0.3924
     29 C3C         2.3410    1.6350   44.6260 C.3       1 CE5         0.1144
     30 O3C         3.5460    2.2400   44.1060 O.3       1 CE5        -0.3864
     31 C2C         2.4870    1.3920   46.1230 C.3       1 CE5         0.1341
     32 O2C         2.6440    2.6150   46.8370 O.3       1 CE5        -0.3841
     33 C1C         1.2420    0.6930   46.6610 C.3       1 CE5         0.1884
     34 O4B         1.3770    0.4430   48.0690 O.3       1 CE5        -0.3401
     35 C4B         0.1670   -0.0440   48.6450 C.3       1 CE5         0.1184
     36 C5B        -0.5480    1.0870   49.4170 C.3       1 CE5         0.1134
     37 O5B        -1.5230    0.5850   50.3440 O.3       1 CE5        -0.3405
     38 C6B        -1.3000    1.9590   48.4080 C.3       1 CE5         0.0730
     39 O6B        -1.4720    3.3010   48.8660 O.3       1 CE5        -0.3924
     40 C3B         0.4990   -1.2980   49.4570 C.3       1 CE5         0.1144
     41 O3B         0.8520   -2.3780   48.5860 O.3       1 CE5        -0.3864
     42 C2B        -0.7240   -1.7380   50.2340 C.3       1 CE5         0.1341
     43 O2B        -0.3820   -2.8550   51.0550 O.3       1 CE5        -0.3841
     44 C1B        -1.2410   -0.5980   51.1000 C.3       1 CE5         0.1884
     45 O4A        -2.4830   -1.0680   51.6260 O.3       1 CE5        -0.3401
     46 C4A        -2.8000   -0.5970   52.9230 C.3       1 CE5         0.1184
     47 C3A        -3.9690    0.3820   52.8130 C.3       1 CE5         0.1144
     48 O3A        -3.5570    1.5830   52.1430 O.3       1 CE5        -0.3864
     49 C2A        -4.5010    0.7110   54.2020 C.3       1 CE5         0.1339
     50 O2A        -5.6480    1.5640   54.1100 O.3       1 CE5        -0.3841
     51 C1A        -4.8550   -0.5900   54.9180 C.3       1 CE5         0.1854
     52 O1A        -5.3970   -0.2920   56.2140 O.3       1 CE5        -0.3649
     53 O5A        -3.6830   -1.4080   55.0360 O.3       1 CE5        -0.3407
     54 C5A        -3.1420   -1.8200   53.7740 C.3       1 CE5         0.1134
     55 C6A        -1.8830   -2.6980   53.9080 C.3       1 CE5         0.0730
     56 O6A        -1.4060   -2.7590   55.3130 O.3       1 CE5        -0.3924
     57 H1          7.5766    1.1358   35.2633 H         1 CE5         0.2101
     58 H2          5.4859   -0.6553   36.0279 H         1 CE5         0.0671
     59 H3          5.7266    1.6412   34.0817 H         1 CE5         0.0648
     60 H4          4.6275    0.0234   32.8325 H         1 CE5         0.2100
     61 H5          3.2200    0.7115   35.6051 H         1 CE5         0.0647
     62 H6          2.1630    2.0503   34.0355 H         1 CE5         0.2100
     63 H7          4.6854    3.3216   34.9717 H         1 CE5         0.0647
     64 H8          2.3335    3.9164   35.1328 H         1 CE5         0.0584
     65 H9          3.2144    4.4904   36.5893 H         1 CE5         0.0584
     66 H10         1.6335    2.0882   36.4272 H         1 CE5         0.2095
     67 H11         6.4474    1.4732   37.5417 H         1 CE5         0.0938
     68 H12         3.5899    1.9751   38.7256 H         1 CE5         0.0651
     69 H13         4.8022   -0.0399   40.6739 H         1 CE5         0.0647
     70 H14         5.4244    2.9109   40.2637 H         1 CE5         0.0584
     71 H15         6.5396    1.5118   40.1050 H         1 CE5         0.0584
     72 H16         6.6668    2.5260   42.2219 H         1 CE5         0.2095
     73 H17         3.0361   -1.0056   39.1285 H         1 CE5         0.0648
     74 H18         2.5831   -0.1064   37.0794 H         1 CE5         0.2100
     75 H19         1.1484    1.1781   40.0499 H         1 CE5         0.0671
     76 H20         0.1989   -0.6647   41.0985 H         1 CE5         0.2101
     77 H21         2.9898   -0.6122   41.7491 H         1 CE5         0.0938
     78 H22         2.8646   -0.3533   43.8789 H         1 CE5         0.0651
     79 H23        -0.0570    0.3802   44.4243 H         1 CE5         0.0647
     80 H24         1.0938   -2.4433   44.3161 H         1 CE5         0.0584
     81 H25         0.4439   -1.6183   42.8588 H         1 CE5         0.0584
     82 H26        -0.9030   -1.8586   45.3870 H         1 CE5         0.2095
     83 H27         1.5092    2.3376   44.4698 H         1 CE5         0.0648
     84 H28         3.4281    2.4361   43.1840 H         1 CE5         0.2100
     85 H29         3.3684    0.7567   46.2948 H         1 CE5         0.0671
     86 H30         2.7322    2.4298   47.7646 H         1 CE5         0.2101
     87 H31         0.3774    1.3561   46.5103 H         1 CE5         0.0938
     88 H32        -0.5066   -0.3506   47.8312 H         1 CE5         0.0651
     89 H33         0.1996    1.6858   49.9578 H         1 CE5         0.0647
     90 H34        -2.2915    1.5173   48.2299 H         1 CE5         0.0584
     91 H35        -0.7324    1.9778   47.4660 H         1 CE5         0.0584
     92 H36        -0.6206    3.6947   49.0163 H         1 CE5         0.2095
     93 H37         1.3293   -1.0816   50.1453 H         1 CE5         0.0648
     94 H38         0.1230   -2.5677   48.0071 H         1 CE5         0.2100
     95 H39        -1.5122   -2.0360   49.5269 H         1 CE5         0.0671
     96 H40        -0.0784   -3.5687   50.5063 H         1 CE5         0.2101
     97 H41        -0.5234   -0.3696   51.9018 H         1 CE5         0.0938
     98 H42        -1.9347   -0.0775   53.3605 H         1 CE5         0.0651
     99 H43        -4.7721   -0.0902   52.2282 H         1 CE5         0.0648
    100 H44        -3.2504    1.3680   51.2700 H         1 CE5         0.2100
    101 H45        -3.7181    1.2324   54.7722 H         1 CE5         0.0671
    102 H46        -5.9669    1.7593   54.9833 H         1 CE5         0.2101
    103 H47        -5.6108   -1.1317   54.3304 H         1 CE5         0.0935
    104 H48        -6.1712    0.2496   56.1153 H         1 CE5         0.2126
    105 H49        -3.9131   -2.4070   53.2536 H         1 CE5         0.0647
    106 H50        -1.0854   -2.2769   53.2783 H         1 CE5         0.0584
    107 H51        -2.1202   -3.7166   53.5671 H         1 CE5         0.0584
    108 H52        -2.0884   -3.1266   55.8623 H         1 CE5         0.2095
@<TRIPOS>BOND
     1    1    2 1  
     2    2    3 1  
     3    2   11 1  
     4    3    4 1  
     5    3    5 1  
     6    5    6 1  
     7    5    7 1  
     8    7    8 1  
     9    7   10 1  
    10    8    9 1  
    11   10   11 1  
    12   11   12 1  
    13   12   13 1  
    14   13   14 1  
    15   13   18 1  
    16   14   15 1  
    17   14   16 1  
    18   15   22 1  
    19   16   17 1  
    20   18   19 1  
    21   18   20 1  
    22   20   21 1  
    23   20   22 1  
    24   22   23 1  
    25   23   24 1  
    26   24   25 1  
    27   24   29 1  
    28   25   26 1  
    29   25   27 1  
    30   26   33 1  
    31   27   28 1  
    32   29   30 1  
    33   29   31 1  
    34   31   32 1  
    35   31   33 1  
    36   33   34 1  
    37   34   35 1  
    38   35   36 1  
    39   35   40 1  
    40   36   37 1  
    41   36   38 1  
    42   37   44 1  
    43   38   39 1  
    44   40   41 1  
    45   40   42 1  
    46   42   43 1  
    47   42   44 1  
    48   44   45 1  
    49   45   46 1  
    50   46   47 1  
    51   46   54 1  
    52   47   48 1  
    53   47   49 1  
    54   49   50 1  
    55   49   51 1  
    56   51   52 1  
    57   51   53 1  
    58   53   54 1  
    59   54   55 1  
    60   55   56 1  
    61    1   57 1  
    62    2   58 1  
    63    3   59 1  
    64    4   60 1  
    65    5   61 1  
    66    6   62 1  
    67    7   63 1  
    68    8   64 1  
    69    8   65 1  
    70    9   66 1  
    71   11   67 1  
    72   13   68 1  
    73   14   69 1  
    74   16   70 1  
    75   16   71 1  
    76   17   72 1  
    77   18   73 1  
    78   19   74 1  
    79   20   75 1  
    80   21   76 1  
    81   22   77 1  
    82   24   78 1  
    83   25   79 1  
    84   27   80 1  
    85   27   81 1  
    86   28   82 1  
    87   29   83 1  
    88   30   84 1  
    89   31   85 1  
    90   32   86 1  
    91   33   87 1  
    92   35   88 1  
    93   36   89 1  
    94   38   90 1  
    95   38   91 1  
    96   39   92 1  
    97   40   93 1  
    98   41   94 1  
    99   42   95 1  
   100   43   96 1  
   101   44   97 1  
   102   46   98 1  
   103   47   99 1  
   104   48  100 1  
   105   49  101 1  
   106   50  102 1  
   107   51  103 1  
   108   52  104 1  
   109   54  105 1  
   110   55  106 1  
   111   55  107 1  
   112   56  108 1  
@<TRIPOS>SUBSTRUCTURE
     1 CE5         1

