### 
### Created by X-TOOL on Mon Sep 10 21:13:00 2018
### 

@<TRIPOS>MOLECULE
3f5l_ligand
   45    46     1     0     0
SMALL
GAST_HUCK


@<TRIPOS>ATOM
      1 O1D         5.6100    2.2490   42.7050 O.3       1 LB2        -0.3649
      2 C1D         4.7580    2.2460   41.5570 C.3       1 LB2         0.1854
      3 C2D         5.5070    1.6310   40.3800 C.3       1 LB2         0.1343
      4 O2D         6.7120    2.3620   40.1510 O.3       1 LB2        -0.3841
      5 O5D         3.6140    1.4430   41.8260 O.3       1 LB2        -0.3407
      6 C5D         2.6820    1.4860   40.7440 C.3       1 LB2         0.1130
      7 C6D         1.4350    0.6990   41.1420 C.3       1 LB2         0.0730
      8 O6D         1.8120   -0.5610   41.7180 O.3       1 LB2        -0.3924
      9 C4D         3.3160    0.9270   39.4680 C.3       1 LB2         0.1123
     10 O4D         2.4170    1.1130   38.3710 O.3       1 LB2        -0.3865
     11 C3D         4.6490    1.5850   39.1250 C.3       1 LB2         0.1206
     12 O3D         5.3210    0.7550   38.1710 O.3       1 LB2        -0.3401
     13 C1E         5.5420    1.3310   36.8470 C.3       1 LB2         0.1884
     14 C2E         5.9900    0.4490   35.7000 C.3       1 LB2         0.1341
     15 O2E         7.4010    0.1970   35.4640 O.3       1 LB2        -0.3841
     16 C3E         5.3620    0.9830   34.4290 C.3       1 LB2         0.1141
     17 O3E         5.1660   -0.1510   33.5850 O.3       1 LB2        -0.3864
     18 C4E         4.0380    1.6380   34.8260 C.3       1 LB2         0.1119
     19 O4E         3.2000    1.8160   33.6710 O.3       1 LB2        -0.3865
     20 O5E         5.2400    2.7400   36.6230 O.3       1 LB2        -0.3405
     21 C5E         4.3440    2.9640   35.5230 C.3       1 LB2         0.1130
     22 C6E         3.1020    3.7190   36.0050 C.3       1 LB2         0.0730
     23 O6E         2.2160    2.8640   36.7470 O.3       1 LB2        -0.3924
     24 H1          6.3749    2.7842   42.5289 H         1 LB2         0.2126
     25 H2          4.4506    3.2740   41.3149 H         1 LB2         0.0935
     26 H3          5.7738    0.5972   40.6447 H         1 LB2         0.0671
     27 H4          7.1789    1.9790   39.4177 H         1 LB2         0.2101
     28 H5          2.3961    2.5321   40.5598 H         1 LB2         0.0647
     29 H6          0.8165    0.5211   40.2499 H         1 LB2         0.0584
     30 H7          0.8585    1.2781   41.8784 H         1 LB2         0.0584
     31 H8          1.0304   -1.0429   41.9621 H         1 LB2         0.2095
     32 H9          3.4887   -0.1496   39.6130 H         1 LB2         0.0647
     33 H10         2.2426    2.0402   38.2597 H         1 LB2         0.2100
     34 H11         4.4911    2.5966   38.7229 H         1 LB2         0.0651
     35 H12         6.5860    1.5703   37.0976 H         1 LB2         0.0938
     36 H13         5.5506   -0.5390   35.9019 H         1 LB2         0.0671
     37 H14         7.8454    1.0204   35.2998 H         1 LB2         0.2101
     38 H15         6.0155    1.7182   33.9366 H         1 LB2         0.0648
     39 H16         4.7715    0.1287   32.7673 H         1 LB2         0.2100
     40 H17         3.5126    0.9813   35.5350 H         1 LB2         0.0647
     41 H18         2.3829    2.2232   33.9337 H         1 LB2         0.2100
     42 H19         4.8542    3.6080   34.7916 H         1 LB2         0.0647
     43 H20         2.5650    4.1169   35.1313 H         1 LB2         0.0584
     44 H21         3.4187    4.5511   36.6510 H         1 LB2         0.0584
     45 H22         1.9340    2.1452   36.1935 H         1 LB2         0.2095
@<TRIPOS>BOND
     1    1    2 1  
     2    2    3 1  
     3    2    5 1  
     4    3    4 1  
     5    3   11 1  
     6    5    6 1  
     7    6    7 1  
     8    6    9 1  
     9    7    8 1  
    10    9   10 1  
    11    9   11 1  
    12   11   12 1  
    13   12   13 1  
    14   13   14 1  
    15   13   20 1  
    16   14   15 1  
    17   14   16 1  
    18   16   17 1  
    19   16   18 1  
    20   18   19 1  
    21   18   21 1  
    22   20   21 1  
    23   21   22 1  
    24   22   23 1  
    25    1   24 1  
    26    2   25 1  
    27    3   26 1  
    28    4   27 1  
    29    6   28 1  
    30    7   29 1  
    31    7   30 1  
    32    8   31 1  
    33    9   32 1  
    34   10   33 1  
    35   11   34 1  
    36   13   35 1  
    37   14   36 1  
    38   15   37 1  
    39   16   38 1  
    40   17   39 1  
    41   18   40 1  
    42   19   41 1  
    43   21   42 1  
    44   22   43 1  
    45   22   44 1  
    46   23   45 1  
@<TRIPOS>SUBSTRUCTURE
     1 LB2         1

