### 
### Created by X-TOOL on Mon Sep 10 21:12:58 2018
### 

@<TRIPOS>MOLECULE
3f5p_ligand
   68    71     1     0     0
SMALL
GAST_HUCK


@<TRIPOS>ATOM
      1 C1         84.2180   51.7900  148.1120 C.ar      1 741         0.1306
      2 C2         84.5920   52.5290  146.9690 C.ar      1 741         0.1314
      3 C3         83.7380   52.6000  145.8500 C.ar      1 741        -0.0187
      4 C4         82.4970   51.9500  145.8910 C.ar      1 741         0.0206
      5 C5         82.0920   51.2120  147.0640 C.ar      1 741         0.0286
      6 C6         82.9670   51.1500  148.1660 C.ar      1 741        -0.0193
      7 N7         81.6680   52.0260  144.8010 N.ar      1 741        -0.3224
      8 C8         80.4900   51.4190  144.8160 C.ar      1 741         0.0163
      9 C9         80.0320   50.6840  145.9210 C.ar      1 741         0.1339
     10 C10        80.8170   50.5670  147.0880 C.ar      1 741         0.1179
     11 O11        85.0180   51.6900  149.2500 O.3       1 741        -0.3205
     12 O12        85.8610   53.1040  146.9640 O.3       1 741        -0.3133
     13 C13        86.6000   53.4220  145.7800 C.3       1 741         0.0758
     14 C14        87.0770   54.8470  146.1100 C.3       1 741         0.0154
     15 C15        87.4430   55.3100  147.5310 C.3       1 741        -0.0296
     16 C16        85.6960   52.8910  149.6060 C.3       1 741         0.0581
     17 N17        80.4420   49.8530  148.2280 N.pl3     1 741        -0.2576
     18 C18        79.7320   48.6650  148.1990 C.ar      1 741         0.0621
     19 C19        78.7720   48.4130  149.1990 C.ar      1 741        -0.0416
     20 C20        78.0160   47.2270  149.2160 C.ar      1 741        -0.0547
     21 C21        78.2130   46.2710  148.2180 C.ar      1 741         0.0403
     22 C22        79.1650   46.5150  147.2190 C.ar      1 741         0.0464
     23 C23        79.9240   47.6960  147.1960 C.ar      1 741        -0.0280
     24 CL24       79.3910   45.3060  145.9930 Cl        1 741        -0.0784
     25 S25        77.2430   44.7580  148.2400 S.3       1 741         0.0034
     26 C26        75.9520   45.0590  149.4420 C.2       1 741         0.1906
     27 N27        76.1290   44.8910  150.7640 N.2       1 741        -0.3269
     28 C28        74.9200   45.2840  151.2500 C.2       1 741        -0.0351
     29 C29        74.0810   45.6690  150.1800 C.2       1 741         0.0288
     30 N30        74.7740   45.5320  149.0180 N.pl3     1 741        -0.2428
     31 C31        74.3500   45.7830  147.6400 C.3       1 741         0.0471
     32 C32        78.7080   50.1590  145.8030 C.1       1 741         0.0844
     33 N33        77.5920   49.8520  145.7560 N.1       1 741        -0.3473
     34 N34        88.6150   56.2000  147.3570 N.4       1 741         0.2348
     35 C35        88.5500   57.5800  147.8840 C.3       1 741        -0.0084
     36 C36        89.9380   55.5500  147.4100 C.3       1 741        -0.0430
     37 C37        89.9330   58.2670  147.8840 C.3       1 741         0.0841
     38 O38        90.8250   57.6850  148.8560 O.3       1 741        -0.3898
     39 H1         84.0380   53.1518  144.9665 H         1 741         0.0494
     40 H2         82.6753   50.6075  149.0580 H         1 741         0.0544
     41 H3         79.8550   51.4929  143.9405 H         1 741         0.0841
     42 H4         85.9586   53.4069  144.8865 H         1 741         0.0617
     43 H5         87.4470   52.7353  145.6351 H         1 741         0.0617
     44 H6         86.2745   55.5190  145.7718 H         1 741         0.0343
     45 H7         87.9762   55.0127  145.4985 H         1 741         0.0343
     46 H8         87.7031   54.4481  148.1630 H         1 741         0.0815
     47 H9         86.6054   55.8590  147.9861 H         1 741         0.0815
     48 H10        86.2987   52.7177  150.5097 H         1 741         0.0575
     49 H11        84.9591   53.6835  149.8032 H         1 741         0.0575
     50 H12        86.3539   53.1993  148.7801 H         1 741         0.0575
     51 H13        80.7101   50.2336  149.1468 H         1 741         0.2200
     52 H14        78.6119   49.1523  149.9754 H         1 741         0.0530
     53 H15        77.2855   47.0565  149.9986 H         1 741         0.0544
     54 H16        80.6532   47.8606  146.4110 H         1 741         0.0533
     55 H17        74.6417   45.2994  152.3027 H         1 741         0.0410
     56 H18        73.0530   46.0167  150.2707 H         1 741         0.0798
     57 H19        75.1814   45.5619  146.9545 H         1 741         0.0582
     58 H20        74.0571   46.8378  147.5328 H         1 741         0.0582
     59 H21        73.4929   45.1379  147.3968 H         1 741         0.0582
     60 H22        88.5436   56.3883  146.3693 H         1 741         0.2031
     61 H23        88.1697   57.5483  148.9157 H         1 741         0.0837
     62 H24        87.8623   58.1670  147.2575 H         1 741         0.0837
     63 H25        89.8645   54.5344  146.9939 H         1 741         0.0778
     64 H26        90.2777   55.4944  148.4548 H         1 741         0.0778
     65 H27        90.6585   56.1363  146.8209 H         1 741         0.0778
     66 H28        89.7998   59.3335  148.1180 H         1 741         0.0610
     67 H29        90.3808   58.1640  146.8846 H         1 741         0.0610
     68 H30        91.6618   58.1336  148.8248 H         1 741         0.2096
@<TRIPOS>BOND
     1    1    2 ar 
     2    1    6 ar 
     3    1   11 1  
     4    2    3 ar 
     5    2   12 1  
     6    3    4 ar 
     7    4    5 ar 
     8    4    7 ar 
     9    5    6 ar 
    10    5   10 ar 
    11    7    8 ar 
    12    8    9 ar 
    13    9   10 ar 
    14    9   32 1  
    15   10   17 1  
    16   11   16 1  
    17   12   13 1  
    18   13   14 1  
    19   14   15 1  
    20   15   34 1  
    21   17   18 1  
    22   18   19 ar 
    23   18   23 ar 
    24   19   20 ar 
    25   20   21 ar 
    26   21   22 ar 
    27   21   25 1  
    28   22   23 ar 
    29   22   24 1  
    30   25   26 1  
    31   26   27 2  
    32   26   30 1  
    33   27   28 1  
    34   28   29 2  
    35   29   30 1  
    36   30   31 1  
    37   32   33 3  
    38   34   35 1  
    39   34   36 1  
    40   35   37 1  
    41   37   38 1  
    42    3   39 1  
    43    6   40 1  
    44    8   41 1  
    45   13   42 1  
    46   13   43 1  
    47   14   44 1  
    48   14   45 1  
    49   15   46 1  
    50   15   47 1  
    51   16   48 1  
    52   16   49 1  
    53   16   50 1  
    54   17   51 1  
    55   19   52 1  
    56   20   53 1  
    57   23   54 1  
    58   28   55 1  
    59   29   56 1  
    60   31   57 1  
    61   31   58 1  
    62   31   59 1  
    63   34   60 1  
    64   35   61 1  
    65   35   62 1  
    66   36   63 1  
    67   36   64 1  
    68   36   65 1  
    69   37   66 1  
    70   37   67 1  
    71   38   68 1  
@<TRIPOS>SUBSTRUCTURE
     1 741         1

