### 
### Created by X-TOOL on Mon Sep 10 21:12:57 2018
### 

@<TRIPOS>MOLECULE
3f66_ligand
   48    51     1     0     0
SMALL
GAST_HUCK


@<TRIPOS>ATOM
      1 C1         -1.2730  -19.8400   31.0320 C.ar      1 IHX        -0.0698
      2 C2         -1.3350  -21.2170   30.9190 C.ar      1 IHX        -0.0648
      3 C3         -1.3180  -19.0680   29.8830 C.ar      1 IHX        -0.0332
      4 C4         -1.4740  -21.8150   29.6760 C.ar      1 IHX        -0.0218
      5 C5         -1.4340  -19.6750   28.6330 C.ar      1 IHX         0.0878
      6 C6         -1.5140  -21.0620   28.5160 C.ar      1 IHX        -0.0261
      7 C7         -1.5620  -23.2760   29.6370 C.ar      1 IHX         0.0173
      8 C8         -0.8940  -24.0720   28.7190 C.ar      1 IHX         0.0845
      9 C11        -2.4040  -23.8800   30.5600 C.ar      1 IHX        -0.0300
     10 C12        -2.5700  -25.2610   30.5600 C.ar      1 IHX         0.0507
     11 C18         0.6150  -24.3380   26.9130 C.ar      1 IHX         0.1608
     12 C19         0.4480  -25.7090   27.0320 C.ar      1 IHX         0.0805
     13 N22         1.4250  -23.7200   25.9600 N.pl3     1 IHX        -0.2679
     14 C24         3.4040  -23.8820   24.4200 C.3       1 IHX        -0.0103
     15 C27         1.5200  -22.2460   25.9290 C.3       1 IHX         0.0755
     16 F17        -4.5530  -25.1880   31.8050 F         1 IHX        -0.2268
     17 C14        -3.4430  -25.8770   31.6180 C.3       1 IHX         0.3720
     18 F15        -2.7630  -25.7790   32.7710 F         1 IHX        -0.2268
     19 F16        -3.7730  -27.1450   31.3940 F         1 IHX        -0.2268
     20 O13        -1.4640  -18.9110   27.5140 O.3       1 IHX        -0.3333
     21 C10        -1.8970  -26.0450   29.6890 C.ar      1 IHX         0.0020
     22 C9         -1.0550  -25.4600   28.7760 C.ar      1 IHX         0.1015
     23 N21        -0.3800  -26.2800   27.9430 N.ar      1 IHX        -0.2554
     24 N20        -0.0500  -23.5130   27.7810 N.ar      1 IHX        -0.2478
     25 C25         2.7810  -21.6770   25.2400 C.3       1 IHX        -0.0103
     26 N23         3.2360  -22.4640   24.0730 N.4       1 IHX         0.2361
     27 C28         4.5280  -21.9420   23.6090 C.3       1 IHX        -0.0429
     28 C26         2.0680  -24.4680   24.8500 C.3       1 IHX         0.0755
     29 H1         -1.1904  -19.3716   32.0061 H         1 IHX         0.0590
     30 H2         -1.2745  -21.8332   31.8088 H         1 IHX         0.0531
     31 H3         -1.2628  -17.9878   29.9557 H         1 IHX         0.0544
     32 H4         -1.6048  -21.5361   27.5454 H         1 IHX         0.0541
     33 H5         -2.9348  -23.2728   31.2843 H         1 IHX         0.0779
     34 H6          1.0058  -26.3563   26.3650 H         1 IHX         0.0952
     35 H7          4.1255  -23.9732   25.2453 H         1 IHX         0.0835
     36 H8          3.7784  -24.4308   23.5433 H         1 IHX         0.0835
     37 H9          1.5079  -21.8833   26.9674 H         1 IHX         0.0587
     38 H10         0.6387  -21.8603   25.3956 H         1 IHX         0.0587
     39 H11        -0.7326  -19.1430   26.9538 H         1 IHX         0.2479
     40 H12        -2.0204  -27.1217   29.7109 H         1 IHX         0.1030
     41 H13         3.5961  -21.6502   25.9781 H         1 IHX         0.0835
     42 H14         2.5587  -20.6541   24.9019 H         1 IHX         0.0835
     43 H15         2.5540  -22.3820   23.3353 H         1 IHX         0.2032
     44 H16         4.8688  -22.5255   22.7410 H         1 IHX         0.0778
     45 H17         5.2682  -22.0228   24.4186 H         1 IHX         0.0778
     46 H18         4.4146  -20.8868   23.3197 H         1 IHX         0.0778
     47 H19         1.3890  -24.4595   23.9846 H         1 IHX         0.0587
     48 H20         2.2317  -25.5053   25.1775 H         1 IHX         0.0587
@<TRIPOS>BOND
     1    2    1 ar 
     2    1    3 ar 
     3    4    2 ar 
     4    5    3 ar 
     5    4    6 ar 
     6    7    4 1  
     7    6    5 ar 
     8    5   20 1  
     9    8    7 ar 
    10    7    9 ar 
    11    8   22 ar 
    12   24    8 ar 
    13    9   10 ar 
    14   10   17 1  
    15   10   21 ar 
    16   11   12 ar 
    17   13   11 1  
    18   11   24 ar 
    19   12   23 ar 
    20   13   15 1  
    21   28   13 1  
    22   14   26 1  
    23   14   28 1  
    24   15   25 1  
    25   17   16 1  
    26   17   18 1  
    27   17   19 1  
    28   21   22 ar 
    29   22   23 ar 
    30   25   26 1  
    31   26   27 1  
    32    1   29 1  
    33    2   30 1  
    34    3   31 1  
    35    6   32 1  
    36    9   33 1  
    37   12   34 1  
    38   14   35 1  
    39   14   36 1  
    40   15   37 1  
    41   15   38 1  
    42   20   39 1  
    43   21   40 1  
    44   25   41 1  
    45   25   42 1  
    46   26   43 1  
    47   27   44 1  
    48   27   45 1  
    49   27   46 1  
    50   28   47 1  
    51   28   48 1  
@<TRIPOS>SUBSTRUCTURE
     1 IHX         1

