### 
### Created by X-TOOL on Mon Sep 10 21:13:01 2018
### 

@<TRIPOS>MOLECULE
3f68_ligand
   62    64     1     0     0
SMALL
GAST_HUCK


@<TRIPOS>ATOM
      1 C31        18.0660  -14.4250   24.7040 C.3       1 91U        -0.0096
      2 N          16.8970  -15.8960   23.1390 N.am      1 91U        -0.2658
      3 C47        17.2460  -17.0620   23.7640 C.2       1 91U         0.1751
      4 C49        16.6730  -17.5100   25.0830 C.3       1 91U         0.0258
      5 O48        18.0830  -17.7930   23.2470 O.2       1 91U        -0.3972
      6 C15        17.8040  -14.7420   23.1940 C.3       1 91U         0.1313
      7 C14        17.2690  -13.5320   22.4620 C.2       1 91U         0.2064
      8 O32        16.2220  -13.0730   22.9020 O.2       1 91U        -0.3942
      9 N1         17.9290  -12.9930   21.3930 N.am      1 91U        -0.2498
     10 C33        19.0900  -13.6780   20.8010 C.3       1 91U         0.0369
     11 C34        19.5780  -12.6040   19.7990 C.3       1 91U        -0.0281
     12 C35        18.2600  -11.9090   19.3920 C.3       1 91U        -0.0104
     13 C32        17.4840  -11.7760   20.7390 C.3       1 91U         0.1338
     14 C7         15.9990  -11.7370   20.4600 C.2       1 91U         0.2037
     15 N23        15.3080  -10.5830   20.6460 N.am      1 91U        -0.2737
     16 C24        13.8730  -10.5960   20.3560 C.3       1 91U         0.0645
     17 C25        13.0160  -10.4950   21.6230 C.ar      1 91U        -0.0205
     18 C30        13.0730   -9.3430   22.4230 C.ar      1 91U        -0.0446
     19 C29        12.3220   -9.2710   23.6070 C.ar      1 91U         0.0338
     20 C28        11.4280  -10.2920   23.9420 C.ar      1 91U        -0.0548
     21 C27        11.3700  -11.4470   23.1350 C.ar      1 91U        -0.0680
     22 C26        12.1440  -11.5250   21.9710 C.ar      1 91U        -0.0583
     23 O22        15.4200  -12.7430   20.0720 O.2       1 91U        -0.3944
     24 C1         19.5960  -14.3690   25.0120 C.3       1 91U        -0.0368
     25 C6         20.4340  -14.4730   23.7030 C.3       1 91U        -0.0500
     26 C5         21.9310  -14.6710   24.0480 C.3       1 91U        -0.0528
     27 C4         22.4320  -13.5320   24.9550 C.3       1 91U        -0.0530
     28 C3         21.5350  -13.2610   26.1780 C.3       1 91U        -0.0528
     29 C2         20.0410  -13.0960   25.7820 C.3       1 91U        -0.0500
     30 CL21       12.4570   -7.8540   24.6340 Cl        1 91U        -0.0725
     31 H1         17.6044  -15.2101   25.3208 H         1 91U         0.0315
     32 H2         17.6147  -13.4525   24.9501 H         1 91U         0.0315
     33 H3         16.0288  -15.8298   22.6472 H         1 91U         0.1882
     34 H4         17.1161  -18.4762   25.3660 H         1 91U         0.0467
     35 H5         15.5824  -17.6198   24.9907 H         1 91U         0.0467
     36 H6         16.9021  -16.7612   25.8556 H         1 91U         0.0467
     37 H7         18.7559  -15.0246   22.7208 H         1 91U         0.0800
     38 H8         18.7952  -14.6057   20.2888 H         1 91U         0.0524
     39 H9         19.8560  -13.9042   21.5573 H         1 91U         0.0524
     40 H10        20.0701  -13.0647   18.9298 H         1 91U         0.0287
     41 H11        20.2695  -11.8962   20.2794 H         1 91U         0.0287
     42 H12        17.6975  -12.5236   18.6738 H         1 91U         0.0313
     43 H13        18.4569  -10.9198   18.9530 H         1 91U         0.0313
     44 H14        17.7770  -10.8813   21.3079 H         1 91U         0.0802
     45 H15        15.7632   -9.7535   20.9696 H         1 91U         0.1878
     46 H16        13.6265  -11.5343   19.8376 H         1 91U         0.0683
     47 H17        13.6377   -9.7432   19.7023 H         1 91U         0.0683
     48 H18        13.6975   -8.5081   22.1263 H         1 91U         0.0562
     49 H19        10.7873  -10.1971   24.8112 H         1 91U         0.0565
     50 H20        10.7270  -12.2734   23.4156 H         1 91U         0.0599
     51 H21        12.0641  -12.3973   21.3325 H         1 91U         0.0559
     52 H22        19.8320  -15.2392   25.6422 H         1 91U         0.0303
     53 H23        20.3138  -13.5487   23.1189 H         1 91U         0.0268
     54 H24        20.0801  -15.3297   23.1108 H         1 91U         0.0268
     55 H25        22.5187  -14.6780   23.1182 H         1 91U         0.0265
     56 H26        22.0582  -15.6311   24.5695 H         1 91U         0.0265
     57 H27        22.4860  -12.6113   24.3555 H         1 91U         0.0265
     58 H28        23.4376  -13.7944   25.3155 H         1 91U         0.0265
     59 H29        21.8755  -12.3380   26.6701 H         1 91U         0.0265
     60 H30        21.6253  -14.1046   26.8781 H         1 91U         0.0265
     61 H31        19.4277  -12.9756   26.6871 H         1 91U         0.0268
     62 H32        19.9225  -12.2118   25.1385 H         1 91U         0.0268
@<TRIPOS>BOND
     1    6    1 1  
     2    1   24 1  
     3    2    3 am 
     4    2    6 1  
     5    3    4 1  
     6    3    5 2  
     7    6    7 1  
     8    7    8 2  
     9    7    9 am 
    10    9   10 1  
    11    9   13 1  
    12   10   11 1  
    13   11   12 1  
    14   12   13 1  
    15   13   14 1  
    16   14   15 am 
    17   14   23 2  
    18   15   16 1  
    19   16   17 1  
    20   17   18 ar 
    21   17   22 ar 
    22   18   19 ar 
    23   19   20 ar 
    24   19   30 1  
    25   20   21 ar 
    26   21   22 ar 
    27   24   25 1  
    28   24   29 1  
    29   25   26 1  
    30   26   27 1  
    31   27   28 1  
    32   28   29 1  
    33    1   31 1  
    34    1   32 1  
    35    2   33 1  
    36    4   34 1  
    37    4   35 1  
    38    4   36 1  
    39    6   37 1  
    40   10   38 1  
    41   10   39 1  
    42   11   40 1  
    43   11   41 1  
    44   12   42 1  
    45   12   43 1  
    46   13   44 1  
    47   15   45 1  
    48   16   46 1  
    49   16   47 1  
    50   18   48 1  
    51   20   49 1  
    52   21   50 1  
    53   22   51 1  
    54   24   52 1  
    55   25   53 1  
    56   25   54 1  
    57   26   55 1  
    58   26   56 1  
    59   27   57 1  
    60   27   58 1  
    61   28   59 1  
    62   28   60 1  
    63   29   61 1  
    64   29   62 1  
@<TRIPOS>SUBSTRUCTURE
     1 91U         1

