### 
### Created by X-TOOL on Mon Sep 10 21:12:58 2018
### 

@<TRIPOS>MOLECULE
3f69_ligand
   56    63     1     0     0
SMALL
GAST_HUCK


@<TRIPOS>ATOM
      1 CAR       -42.0940  -49.8320    3.7870 C.3       1 XDR         0.0650
      2 OAV       -43.3730  -49.1310    4.0980 O.3       1 XDR        -0.2786
      3 CAY       -44.0480  -48.4850    3.1000 C.2       1 XDR         0.2933
      4 OAD       -43.5930  -48.4370    1.9590 O.2       1 XDR        -0.3092
      5 CBM       -45.4570  -48.0020    3.3740 C.3       1 XDR         0.2165
      6 OAE       -46.1730  -47.4230    2.3000 O.3       1 XDR        -0.3790
      7 CAT       -46.1030  -48.2840    4.7430 C.3       1 XDR         0.0422
      8 CBL       -45.1920  -47.7420    5.8470 C.3       1 XDR         0.1634
      9 OAW       -44.4270  -46.7430    5.1980 O.3       1 XDR        -0.3158
     10 CBN       -45.0760  -46.5560    3.9290 C.3       1 XDR         0.2075
     11 CAB       -44.0700  -45.7770    3.0800 C.3       1 XDR        -0.0069
     12 NBK       -46.2240  -45.5780    4.1600 N.pl3     1 XDR        -0.2301
     13 CBE       -46.5870  -44.6440    3.2740 C.ar      1 XDR         0.0693
     14 CAM       -46.1090  -44.3320    2.0100 C.ar      1 XDR        -0.0408
     15 CAI       -46.6940  -43.2850    1.2940 C.ar      1 XDR        -0.0739
     16 CAF       -47.7570  -42.5620    1.8320 C.ar      1 XDR        -0.0759
     17 CAJ       -48.2490  -42.8720    3.0970 C.ar      1 XDR        -0.0696
     18 CBB       -47.6590  -43.9090    3.8000 C.ar      1 XDR        -0.0075
     19 CBF       -47.9290  -44.4340    5.0480 C.ar      1 XDR         0.0011
     20 CBI       -47.0090  -45.4560    5.2250 C.ar      1 XDR         0.0977
     21 CBH       -47.0390  -46.1750    6.3920 C.ar      1 XDR         0.0952
     22 NBJ       -46.2390  -47.1820    6.7160 N.pl3     1 XDR        -0.2379
     23 CBD       -46.6150  -47.6240    7.9250 C.ar      1 XDR         0.0681
     24 CAL       -46.1250  -48.6620    8.7110 C.ar      1 XDR        -0.0404
     25 CAH       -46.7180  -48.9520    9.9320 C.ar      1 XDR        -0.0732
     26 CAG       -47.7780  -48.1770   10.3840 C.ar      1 XDR        -0.0750
     27 CAK       -48.2530  -47.1010    9.6290 C.ar      1 XDR        -0.0685
     28 CBC       -47.6890  -46.8360    8.3860 C.ar      1 XDR        -0.0072
     29 CBG       -47.9640  -45.8910    7.4040 C.ar      1 XDR        -0.0018
     30 CBA       -48.9000  -44.8660    7.2480 C.ar      1 XDR         0.0320
     31 CAZ       -48.8560  -44.1450    6.0620 C.ar      1 XDR        -0.0168
     32 CAS       -49.9240  -43.0650    6.0900 C.3       1 XDR         0.0603
     33 NAU       -50.5530  -43.2910    7.3930 N.am      1 XDR        -0.2790
     34 CAX       -49.9420  -44.3110    8.0260 C.2       1 XDR         0.1871
     35 OAC       -50.3210  -44.7000    9.1530 O.2       1 XDR        -0.3964
     36 H1        -41.6953  -50.2912    4.7036 H         1 XDR         0.0576
     37 H2        -41.3655  -49.1081    3.3929 H         1 XDR         0.0576
     38 H3        -42.2777  -50.6137    3.0352 H         1 XDR         0.0576
     39 H4        -46.2579  -48.0580    1.5986 H         1 XDR         0.2080
     40 H5        -46.2336  -49.3685    4.8724 H         1 XDR         0.0332
     41 H6        -47.0831  -47.7876    4.7973 H         1 XDR         0.0332
     42 H7        -44.5611  -48.4908    6.3482 H         1 XDR         0.0930
     43 H8        -43.8760  -44.7997    3.5461 H         1 XDR         0.0283
     44 H9        -44.4806  -45.6267    2.0706 H         1 XDR         0.0283
     45 H10       -43.1299  -46.3442    3.0128 H         1 XDR         0.0283
     46 H11       -45.2884  -44.8959    1.5814 H         1 XDR         0.0538
     47 H12       -46.3172  -43.0322    0.3095 H         1 XDR         0.0561
     48 H13       -48.2029  -41.7544    1.2628 H         1 XDR         0.0516
     49 H14       -49.0755  -42.3141    3.5221 H         1 XDR         0.0566
     50 H15       -45.2780  -49.2457    8.3691 H         1 XDR         0.0539
     51 H16       -46.3552  -49.7800   10.5303 H         1 XDR         0.0568
     52 H17       -48.2432  -48.4097   11.3351 H         1 XDR         0.0516
     53 H18       -49.0545  -46.4782   10.0094 H         1 XDR         0.0576
     54 H19       -50.6456  -43.1954    5.2701 H         1 XDR         0.0679
     55 H20       -49.4786  -42.0610    6.0302 H         1 XDR         0.0679
     56 H21       -51.3218  -42.7662    7.7585 H         1 XDR         0.1863
@<TRIPOS>BOND
     1    1    2 1  
     2    2    3 1  
     3    3    4 2  
     4    3    5 1  
     5    5    6 1  
     6    5    7 1  
     7    5   10 1  
     8    7    8 1  
     9    8    9 1  
    10    8   22 1  
    11    9   10 1  
    12   10   11 1  
    13   10   12 1  
    14   12   13 1  
    15   12   20 1  
    16   13   14 ar 
    17   13   18 ar 
    18   14   15 ar 
    19   15   16 ar 
    20   16   17 ar 
    21   17   18 ar 
    22   18   19 1  
    23   19   20 ar 
    24   19   31 ar 
    25   20   21 ar 
    26   21   22 1  
    27   21   29 ar 
    28   22   23 1  
    29   23   24 ar 
    30   23   28 ar 
    31   24   25 ar 
    32   25   26 ar 
    33   26   27 ar 
    34   27   28 ar 
    35   28   29 1  
    36   29   30 ar 
    37   30   31 ar 
    38   30   34 1  
    39   31   32 1  
    40   32   33 1  
    41   33   34 am 
    42   34   35 2  
    43    1   36 1  
    44    1   37 1  
    45    1   38 1  
    46    6   39 1  
    47    7   40 1  
    48    7   41 1  
    49    8   42 1  
    50   11   43 1  
    51   11   44 1  
    52   11   45 1  
    53   14   46 1  
    54   15   47 1  
    55   16   48 1  
    56   17   49 1  
    57   24   50 1  
    58   25   51 1  
    59   26   52 1  
    60   27   53 1  
    61   32   54 1  
    62   32   55 1  
    63   33   56 1  
@<TRIPOS>SUBSTRUCTURE
     1 XDR         1

