### 
### Created by X-TOOL on Mon Sep 10 21:13:01 2018
### 

@<TRIPOS>MOLECULE
3f6g_ligand
   22    21     1     0     0
SMALL
GAST_HUCK


@<TRIPOS>ATOM
      1 N          14.6010  -38.2120   -4.8270 N.4       1 ILE         0.2329
      2 CA         14.3260  -37.0100   -4.0310 C.3       1 ILE         0.0309
      3 C          15.6440  -36.3860   -3.5690 C.2       1 ILE         0.0847
      4 O          16.5720  -37.1700   -3.2700 O.co2     1 ILE        -0.5642
      5 CB         13.4780  -37.3910   -2.8140 C.3       1 ILE         0.0110
      6 CG1        12.1620  -38.0270   -3.2660 C.3       1 ILE        -0.0466
      7 CG2        13.2170  -36.1640   -1.9390 C.3       1 ILE        -0.0557
      8 CD1        11.2880  -38.3980   -2.0660 C.3       1 ILE        -0.0647
      9 OXT        15.6980  -35.1390   -3.5250 O.co2     1 ILE        -0.5642
     10 H1         15.1592  -37.9636   -5.6288 H         1 ILE         0.2010
     11 H2         13.7311  -38.6169   -5.1357 H         1 ILE         0.2010
     12 H3         15.1017  -38.8810   -4.2633 H         1 ILE         0.2010
     13 H4         13.7754  -36.2829   -4.6459 H         1 ILE         0.1027
     14 H5         14.0345  -38.1295   -2.2182 H         1 ILE         0.0371
     15 H6         12.3825  -38.9363   -3.8444 H         1 ILE         0.0268
     16 H7         11.6168  -37.3123   -3.9000 H         1 ILE         0.0268
     17 H8         14.1763  -35.7252   -1.6272 H         1 ILE         0.0235
     18 H9         12.6443  -36.4635   -1.0489 H         1 ILE         0.0235
     19 H10        12.6428  -35.4208   -2.5116 H         1 ILE         0.0235
     20 H11        10.3511  -38.8519   -2.4212 H         1 ILE         0.0230
     21 H12        11.0594  -37.4924   -1.4849 H         1 ILE         0.0230
     22 H13        11.8251  -39.1164   -1.4293 H         1 ILE         0.0230
@<TRIPOS>BOND
     1    1    2 1  
     2    2    3 1  
     3    2    5 1  
     4    3    4 ar 
     5    3    9 ar 
     6    5    6 1  
     7    5    7 1  
     8    6    8 1  
     9    1   10 1  
    10    1   11 1  
    11    1   12 1  
    12    2   13 1  
    13    5   14 1  
    14    6   15 1  
    15    6   16 1  
    16    7   17 1  
    17    7   18 1  
    18    7   19 1  
    19    8   20 1  
    20    8   21 1  
    21    8   22 1  
@<TRIPOS>SUBSTRUCTURE
     1 ILE         1

