### 
### Created by X-TOOL on Mon Sep 10 21:13:01 2018
### 

@<TRIPOS>MOLECULE
3f6h_ligand
   22    21     1     0     0
SMALL
GAST_HUCK


@<TRIPOS>ATOM
      1 N          35.9230   30.8860   -1.5700 N.4       1 ILE         0.2329
      2 CA         34.4980   30.4770   -1.7290 C.3       1 ILE         0.0309
      3 C          33.8590   30.2650   -0.3590 C.2       1 ILE         0.0847
      4 O          32.7900   30.8060   -0.0770 O.co2     1 ILE        -0.5642
      5 CB         34.3800   29.2000   -2.5960 C.3       1 ILE         0.0110
      6 CG1        35.0350   29.4140   -3.9650 C.3       1 ILE        -0.0466
      7 CG2        32.9160   28.7950   -2.7610 C.3       1 ILE        -0.0557
      8 CD1        35.4670   28.1230   -4.6530 C.3       1 ILE        -0.0647
      9 OXT        34.4010   29.5510    0.4860 O.co2     1 ILE        -0.5642
     10 H          35.9719   31.7278   -0.9960 H         1 ILE         0.2010
     11 H          36.4429   30.1340   -1.1177 H         1 ILE         0.2010
     12 H          36.3257   31.0751   -2.4879 H         1 ILE         0.2010
     13 H          33.9640   31.2759   -2.2435 H         1 ILE         0.1027
     14 H          34.9051   28.3921   -2.0865 H         1 ILE         0.0371
     15 H          35.9324   30.0116   -3.8048 H         1 ILE         0.0268
     16 H          34.2947   29.8912   -4.6072 H         1 ILE         0.0268
     17 H          32.3802   29.5821   -3.2915 H         1 ILE         0.0235
     18 H          32.8589   27.8674   -3.3305 H         1 ILE         0.0235
     19 H          32.4681   28.6476   -1.7782 H         1 ILE         0.0235
     20 H          36.1916   27.6035   -4.0260 H         1 ILE         0.0230
     21 H          34.5960   27.4862   -4.8077 H         1 ILE         0.0230
     22 H          35.9210   28.3599   -5.6152 H         1 ILE         0.0230
@<TRIPOS>BOND
     1    1    2 1  
     2    2    3 1  
     3    2    5 1  
     4    3    4 ar 
     5    3    9 ar 
     6    5    6 1  
     7    5    7 1  
     8    6    8 1  
     9    1   10 1  
    10    1   11 1  
    11    1   12 1  
    12    2   13 1  
    13    5   14 1  
    14    6   15 1  
    15    6   16 1  
    16    7   17 1  
    17    7   18 1  
    18    7   19 1  
    19    8   20 1  
    20    8   21 1  
    21    8   22 1  
@<TRIPOS>SUBSTRUCTURE
     1 ILE         1

