### 
### Created by X-TOOL on Mon Sep 10 21:13:01 2018
### 

@<TRIPOS>MOLECULE
3f70_ligand
   28    27     1     0     0
SMALL
GAST_HUCK


@<TRIPOS>ATOM
      1 N          30.0160   21.8440  -56.9690 N.4       1 MLZ         0.2327
      2 CA         29.5160   20.9120  -55.9250 C.3       1 MLZ         0.0283
      3 CB         29.3400   19.5140  -56.5190 C.3       1 MLZ         0.0026
      4 CG         29.0710   18.3960  -55.4940 C.3       1 MLZ        -0.0416
      5 CD         28.1100   17.3820  -56.1140 C.3       1 MLZ        -0.0123
      6 CE         28.2780   15.9960  -55.5150 C.3       1 MLZ        -0.0339
      7 NZ         27.2820   15.0470  -56.0130 N.4       1 MLZ         0.2248
      8 CM         27.0490   13.8980  -55.1360 C.3       1 MLZ        -0.0449
      9 C          30.4380   20.9270  -54.7220 C.2       1 MLZ         0.0844
     10 O          29.9110   20.9895  -53.5792 O.co2     1 MLZ        -0.5643
     11 O18        31.6895   20.8786  -54.8602 O.co2     1 MLZ        -0.5643
     12 H1         29.3945   21.8244  -57.7624 H         1 MLZ         0.2010
     13 H2         30.9391   21.5606  -57.2582 H         1 MLZ         0.2010
     14 H3         30.0534   22.7791  -56.5946 H         1 MLZ         0.2010
     15 H4         28.5277   21.2632  -55.5933 H         1 MLZ         0.1024
     16 H5         30.2587   19.2590  -57.0676 H         1 MLZ         0.0339
     17 H6         28.4918   19.5456  -57.2187 H         1 MLZ         0.0339
     18 H7         28.6206   18.8260  -54.5872 H         1 MLZ         0.0270
     19 H8         30.0164   17.8980  -55.2331 H         1 MLZ         0.0270
     20 H9         28.3020   17.3266  -57.1957 H         1 MLZ         0.0317
     21 H10        27.0776   17.7202  -55.9416 H         1 MLZ         0.0317
     22 H11        28.1797   16.0696  -54.4219 H         1 MLZ         0.0814
     23 H12        29.2805   15.6210  -55.7686 H         1 MLZ         0.0814
     24 H13        27.5944   14.7026  -56.9073 H         1 MLZ         0.2011
     25 H14        26.4091   15.5377  -56.1281 H         1 MLZ         0.2011
     26 H15        26.2902   13.2411  -55.5862 H         1 MLZ         0.0777
     27 H16        26.6941   14.2505  -54.1563 H         1 MLZ         0.0777
     28 H17        27.9876   13.3391  -55.0066 H         1 MLZ         0.0777
@<TRIPOS>BOND
     1    1    2 1  
     2    2    3 1  
     3    2    9 1  
     4    3    4 1  
     5    4    5 1  
     6    5    6 1  
     7    6    7 1  
     8    7    8 1  
     9    9   10 ar 
    10    9   11 ar 
    11    1   12 1  
    12    1   13 1  
    13    1   14 1  
    14    2   15 1  
    15    3   16 1  
    16    3   17 1  
    17    4   18 1  
    18    4   19 1  
    19    5   20 1  
    20    5   21 1  
    21    6   22 1  
    22    6   23 1  
    23    7   24 1  
    24    7   25 1  
    25    8   26 1  
    26    8   27 1  
    27    8   28 1  
@<TRIPOS>SUBSTRUCTURE
     1 MLZ         1

