### 
### Created by X-TOOL on Mon Sep 10 21:12:59 2018
### 

@<TRIPOS>MOLECULE
3f78_ligand
   12    11     1     0     0
SMALL
GAST_HUCK


@<TRIPOS>ATOM
      1 FAC        27.4000   17.1820    3.8110 F         1 ICF        -0.1667
      2 CAJ        28.2080   17.2250    4.8700 C.3       1 ICF         0.4297
      3 FAD        29.1390   18.1490    4.6670 F         1 ICF        -0.1667
      4 FAE        28.8090   16.0650    5.0390 F         1 ICF        -0.1667
      5 CAI        27.3980   17.5840    6.1190 C.3       1 ICF         0.2315
      6 CLAF       26.2020   16.2800    6.6240 Cl        1 ICF        -0.0813
      7 OAG        26.6990   18.7920    5.7910 O.3       1 ICF        -0.2938
      8 CAH        26.6070   19.7000    6.9060 C.3       1 ICF         0.3482
      9 FAB        26.3150   19.0230    8.0300 F         1 ICF        -0.1783
     10 FAA        27.7460   20.4040    7.0710 F         1 ICF        -0.1783
     11 H1         28.0869   17.7650    6.9572 H         1 ICF         0.0861
     12 H2         25.7912   20.4097    6.7043 H         1 ICF         0.1361
@<TRIPOS>BOND
     1    1    2 1  
     2    2    3 1  
     3    2    4 1  
     4    2    5 1  
     5    5    6 1  
     6    5    7 1  
     7    7    8 1  
     8    8    9 1  
     9    8   10 1  
    10    5   11 1  
    11    8   12 1  
@<TRIPOS>SUBSTRUCTURE
     1 ICF         1

