### 
### Created by X-TOOL on Mon Sep 10 21:13:00 2018
### 

@<TRIPOS>MOLECULE
3f7b_ligand
   47    49     1     0     0
SMALL
GAST_HUCK


@<TRIPOS>ATOM
      1 O14       -53.4040  -62.2710    5.6680 O.2       1 AG5        -0.3854
      2 C1        -52.4270  -62.9370    5.2580 C.2       1 AG5         0.2093
      3 N15       -52.6110  -64.1860    4.7250 N.am      1 AG5        -0.2842
      4 C16       -53.9380  -64.8760    4.6420 C.3       1 AG5         0.0399
      5 C17       -54.3440  -65.4740    5.9960 C.3       1 AG5         0.0011
      6 C18       -53.1530  -66.0220    6.8030 C.ar      1 AG5        -0.0411
      7 C24       -52.5430  -65.2000    7.6680 C.ar      1 AG5        -0.0603
      8 C25       -51.4880  -65.6160    8.3660 C.ar      1 AG5        -0.0686
      9 C26       -50.9520  -66.8520    8.2310 C.ar      1 AG5        -0.0687
     10 C27       -51.5540  -67.7360    7.3820 C.ar      1 AG5        -0.0686
     11 C28       -52.6650  -67.2870    6.6670 C.ar      1 AG5        -0.0603
     12 C6        -51.0330  -62.3260    5.2850 C.ar      1 AG5         0.0936
     13 C7        -49.8600  -63.0710    5.3730 C.ar      1 AG5        -0.0013
     14 C5        -50.9740  -60.9450    5.0790 C.ar      1 AG5         0.1220
     15 N4        -49.8310  -60.3190    5.0570 N.ar      1 AG5        -0.2761
     16 C3        -48.7000  -60.9940    5.2100 C.ar      1 AG5         0.0350
     17 C2        -48.6950  -62.3600    5.3970 C.ar      1 AG5         0.1338
     18 S8        -47.1010  -63.1280    5.5880 S.o2      1 AG5         0.0698
     19 O11       -46.5410  -63.0810    4.2480 O.2       1 AG5        -0.1502
     20 O12       -46.4500  -62.4200    6.6570 O.2       1 AG5        -0.1502
     21 N9        -47.3530  -64.7470    6.0440 N.am      1 AG5        -0.2607
     22 S10       -52.4770  -60.0170    4.8350 S.3       1 AG5        -0.0177
     23 C13       -52.0820  -58.3510    4.5350 C.ar      1 AG5         0.0342
     24 C19       -51.4040  -58.0270    3.3540 C.ar      1 AG5        -0.0470
     25 C20       -51.1230  -56.6970    3.0900 C.ar      1 AG5        -0.0672
     26 C21       -51.5000  -55.7090    4.0090 C.ar      1 AG5        -0.0683
     27 C22       -52.1710  -56.0470    5.1910 C.ar      1 AG5        -0.0672
     28 C23       -52.4910  -57.3830    5.4710 C.ar      1 AG5        -0.0470
     29 H1        -51.8095  -64.6667    4.3693 H         1 AG5         0.1846
     30 H2        -53.8753  -65.6841    3.8983 H         1 AG5         0.0542
     31 H3        -54.7010  -64.1480    4.3291 H         1 AG5         0.0542
     32 H4        -55.0515  -66.2968    5.8160 H         1 AG5         0.0446
     33 H5        -54.8367  -64.6901    6.5900 H         1 AG5         0.0446
     34 H6        -52.9111  -64.1890    7.8004 H         1 AG5         0.0557
     35 H7        -51.0368  -64.9325    9.0761 H         1 AG5         0.0599
     36 H8        -50.0639  -67.1338    8.7851 H         1 AG5         0.0559
     37 H9        -51.1829  -68.7481    7.2678 H         1 AG5         0.0599
     38 H10       -53.1562  -67.9671    5.9805 H         1 AG5         0.0557
     39 H11       -49.8713  -64.1539    5.4198 H         1 AG5         0.0789
     40 H12       -47.7573  -60.4593    5.1875 H         1 AG5         0.0857
     41 H13       -46.5707  -65.3498    6.2009 H         1 AG5         0.1635
     42 H14       -48.2835  -65.0961    6.1553 H         1 AG5         0.1635
     43 H15       -51.1044  -58.8030    2.6589 H         1 AG5         0.0571
     44 H16       -50.6125  -56.4210    2.1744 H         1 AG5         0.0601
     45 H17       -51.2695  -54.6701    3.8027 H         1 AG5         0.0562
     46 H18       -52.4451  -55.2695    5.8949 H         1 AG5         0.0601
     47 H19       -53.0304  -57.6585    6.3700 H         1 AG5         0.0571
@<TRIPOS>BOND
     1    1    2 2  
     2    2    3 am 
     3    2   12 1  
     4    3    4 1  
     5    4    5 1  
     6    5    6 1  
     7    6    7 ar 
     8    6   11 ar 
     9    7    8 ar 
    10    8    9 ar 
    11    9   10 ar 
    12   10   11 ar 
    13   12   13 ar 
    14   12   14 ar 
    15   13   17 ar 
    16   14   15 ar 
    17   14   22 1  
    18   15   16 ar 
    19   16   17 ar 
    20   17   18 1  
    21   18   19 2  
    22   18   20 2  
    23   18   21 am 
    24   22   23 1  
    25   23   24 ar 
    26   23   28 ar 
    27   24   25 ar 
    28   25   26 ar 
    29   26   27 ar 
    30   27   28 ar 
    31    3   29 1  
    32    4   30 1  
    33    4   31 1  
    34    5   32 1  
    35    5   33 1  
    36    7   34 1  
    37    8   35 1  
    38    9   36 1  
    39   10   37 1  
    40   11   38 1  
    41   13   39 1  
    42   16   40 1  
    43   21   41 1  
    44   21   42 1  
    45   24   43 1  
    46   25   44 1  
    47   26   45 1  
    48   27   46 1  
    49   28   47 1  
@<TRIPOS>SUBSTRUCTURE
     1 AG5         1

