### 
### Created by X-TOOL on Mon Sep 10 21:12:59 2018
### 

@<TRIPOS>MOLECULE
3f7g_ligand
   71    73     1     0     0
SMALL
GAST_HUCK


@<TRIPOS>ATOM
      1 N1         22.5020   49.1180   -7.5500 N.4       1 389         0.2377
      2 C2         22.9340   48.7090   -6.1850 C.3       1 389         0.0621
      3 C3         22.6830   49.8270   -5.1820 C.3       1 389        -0.0040
      4 C4         22.2090   47.4320   -5.7710 C.2       1 389         0.2264
      5 O5         21.1600   47.1070   -6.3200 O.2       1 389        -0.3907
      6 N6         22.8090   46.6970   -4.8360 N.am      1 389        -0.2608
      7 C7         22.2400   45.4670   -4.2880 C.3       1 389         0.1336
      8 C8         22.9910   44.1880   -4.7680 C.3       1 389        -0.0062
      9 C9         22.6970   43.8900   -6.2470 C.3       1 389        -0.0584
     10 C10        24.5000   44.2980   -4.5140 C.3       1 389        -0.0584
     11 C11        22.3200   45.5430   -2.7610 C.2       1 389         0.2067
     12 O12        23.1850   46.2330   -2.2140 O.2       1 389        -0.3942
     13 N13        21.4100   44.8440   -2.0660 N.am      1 389        -0.2498
     14 C14        21.5160   44.7850   -0.6130 C.3       1 389         0.1336
     15 C15        20.2200   44.0800   -0.1890 C.3       1 389        -0.0104
     16 C16        19.7520   43.3520   -1.3840 C.3       1 389        -0.0281
     17 C17        20.2510   44.0980   -2.5790 C.3       1 389         0.0369
     18 C18        22.7660   44.0000   -0.1740 C.2       1 389         0.2021
     19 O19        23.2480   43.1520   -0.9280 O.2       1 389        -0.3945
     20 C20        24.5710   43.6400    1.3980 C.3       1 389         0.0525
     21 N21        23.3080   44.2800    1.0140 N.am      1 389        -0.2809
     22 C22        24.9990   43.9090    2.8350 C.3       1 389         0.0456
     23 C23        26.1380   43.0110    3.1340 C.ar      1 389        -0.0269
     24 C24        27.4300   43.3270    2.7200 C.ar      1 389        -0.0580
     25 C25        28.4830   42.4630    3.0170 C.ar      1 389        -0.0682
     26 C26        28.2440   41.2910    3.7230 C.ar      1 389        -0.0685
     27 C27        26.9500   40.9750    4.1320 C.ar      1 389        -0.0682
     28 C28        25.8980   41.8340    3.8370 C.ar      1 389        -0.0580
     29 C29        25.2990   45.3390    3.1420 C.ar      1 389        -0.0269
     30 C30        25.5060   46.3050    2.1550 C.ar      1 389        -0.0580
     31 C31        25.7590   47.6230    2.5080 C.ar      1 389        -0.0682
     32 C32        25.8080   48.0050    3.8400 C.ar      1 389        -0.0685
     33 C33        25.5980   47.0470    4.8270 C.ar      1 389        -0.0682
     34 C34        25.3440   45.7240    4.4810 C.ar      1 389        -0.0580
     35 H1         22.9848   49.9618   -7.8165 H         1 389         0.2015
     36 H2         21.5079   49.2849   -7.5519 H         1 389         0.2015
     37 H3         22.7209   48.3843   -8.2056 H         1 389         0.2015
     38 H4         24.0143   48.5033   -6.2086 H         1 389         0.1095
     39 H5         23.0091   49.5030   -4.1826 H         1 389         0.0310
     40 H6         21.6091   50.0641   -5.1583 H         1 389         0.0310
     41 H7         23.2495   50.7214   -5.4805 H         1 389         0.0310
     42 H8         23.6961   47.0030   -4.4905 H         1 389         0.1885
     43 H9         21.1873   45.3945   -4.5989 H         1 389         0.0803
     44 H10        22.6150   43.3402   -4.1765 H         1 389         0.0343
     45 H11        23.2404   42.9841   -6.5535 H         1 389         0.0234
     46 H12        23.0236   44.7399   -6.8643 H         1 389         0.0234
     47 H13        21.6167   43.7327   -6.3817 H         1 389         0.0234
     48 H14        24.6781   44.5111   -3.4496 H         1 389         0.0234
     49 H15        24.9164   45.1120   -5.1255 H         1 389         0.0234
     50 H16        24.9875   43.3498   -4.7846 H         1 389         0.0234
     51 H17        21.5615   45.7978   -0.1861 H         1 389         0.0802
     52 H18        19.4686   44.8176    0.1294 H         1 389         0.0313
     53 H19        20.4170   43.3782    0.6348 H         1 389         0.0313
     54 H20        18.6527   43.3137   -1.3956 H         1 389         0.0287
     55 H21        20.1546   42.3284   -1.3835 H         1 389         0.0287
     56 H22        20.5534   43.4035   -3.3766 H         1 389         0.0524
     57 H23        19.4814   44.7841   -2.9624 H         1 389         0.0524
     58 H24        25.3617   44.0091    0.7283 H         1 389         0.0568
     59 H25        24.4594   42.5532    1.2696 H         1 389         0.0568
     60 H26        22.8571   44.9200    1.6361 H         1 389         0.1855
     61 H27        24.1617   43.6203    3.4873 H         1 389         0.0638
     62 H28        27.6160   44.2417    2.1687 H         1 389         0.0561
     63 H29        29.4896   42.7062    2.6965 H         1 389         0.0600
     64 H30        29.0644   40.6219    3.9559 H         1 389         0.0561
     65 H31        26.7638   40.0588    4.6805 H         1 389         0.0600
     66 H32        24.8912   41.5874    4.1542 H         1 389         0.0561
     67 H33        25.4689   46.0241    1.1087 H         1 389         0.0561
     68 H34        25.9203   48.3632    1.7327 H         1 389         0.0600
     69 H35        26.0072   49.0361    4.1088 H         1 389         0.0561
     70 H36        25.6326   47.3335    5.8719 H         1 389         0.0600
     71 H37        25.1798   44.9867    5.2585 H         1 389         0.0561
@<TRIPOS>BOND
     1    1    2 1  
     2    2    3 1  
     3    2    4 1  
     4    4    5 2  
     5    4    6 am 
     6    6    7 1  
     7    7    8 1  
     8    7   11 1  
     9    8    9 1  
    10    8   10 1  
    11   11   12 2  
    12   11   13 am 
    13   13   14 1  
    14   13   17 1  
    15   14   15 1  
    16   14   18 1  
    17   15   16 1  
    18   16   17 1  
    19   18   19 2  
    20   18   21 am 
    21   21   20 1  
    22   20   22 1  
    23   22   23 1  
    24   22   29 1  
    25   23   24 ar 
    26   23   28 ar 
    27   24   25 ar 
    28   25   26 ar 
    29   26   27 ar 
    30   27   28 ar 
    31   29   30 ar 
    32   29   34 ar 
    33   30   31 ar 
    34   31   32 ar 
    35   32   33 ar 
    36   33   34 ar 
    37    1   35 1  
    38    1   36 1  
    39    1   37 1  
    40    2   38 1  
    41    3   39 1  
    42    3   40 1  
    43    3   41 1  
    44    6   42 1  
    45    7   43 1  
    46    8   44 1  
    47    9   45 1  
    48    9   46 1  
    49    9   47 1  
    50   10   48 1  
    51   10   49 1  
    52   10   50 1  
    53   14   51 1  
    54   15   52 1  
    55   15   53 1  
    56   16   54 1  
    57   16   55 1  
    58   17   56 1  
    59   17   57 1  
    60   20   58 1  
    61   20   59 1  
    62   21   60 1  
    63   22   61 1  
    64   24   62 1  
    65   25   63 1  
    66   26   64 1  
    67   27   65 1  
    68   28   66 1  
    69   30   67 1  
    70   31   68 1  
    71   32   69 1  
    72   33   70 1  
    73   34   71 1  
@<TRIPOS>SUBSTRUCTURE
     1 389         1

