### 
### Created by X-TOOL on Mon Sep 10 21:12:59 2018
### 

@<TRIPOS>MOLECULE
3f7h_ligand
   81    84     1     0     0
SMALL
GAST_HUCK


@<TRIPOS>ATOM
      1 O6         85.3720   62.2020   13.1570 O.2       1 419        -0.3907
      2 C5         84.7820   61.7570   14.1440 C.2       1 419         0.2265
      3 C3         85.5940   61.3040   15.3840 C.3       1 419         0.0637
      4 N2         86.9710   60.9420   14.9460 N.4       1 419         0.2438
      5 C1         87.1230   59.7810   14.0340 C.3       1 419        -0.0428
      6 C4         85.5830   62.3640   16.5130 C.3       1 419        -0.0039
      7 N7         83.4480   61.6480   14.2140 N.am      1 419        -0.2605
      8 C8         82.5300   61.9650   13.0860 C.3       1 419         0.1359
      9 C9         82.0500   60.6830   12.2980 C.3       1 419         0.0026
     10 C10        83.2860   59.8370   11.8730 C.3       1 419        -0.0558
     11 C11        81.0800   59.7640   13.0970 C.3       1 419        -0.0558
     12 C12        81.3260   61.1090   10.9870 C.3       1 419        -0.0558
     13 C13        81.3550   62.8040   13.6940 C.2       1 419         0.2050
     14 O14        80.8900   62.4410   14.7930 O.2       1 419        -0.3943
     15 N15        80.8200   63.8780   13.0420 N.am      1 419        -0.2658
     16 C16        79.5450   64.4970   13.4570 C.3       1 419         0.0708
     17 C19        81.3890   64.5620   11.8670 C.3       1 419         0.0347
     18 C18        80.8250   65.9720   11.9890 C.3       1 419        -0.0275
     19 C17        79.4230   65.7550   12.5730 C.3       1 419        -0.0137
     20 C20        78.3110   65.4340   11.5520 C.3       1 419        -0.0458
     21 C21        78.0580   63.9310   11.6530 C.3       1 419        -0.0274
     22 C22        78.3180   63.6100   13.1300 C.3       1 419         0.0656
     23 N25        77.1440   63.9600   13.9590 N.am      1 419        -0.2782
     24 C26        76.6100   63.1280   14.8560 C.2       1 419         0.2022
     25 O27        76.9390   61.9450   14.9680 O.2       1 419        -0.3908
     26 C28        75.5060   63.7150   15.7820 C.3       1 419         0.1140
     27 C29        75.9150   63.8990   17.2840 C.ar      1 419        -0.0105
     28 C30        75.0350   64.6350   18.1000 C.ar      1 419        -0.0558
     29 C31        75.3260   64.8380   19.4430 C.ar      1 419        -0.0678
     30 C32        76.4880   64.3140   19.9970 C.ar      1 419        -0.0682
     31 C33        77.3640   63.5830   19.2120 C.ar      1 419        -0.0678
     32 C34        77.0880   63.3710   17.8640 C.ar      1 419        -0.0558
     33 C35        74.2470   62.8270   15.5600 C.ar      1 419        -0.0105
     34 C36        73.8840   61.7930   16.4490 C.ar      1 419        -0.0558
     35 C37        72.7470   61.0220   16.2070 C.ar      1 419        -0.0678
     36 C38        71.9680   61.2710   15.0800 C.ar      1 419        -0.0682
     37 C39        72.3150   62.2880   14.1950 C.ar      1 419        -0.0678
     38 C40        73.4510   63.0640   14.4280 C.ar      1 419        -0.0558
     39 H1         85.1193   60.3971   15.7868 H         1 419         0.1096
     40 H2         87.5087   60.7453   15.7756 H         1 419         0.2032
     41 H3         87.3586   61.7457   14.4771 H         1 419         0.2032
     42 H4         88.1879   59.6361   13.7993 H         1 419         0.0777
     43 H5         86.5651   59.9691   13.1048 H         1 419         0.0777
     44 H6         86.7288   58.8774   14.5219 H         1 419         0.0777
     45 H7         84.5437   62.5901   16.7935 H         1 419         0.0310
     46 H8         86.0752   63.2818   16.1591 H         1 419         0.0310
     47 H9         86.1222   61.9729   17.3884 H         1 419         0.0310
     48 H10        83.0458   61.3354   15.0745 H         1 419         0.1885
     49 H11        83.0702   62.5992   12.3677 H         1 419         0.0805
     50 H12        82.9488   58.9451   11.3246 H         1 419         0.0237
     51 H13        83.8440   59.5273   12.7689 H         1 419         0.0237
     52 H14        83.9384   60.4408   11.2252 H         1 419         0.0237
     53 H15        80.1981   60.3436   13.4073 H         1 419         0.0237
     54 H16        81.5945   59.3741   13.9877 H         1 419         0.0237
     55 H17        80.7620   58.9251   12.4606 H         1 419         0.0237
     56 H18        81.9876   61.7614   10.3982 H         1 419         0.0237
     57 H19        80.4033   61.6528   11.2378 H         1 419         0.0237
     58 H20        81.0757   60.2138   10.3988 H         1 419         0.0237
     59 H21        79.5628   64.7456   14.5284 H         1 419         0.0584
     60 H22        81.0602   64.0836   10.9327 H         1 419         0.0522
     61 H23        82.4882   64.5704   11.9076 H         1 419         0.0522
     62 H24        80.7684   66.4582   11.0039 H         1 419         0.0288
     63 H25        81.4408   66.5835   12.6649 H         1 419         0.0288
     64 H26        79.1324   66.6368   13.1629 H         1 419         0.0324
     65 H27        78.6392   65.6976   10.5357 H         1 419         0.0269
     66 H28        77.3954   65.9918   11.7979 H         1 419         0.0269
     67 H29        78.7494   63.3735   11.0041 H         1 419         0.0288
     68 H30        77.0209   63.6895   11.3770 H         1 419         0.0288
     69 H31        78.5557   62.5450   13.2686 H         1 419         0.0579
     70 H32        76.7306   64.8630   13.8419 H         1 419         0.1858
     71 H33        75.2697   64.7236   15.4121 H         1 419         0.0847
     72 H34        74.1250   65.0457   17.6778 H         1 419         0.0565
     73 H35        74.6431   65.4082   20.0623 H         1 419         0.0601
     74 H36        76.7090   64.4778   21.0455 H         1 419         0.0563
     75 H37        78.2680   63.1743   19.6488 H         1 419         0.0601
     76 H38        77.7782   62.7970   17.2564 H         1 419         0.0565
     77 H39        74.4920   61.5968   17.3247 H         1 419         0.0565
     78 H40        72.4705   60.2309   16.8946 H         1 419         0.0601
     79 H41        71.0863   60.6695   14.8907 H         1 419         0.0563
     80 H42        71.7008   62.4777   13.3222 H         1 419         0.0601
     81 H43        73.7196   63.8517   13.7334 H         1 419         0.0565
@<TRIPOS>BOND
     1    1    2 2  
     2    2    3 1  
     3    2    7 am 
     4    3    4 1  
     5    3    6 1  
     6    4    5 1  
     7    7    8 1  
     8    8    9 1  
     9    8   13 1  
    10    9   10 1  
    11    9   11 1  
    12    9   12 1  
    13   13   14 2  
    14   13   15 am 
    15   15   16 1  
    16   15   17 1  
    17   16   19 1  
    18   16   22 1  
    19   17   18 1  
    20   18   19 1  
    21   19   20 1  
    22   20   21 1  
    23   21   22 1  
    24   22   23 1  
    25   23   24 am 
    26   24   25 2  
    27   24   26 1  
    28   26   27 1  
    29   26   33 1  
    30   27   28 ar 
    31   27   32 ar 
    32   28   29 ar 
    33   29   30 ar 
    34   30   31 ar 
    35   31   32 ar 
    36   33   34 ar 
    37   33   38 ar 
    38   34   35 ar 
    39   35   36 ar 
    40   36   37 ar 
    41   37   38 ar 
    42    3   39 1  
    43    4   40 1  
    44    4   41 1  
    45    5   42 1  
    46    5   43 1  
    47    5   44 1  
    48    6   45 1  
    49    6   46 1  
    50    6   47 1  
    51    7   48 1  
    52    8   49 1  
    53   10   50 1  
    54   10   51 1  
    55   10   52 1  
    56   11   53 1  
    57   11   54 1  
    58   11   55 1  
    59   12   56 1  
    60   12   57 1  
    61   12   58 1  
    62   16   59 1  
    63   17   60 1  
    64   17   61 1  
    65   18   62 1  
    66   18   63 1  
    67   19   64 1  
    68   20   65 1  
    69   20   66 1  
    70   21   67 1  
    71   21   68 1  
    72   22   69 1  
    73   23   70 1  
    74   26   71 1  
    75   28   72 1  
    76   29   73 1  
    77   30   74 1  
    78   31   75 1  
    79   32   76 1  
    80   34   77 1  
    81   35   78 1  
    82   36   79 1  
    83   37   80 1  
    84   38   81 1  
@<TRIPOS>SUBSTRUCTURE
     1 419         1

