### 
### Created by X-TOOL on Mon Sep 10 21:12:59 2018
### 

@<TRIPOS>MOLECULE
3f7i_ligand
   74    77     1     0     0
SMALL
GAST_HUCK


@<TRIPOS>ATOM
      1 O25        75.6050   61.0330   15.5380 O.2       1 G13        -0.3861
      2 C24        75.8890   62.0910   16.0720 C.2       1 G13         0.2040
      3 C26        75.4480   62.3850   17.4890 C.ar      1 G13         0.0558
      4 C27        76.4370   62.7600   18.3930 C.ar      1 G13        -0.0407
      5 C28        76.1240   63.0660   19.7170 C.ar      1 G13        -0.0539
      6 C29        74.8000   62.9990   20.1410 C.ar      1 G13        -0.0485
      7 C30        73.8030   62.6310   19.2380 C.ar      1 G13        -0.0124
      8 C32        72.4830   62.5710   19.6830 C.ar      1 G13        -0.0522
      9 C31        74.1160   62.3260   17.9120 C.ar      1 G13        -0.0005
     10 C35        73.0820   61.9610   17.0380 C.ar      1 G13        -0.0519
     11 C34        71.7640   61.9030   17.4860 C.ar      1 G13        -0.0602
     12 C33        71.4620   62.2070   18.8100 C.ar      1 G13        -0.0601
     13 N23        76.5930   63.0400   15.4490 N.am      1 G13        -0.2814
     14 C20        77.3110   62.8560   14.2020 C.3       1 G13         0.0647
     15 C16        78.5740   63.7180   14.2000 C.3       1 G13         0.0707
     16 C17        78.3230   64.9030   13.2880 C.3       1 G13        -0.0137
     17 C22        77.0360   64.6260   12.5160 C.3       1 G13        -0.0458
     18 C21        76.4460   63.3210   13.0430 C.3       1 G13        -0.0275
     19 C18        79.5300   65.0110   12.3800 C.3       1 G13        -0.0275
     20 C19        80.1300   63.6170   12.3500 C.3       1 G13         0.0347
     21 N15        79.7220   63.0090   13.6160 N.am      1 G13        -0.2658
     22 C13        80.2750   61.9800   14.2710 C.2       1 G13         0.2050
     23 O14        79.8970   61.6720   15.3930 O.2       1 G13        -0.3943
     24 C8         81.3950   61.1890   13.6420 C.3       1 G13         0.1359
     25 C9         80.8600   59.9620   12.8930 C.3       1 G13         0.0026
     26 C12        79.9820   60.4060   11.7290 C.3       1 G13        -0.0558
     27 C11        80.0280   59.0690   13.8070 C.3       1 G13        -0.0558
     28 C10        82.0090   59.1490   12.3040 C.3       1 G13        -0.0558
     29 N7         82.3420   60.7950   14.6760 N.am      1 G13        -0.2605
     30 C5         83.6660   60.8280   14.5370 C.2       1 G13         0.2265
     31 O6         84.2240   61.2350   13.5300 O.2       1 G13        -0.3907
     32 C3         84.4640   60.2990   15.6980 C.3       1 G13         0.0637
     33 C4         84.5920   61.3500   16.7970 C.3       1 G13        -0.0039
     34 N2         85.7750   59.8490   15.2740 N.4       1 G13         0.2438
     35 C1         85.8940   58.6740   14.4260 C.3       1 G13        -0.0428
     36 H1         77.4679   62.8152   18.0626 H         1 G13         0.0686
     37 H2         76.9058   63.3538   20.4106 H         1 G13         0.0632
     38 H3         74.5449   63.2318   21.1685 H         1 G13         0.0673
     39 H4         72.2507   62.8092   20.7147 H         1 G13         0.0633
     40 H5         73.3099   61.7220   16.0055 H         1 G13         0.0622
     41 H6         70.9721   61.6205   16.8018 H         1 G13         0.0628
     42 H7         70.4370   62.1605   19.1595 H         1 G13         0.0619
     43 H8         76.6277   63.9446   15.8738 H         1 G13         0.1846
     44 H9         77.5748   61.7953   14.0783 H         1 G13         0.0578
     45 H10        78.8065   64.0453   15.2241 H         1 G13         0.0584
     46 H11        78.2115   65.8287   13.8717 H         1 G13         0.0324
     47 H12        77.2570   64.5299   11.4427 H         1 G13         0.0269
     48 H13        76.3224   65.4486   12.6712 H         1 G13         0.0269
     49 H14        75.4154   63.4889   13.3888 H         1 G13         0.0288
     50 H15        76.4466   62.5616   12.2472 H         1 G13         0.0288
     51 H16        80.2537   65.7340   12.7844 H         1 G13         0.0288
     52 H17        79.2263   65.3222   11.3696 H         1 G13         0.0288
     53 H18        81.2266   63.6682   12.2801 H         1 G13         0.0522
     54 H19        79.7347   63.0429   11.4990 H         1 G13         0.0522
     55 H20        81.9143   61.8337   12.9177 H         1 G13         0.0805
     56 H21        79.6026   59.5208   11.1975 H         1 G13         0.0237
     57 H22        80.5744   61.0230   11.0374 H         1 G13         0.0237
     58 H23        79.1353   60.9945   12.1120 H         1 G13         0.0237
     59 H24        80.6444   58.7370   14.6554 H         1 G13         0.0237
     60 H25        79.6777   58.1920   13.2430 H         1 G13         0.0237
     61 H26        79.1618   59.6338   14.1821 H         1 G13         0.0237
     62 H27        82.6114   59.7904   11.6439 H         1 G13         0.0237
     63 H28        81.6030   58.3062   11.7254 H         1 G13         0.0237
     64 H29        82.6410   58.7643   13.1180 H         1 G13         0.0237
     65 H30        81.9729   60.4782   15.5497 H         1 G13         0.1885
     66 H31        83.9252   59.4345   16.1131 H         1 G13         0.1096
     67 H32        85.1784   60.9382   17.6316 H         1 G13         0.0310
     68 H33        83.5904   61.6296   17.1555 H         1 G13         0.0310
     69 H34        85.0996   62.2398   16.3962 H         1 G13         0.0310
     70 H35        86.3040   59.6602   16.1110 H         1 G13         0.2032
     71 H36        86.1992   60.6145   14.7739 H         1 G13         0.2032
     72 H37        86.9555   58.4852   14.2080 H         1 G13         0.0777
     73 H38        85.3511   58.8446   13.4847 H         1 G13         0.0777
     74 H39        85.4655   57.8032   14.9438 H         1 G13         0.0777
@<TRIPOS>BOND
     1    1    2 2  
     2    2    3 1  
     3    2   13 am 
     4    3    4 ar 
     5    3    9 ar 
     6    4    5 ar 
     7    5    6 ar 
     8    6    7 ar 
     9    7    8 ar 
    10    7    9 ar 
    11    8   12 ar 
    12    9   10 ar 
    13   10   11 ar 
    14   11   12 ar 
    15   13   14 1  
    16   14   15 1  
    17   14   18 1  
    18   15   16 1  
    19   15   21 1  
    20   16   17 1  
    21   16   19 1  
    22   17   18 1  
    23   19   20 1  
    24   20   21 1  
    25   21   22 am 
    26   22   23 2  
    27   22   24 1  
    28   24   25 1  
    29   24   29 1  
    30   25   26 1  
    31   25   27 1  
    32   25   28 1  
    33   29   30 am 
    34   30   31 2  
    35   30   32 1  
    36   32   33 1  
    37   32   34 1  
    38   34   35 1  
    39    4   36 1  
    40    5   37 1  
    41    6   38 1  
    42    8   39 1  
    43   10   40 1  
    44   11   41 1  
    45   12   42 1  
    46   13   43 1  
    47   14   44 1  
    48   15   45 1  
    49   16   46 1  
    50   17   47 1  
    51   17   48 1  
    52   18   49 1  
    53   18   50 1  
    54   19   51 1  
    55   19   52 1  
    56   20   53 1  
    57   20   54 1  
    58   24   55 1  
    59   26   56 1  
    60   26   57 1  
    61   26   58 1  
    62   27   59 1  
    63   27   60 1  
    64   27   61 1  
    65   28   62 1  
    66   28   63 1  
    67   28   64 1  
    68   29   65 1  
    69   32   66 1  
    70   33   67 1  
    71   33   68 1  
    72   33   69 1  
    73   34   70 1  
    74   34   71 1  
    75   35   72 1  
    76   35   73 1  
    77   35   74 1  
@<TRIPOS>SUBSTRUCTURE
     1 G13         1

