### 
### Created by X-TOOL on Mon Sep 10 21:13:01 2018
### 

@<TRIPOS>MOLECULE
3f7u_ligand
   44    45     1     0     0
SMALL
GAST_HUCK


@<TRIPOS>ATOM
      1 O14        36.4570   39.7950   94.6250 O.2       1 AG4        -0.3854
      2 C1         37.0260   40.5750   93.8710 C.2       1 AG4         0.2091
      3 N15        38.3150   40.4370   93.5540 N.am      1 AG4        -0.2861
      4 C16        38.8790   39.1270   93.8380 C.3       1 AG4         0.0324
      5 C17        39.4370   38.9980   95.2290 C.3       1 AG4        -0.0093
      6 C19        39.9760   40.3220   95.7360 C.3       1 AG4         0.0491
      7 O18        39.3510   40.5500   96.9960 O.3       1 AG4        -0.3829
      8 C20        39.5150   41.9440   97.2670 C.3       1 AG4         0.0364
      9 C6         36.2020   41.7340   93.4360 C.ar      1 AG4         0.0936
     10 C7         36.6610   42.9980   93.7360 C.ar      1 AG4        -0.0013
     11 C5         35.0020   41.4590   92.7720 C.ar      1 AG4         0.1220
     12 N4         34.2550   42.5210   92.4480 N.ar      1 AG4        -0.2761
     13 C3         34.6520   43.7910   92.7470 C.ar      1 AG4         0.0350
     14 C2         35.8390   44.0670   93.3960 C.ar      1 AG4         0.1338
     15 S8         36.2230   45.6180   93.7180 S.o2      1 AG4         0.0698
     16 O12        35.0320   46.2110   94.4520 O.2       1 AG4        -0.1502
     17 O11        36.4730   46.3380   92.3680 O.2       1 AG4        -0.1502
     18 N9         37.6400   45.6710   94.4910 N.am      1 AG4        -0.2607
     19 S10        34.5360   39.8230   92.3990 S.3       1 AG4        -0.0177
     20 C13        33.0230   39.9510   91.6460 C.ar      1 AG4         0.0342
     21 C21        32.9270   40.4600   90.3450 C.ar      1 AG4        -0.0470
     22 C22        31.6640   40.5360   89.7370 C.ar      1 AG4        -0.0672
     23 C23        30.5280   40.1100   90.4250 C.ar      1 AG4        -0.0683
     24 C24        30.6130   39.5820   91.7260 C.ar      1 AG4        -0.0672
     25 C25        31.8680   39.5090   92.3320 C.ar      1 AG4        -0.0470
     26 H1         38.8523   41.1782   93.1517 H         1 AG4         0.1844
     27 H2         39.6893   38.9345   93.1195 H         1 AG4         0.0520
     28 H3         38.0883   38.3731   93.7097 H         1 AG4         0.0520
     29 H4         40.2525   38.2599   95.2201 H         1 AG4         0.0307
     30 H5         38.6391   38.6548   95.9040 H         1 AG4         0.0307
     31 H6         39.7240   41.1302   95.0337 H         1 AG4         0.0560
     32 H7         41.0680   40.2680   95.8564 H         1 AG4         0.0560
     33 H8         39.0503   42.1866   98.2341 H         1 AG4         0.0523
     34 H9         39.0336   42.5314   96.4713 H         1 AG4         0.0523
     35 H10        40.5872   42.1866   97.3043 H         1 AG4         0.0523
     36 H11        37.6206   43.1524   94.2159 H         1 AG4         0.0789
     37 H12        34.0098   44.6170   92.4637 H         1 AG4         0.0857
     38 H13        38.0271   46.5512   94.7656 H         1 AG4         0.1635
     39 H14        38.1303   44.8236   94.6950 H         1 AG4         0.1635
     40 H15        33.8137   40.7900   89.8159 H         1 AG4         0.0571
     41 H16        31.5714   40.9268   88.7301 H         1 AG4         0.0601
     42 H17        29.5583   40.1875   89.9466 H         1 AG4         0.0562
     43 H18        29.7251   39.2400   92.2454 H         1 AG4         0.0601
     44 H19        31.9582   39.1105   93.3361 H         1 AG4         0.0571
@<TRIPOS>BOND
     1    1    2 2  
     2    2    3 am 
     3    2    9 1  
     4    3    4 1  
     5    4    5 1  
     6    5    6 1  
     7    6    7 1  
     8    7    8 1  
     9    9   10 ar 
    10    9   11 ar 
    11   10   14 ar 
    12   11   12 ar 
    13   11   19 1  
    14   12   13 ar 
    15   13   14 ar 
    16   14   15 1  
    17   15   16 2  
    18   15   17 2  
    19   15   18 am 
    20   19   20 1  
    21   20   21 ar 
    22   20   25 ar 
    23   21   22 ar 
    24   22   23 ar 
    25   23   24 ar 
    26   24   25 ar 
    27    3   26 1  
    28    4   27 1  
    29    4   28 1  
    30    5   29 1  
    31    5   30 1  
    32    6   31 1  
    33    6   32 1  
    34    8   33 1  
    35    8   34 1  
    36    8   35 1  
    37   10   36 1  
    38   13   37 1  
    39   18   38 1  
    40   18   39 1  
    41   21   40 1  
    42   22   41 1  
    43   23   42 1  
    44   24   43 1  
    45   25   44 1  
@<TRIPOS>SUBSTRUCTURE
     1 AG4         1

