### 
### Created by X-TOOL on Mon Sep 10 21:13:01 2018
### 

@<TRIPOS>MOLECULE
3f7z_ligand
   38    41     1     0     0
SMALL
GAST_HUCK


@<TRIPOS>ATOM
      1 C8          0.8710   14.1970   13.5740 C.3       1 34O         0.1881
      2 C10         1.2530   11.8460   19.0440 C.2       1 34O         0.2078
      3 C6          2.0890   12.9410   15.0170 C.ar      1 34O         0.1282
      4 C5          0.8570   13.3610   15.6750 C.ar      1 34O         0.1276
      5 C4          0.5900   13.0130   16.9870 C.ar      1 34O        -0.0248
      6 C1          3.0240   12.1650   15.6740 C.ar      1 34O        -0.0357
      7 C2          2.7310   11.8250   16.9970 C.ar      1 34O        -0.0641
      8 C3          1.5560   12.2390   17.6350 C.ar      1 34O         0.0226
      9 F25        -3.0120   15.5030   18.2270 F         1 34O        -0.1918
     10 C19        -3.0230   14.1680   18.4390 C.ar      1 34O         0.1533
     11 C20        -3.2570   13.1820   17.3250 C.ar      1 34O         0.1171
     12 O23        -3.4750   13.5640   16.0130 O.3       1 34O        -0.3255
     13 C24        -2.7210   14.5880   15.3600 C.3       1 34O         0.0570
     14 C21        -3.2670   11.8190   17.6350 C.ar      1 34O        -0.0411
     15 C22        -3.0540   11.3970   18.9450 C.ar      1 34O        -0.0718
     16 C18        -2.8210   13.6820   19.7330 C.ar      1 34O        -0.0341
     17 C17        -2.8260   12.3060   19.9890 C.ar      1 34O        -0.0426
     18 C16        -2.5990   11.7760   21.4060 C.3       1 34O         0.0443
     19 S15        -0.9650   11.9620   22.0990 S.3       1 34O        -0.0144
     20 C12         0.1820   11.7070   20.9450 C.2       1 34O         0.2627
     21 N13         1.2140   10.9730   21.0430 N.2       1 34O        -0.2413
     22 N14         1.9000   11.0580   19.8050 N.2       1 34O        -0.2521
     23 O11         0.0690   12.3660   19.6720 O.3       1 34O        -0.1818
     24 O7          2.0780   13.4290   13.7540 O.3       1 34O        -0.2875
     25 O9          0.1290   14.0990   14.8040 O.3       1 34O        -0.2899
     26 H1          0.2808   13.7857   12.7419 H         1 34O         0.0976
     27 H2          1.1185   15.2479   13.3637 H         1 34O         0.0976
     28 H3         -0.3206   13.3244   17.4860 H         1 34O         0.0537
     29 H4          3.9364   11.8373   15.1889 H         1 34O         0.0524
     30 H5          3.4394   11.2185   17.5495 H         1 34O         0.0537
     31 H6         -3.0811   14.7064   14.3274 H         1 34O         0.0573
     32 H7         -1.6572   14.3086   15.3476 H         1 34O         0.0573
     33 H8         -2.8446   15.5369   15.9025 H         1 34O         0.0573
     34 H9         -3.4411   11.0883   16.8534 H         1 34O         0.0514
     35 H10        -3.0647   10.3355   19.1643 H         1 34O         0.0496
     36 H11        -2.6586   14.3782   20.5478 H         1 34O         0.0515
     37 H12        -2.8339   10.7014   21.3982 H         1 34O         0.0551
     38 H13        -3.3012   12.3001   22.0710 H         1 34O         0.0551
@<TRIPOS>BOND
     1   24    1 1  
     2   25    1 1  
     3    2    8 1  
     4    2   22 2  
     5   23    2 1  
     6    4    3 ar 
     7    6    3 ar 
     8    3   24 1  
     9    5    4 ar 
    10    4   25 1  
    11    8    5 ar 
    12    7    6 ar 
    13    8    7 ar 
    14   10    9 1  
    15   10   11 ar 
    16   16   10 ar 
    17   11   12 1  
    18   14   11 ar 
    19   12   13 1  
    20   15   14 ar 
    21   17   15 ar 
    22   17   16 ar 
    23   18   17 1  
    24   19   18 1  
    25   20   19 1  
    26   20   21 2  
    27   20   23 1  
    28   21   22 1  
    29    1   26 1  
    30    1   27 1  
    31    5   28 1  
    32    6   29 1  
    33    7   30 1  
    34   13   31 1  
    35   13   32 1  
    36   13   33 1  
    37   14   34 1  
    38   15   35 1  
    39   16   36 1  
    40   18   37 1  
    41   18   38 1  
@<TRIPOS>SUBSTRUCTURE
     1 34O         1

