### 
### Created by X-TOOL on Mon Sep 10 21:12:57 2018
### 

@<TRIPOS>MOLECULE
3f80_ligand
   24    23     1     0     0
SMALL
GAST_HUCK


@<TRIPOS>ATOM
      1 N1         26.1020  -12.9610    6.5950 N.2       1 6HN         0.2909
      2 N          21.7280  -17.3940    5.5470 N.4       1 6HN         0.2327
      3 CA         21.6480  -17.0990    7.0030 C.3       1 6HN         0.0283
      4 C          20.5210  -16.0830    7.2700 C.2       1 6HN         0.0844
      5 OXT        19.8270  -15.6440    6.3050 O.co2     1 6HN        -0.5643
      6 O          20.2880  -15.6890    8.4520 O.co2     1 6HN        -0.5643
      7 CB         23.0210  -16.5850    7.4930 C.3       1 6HN         0.0025
      8 CG         23.2810  -15.1350    7.0830 C.3       1 6HN        -0.0441
      9 CD         24.6350  -14.6870    7.5960 C.3       1 6HN        -0.0202
     10 CE         24.8150  -13.2340    7.1880 C.3       1 6HN         0.1665
     11 O2         26.6880  -11.8060    6.8480 O.2       1 6HN         0.1861
     12 O1         26.6750  -13.8180    5.7770 O.2       1 6HN         0.1861
     13 H1         22.4668  -18.0589    5.3790 H         1 6HN         0.2010
     14 H2         21.9205  -16.5432    5.0418 H         1 6HN         0.2010
     15 H3         20.8511  -17.7798    5.2336 H         1 6HN         0.2010
     16 H4         21.4112  -18.0280    7.5424 H         1 6HN         0.1024
     17 H5         23.8097  -17.2203    7.0637 H         1 6HN         0.0339
     18 H6         23.0524  -16.6528    8.5905 H         1 6HN         0.0339
     19 H7         22.4984  -14.4899    7.5088 H         1 6HN         0.0269
     20 H8         23.2632  -15.0577    5.9859 H         1 6HN         0.0269
     21 H9         25.4293  -15.3041    7.1507 H         1 6HN         0.0290
     22 H10        24.6712  -14.7775    8.6917 H         1 6HN         0.0290
     23 H11        24.0331  -12.9773    6.4581 H         1 6HN         0.0652
     24 H12        24.7025  -12.6040    8.0827 H         1 6HN         0.0652
@<TRIPOS>BOND
     1   10    1 1  
     2    1   11 2  
     3    1   12 2  
     4    3    2 1  
     5    3    4 1  
     6    7    3 1  
     7    4    5 ar 
     8    4    6 ar 
     9    8    7 1  
    10    9    8 1  
    11    9   10 1  
    12    2   13 1  
    13    2   14 1  
    14    2   15 1  
    15    3   16 1  
    16    7   17 1  
    17    7   18 1  
    18    8   19 1  
    19    8   20 1  
    20    9   21 1  
    21    9   22 1  
    22   10   23 1  
    23   10   24 1  
@<TRIPOS>SUBSTRUCTURE
     1 6HN         1

