### 
### Created by X-TOOL on Mon Sep 10 21:13:00 2018
### 

@<TRIPOS>MOLECULE
3f81_ligand
   20    20     1     0     0
SMALL
GAST_HUCK


@<TRIPOS>ATOM
      1 OAD         1.7190   -0.9980   -4.6530 O.co2     1 STT        -0.4845
      2 SBN         0.5690   -0.6100   -3.9420 S.o2      1 STT        -0.1891
      3 OAB        -0.1220   -1.6290   -3.1760 O.co2     1 STT        -0.4845
      4 OAC         0.4250    0.7820   -3.5620 O.co2     1 STT        -0.4845
      5 CAX        -0.5950   -0.6020   -5.3270 C.3       1 STT         0.0573
      6 CAV        -0.2550    0.4600   -6.3670 C.3       1 STT         0.0799
      7 NBM        -1.2260    0.4550   -7.4800 N.am      1 STT        -0.1830
      8 CBI        -1.8920   -0.6470   -7.9760 C.2       1 STT         0.2579
      9 OAA        -1.8140   -1.8250   -7.5730 O.2       1 STT        -0.3668
     10 CBJ        -1.4980    1.6110   -8.1160 C.2       1 STT         0.1627
     11 SAE        -0.8670    3.1870   -7.7610 S.2       1 STT        -0.2516
     12 SBA        -2.6010    1.3240   -9.3340 S.3       1 STT         0.0248
     13 CBK        -2.7410   -0.3450   -9.0500 C.2       1 STT         0.1143
     14 CAG        -3.5350   -1.2680   -9.7500 C.2       1 STT        -0.0732
     15 H1         -1.6050   -0.4049   -4.9383 H         1 STT         0.0494
     16 H2         -0.5746   -1.5895   -5.8111 H         1 STT         0.0494
     17 H3          0.7496    0.2598   -6.7677 H         1 STT         0.0616
     18 H4         -0.2674    1.4491   -5.8858 H         1 STT         0.0616
     19 H5         -4.1633   -0.9315  -10.5734 H         1 STT         0.0491
     20 H6         -3.5224   -2.3202   -9.4694 H         1 STT         0.0491
@<TRIPOS>BOND
     1    1    2 ar 
     2    2    3 ar 
     3    2    4 ar 
     4    2    5 1  
     5    5    6 1  
     6    6    7 1  
     7    7    8 am 
     8    7   10 am 
     9    8    9 2  
    10    8   13 1  
    11   10   11 2  
    12   10   12 1  
    13   12   13 1  
    14   13   14 2  
    15    5   15 1  
    16    5   16 1  
    17    6   17 1  
    18    6   18 1  
    19   14   19 1  
    20   14   20 1  
@<TRIPOS>SUBSTRUCTURE
     1 STT         1

