### 
### Created by X-TOOL on Mon Sep 10 21:13:00 2018
### 

@<TRIPOS>MOLECULE
3f82_ligand
   55    58     1     0     0
SMALL
GAST_HUCK


@<TRIPOS>ATOM
      1 C1          0.9630    0.3810   55.7010 C.ar      1 353        -0.0288
      2 C2         -1.0700    1.5630   56.3390 C.ar      1 353        -0.0288
      3 C3          1.6820    7.6980   57.4590 C.ar      1 353        -0.0519
      4 C4          1.8430    8.8920   58.1500 C.ar      1 353        -0.0418
      5 C5          0.7250   -0.5460   56.7070 C.ar      1 353        -0.0351
      6 C6         -1.3010    0.6360   57.3420 C.ar      1 353        -0.0351
      7 C7         -0.5190   11.2300   58.6730 C.ar      1 353        -0.0151
      8 C8          1.2630    8.9120   55.4060 C.ar      1 353        -0.0145
      9 C9         -1.5180   11.7120   59.5010 C.ar      1 353        -0.0138
     10 C10         0.0590    1.4340   55.5160 C.ar      1 353         0.1079
     11 C11         1.3910    7.7030   56.0860 C.ar      1 353         0.0529
     12 C12         1.7140   10.0950   57.4660 C.ar      1 353         0.1378
     13 C13         0.7780   11.6870   58.8890 C.ar      1 353         0.1339
     14 C14        -0.4030   -0.4060   57.5130 C.ar      1 353         0.1218
     15 C15         1.4220   10.1030   56.1030 C.ar      1 353         0.1530
     16 C16         1.0130   12.5990   59.9220 C.ar      1 353         0.1133
     17 C17        -0.0540   13.0370   60.7140 C.ar      1 353         0.1113
     18 C18         0.4350    2.9520   52.2100 C.2       1 353         0.0070
     19 C19         0.2210    2.0480   53.1670 C.2       1 353         0.0904
     20 C20         0.8070    4.7300   53.8410 C.2       1 353         0.1233
     21 C21         0.7330    4.3200   52.5600 C.2       1 353         0.1037
     22 C22         0.5680    3.7000   54.9220 C.2       1 353         0.2256
     23 C23         1.1230    6.1820   54.1300 C.2       1 353         0.1960
     24 C24         1.2330    5.5230   49.1740 C.3       1 353        -0.0361
     25 C25         1.0480    4.4660   50.2410 C.3       1 353         0.0731
     26 N26        -1.3170   12.5960   60.5050 N.ar      1 353        -0.3002
     27 N27         0.2830    2.3940   54.4990 N.am      1 353        -0.1629
     28 N28         0.1730   13.9550   61.7530 N.pl3     1 353        -0.3243
     29 N29         1.2450    6.4480   55.4780 N.am      1 353        -0.2490
     30 O30         0.6240    4.0170   56.1060 O.2       1 353        -0.4157
     31 O31         1.2500    7.0050   53.2320 O.2       1 353        -0.4061
     32 O32         1.8640   11.2810   58.1330 O.3       1 353        -0.2602
     33 O33         0.9290    5.1590   51.4870 O.3       1 353        -0.3088
     34 F34        -0.6300   -1.2990   58.4810 F         1 353        -0.1916
     35 F35         1.2960   11.2590   55.4380 F         1 353        -0.1924
     36 CL36        2.6150   13.1760   60.2110 Cl        1 353        -0.0805
     37 H1          1.8376    0.2906   55.0669 H         1 353         0.0552
     38 H2         -1.7597    2.3860   56.1903 H         1 353         0.0552
     39 H3          1.7819    6.7550   57.9842 H         1 353         0.0447
     40 H4          2.0667    8.8857   59.2107 H         1 353         0.0509
     41 H5          1.4104   -1.3710   56.8639 H         1 353         0.0580
     42 H6         -2.1705    0.7241   57.9833 H         1 353         0.0580
     43 H7         -0.7391   10.5208   57.8833 H         1 353         0.0537
     44 H8          1.0418    8.9233   54.3449 H         1 353         0.0465
     45 H9         -2.5287   11.3575   59.3338 H         1 353         0.0749
     46 H10         0.3848    2.6574   51.1628 H         1 353         0.0405
     47 H11        -0.0065    1.0194   52.8909 H         1 353         0.1299
     48 H12         1.3300    5.0387   48.1911 H         1 353         0.0256
     49 H13         2.1420    6.1045   49.3875 H         1 353         0.0256
     50 H14         0.3615    6.1941   49.1676 H         1 353         0.0256
     51 H15         1.9175    3.7926   50.2629 H         1 353         0.0623
     52 H16         0.1370    3.8822   50.0430 H         1 353         0.0623
     53 H17        -0.6125   14.2775   62.3361 H         1 353         0.1765
     54 H18         1.1249   14.3056   61.9317 H         1 353         0.1765
     55 H19         1.2273    5.6574   56.0901 H         1 353         0.2198
@<TRIPOS>BOND
     1    1    5 ar 
     2   10    1 ar 
     3    2    6 ar 
     4   10    2 ar 
     5    3    4 ar 
     6   11    3 ar 
     7    4   12 ar 
     8    5   14 ar 
     9    6   14 ar 
    10    7    9 ar 
    11   13    7 ar 
    12   11    8 ar 
    13    8   15 ar 
    14    9   26 ar 
    15   27   10 1  
    16   29   11 1  
    17   15   12 ar 
    18   12   32 1  
    19   13   16 ar 
    20   32   13 1  
    21   14   34 1  
    22   15   35 1  
    23   16   17 ar 
    24   16   36 1  
    25   17   26 ar 
    26   17   28 1  
    27   18   19 2  
    28   21   18 1  
    29   19   27 1  
    30   21   20 2  
    31   20   22 1  
    32   20   23 1  
    33   33   21 1  
    34   22   27 am 
    35   22   30 2  
    36   23   29 am 
    37   23   31 2  
    38   25   24 1  
    39   25   33 1  
    40    1   37 1  
    41    2   38 1  
    42    3   39 1  
    43    4   40 1  
    44    5   41 1  
    45    6   42 1  
    46    7   43 1  
    47    8   44 1  
    48    9   45 1  
    49   18   46 1  
    50   19   47 1  
    51   24   48 1  
    52   24   49 1  
    53   24   50 1  
    54   25   51 1  
    55   25   52 1  
    56   28   53 1  
    57   28   54 1  
    58   29   55 1  
@<TRIPOS>SUBSTRUCTURE
     1 353         1

