### 
### Created by X-TOOL on Mon Sep 10 21:13:01 2018
### 

@<TRIPOS>MOLECULE
3f88_ligand
   35    38     1     0     0
SMALL
GAST_HUCK


@<TRIPOS>ATOM
      1 C4          4.1670  -14.3600   32.5100 C.ar      1 3HT        -0.0379
      2 C5          4.1380  -13.9590   33.8450 C.ar      1 3HT        -0.0371
      3 C6          5.0490  -14.3420   34.8370 C.ar      1 3HT         0.0858
      4 C7          6.0660  -15.1780   34.3760 C.ar      1 3HT        -0.0371
      5 C8          6.1360  -15.6100   33.0360 C.ar      1 3HT        -0.0379
      6 C10         3.6740  -14.0180   36.6710 C.2       1 3HT         0.1192
      7 C13         5.5120  -12.0330   38.9920 C.ar      1 3HT        -0.0599
      8 C15         7.5190  -11.8660   37.6910 C.ar      1 3HT         0.0196
      9 C17         5.6800  -13.0980   36.8050 C.ar      1 3HT         0.1002
     10 C21        10.9250  -11.2970   36.9610 C.2       1 3HT         0.2528
     11 S22        12.4110  -11.7090   36.1890 S.2       1 3HT        -0.2855
     12 N20        10.7810  -10.2230   37.7490 N.am      1 3HT        -0.1639
     13 N19         9.4310  -10.2900   38.1300 N.2       1 3HT        -0.1570
     14 O32         9.8300  -12.0640   36.8050 O.3       1 3HT        -0.1917
     15 C18         8.8940  -11.3910   37.5420 C.2       1 3HT         0.2171
     16 C14         6.8120  -11.5690   38.8550 C.ar      1 3HT        -0.0639
     17 C16         6.9810  -12.6260   36.6690 C.ar      1 3HT        -0.0252
     18 C12         4.9520  -12.8070   37.9670 C.ar      1 3HT         0.0367
     19 N11         3.7340  -13.3880   37.8590 N.2       1 3HT        -0.3033
     20 N9          4.8580  -13.8620   36.0830 N.pl3     1 3HT        -0.1990
     21 C3          5.1840  -15.2040   32.0890 C.ar      1 3HT         0.0830
     22 O2          5.2100  -15.5810   30.7640 O.3       1 3HT        -0.3262
     23 C1          5.9440  -16.7150   30.2970 C.3       1 3HT         0.0577
     24 H1          3.4091  -14.0186   31.8142 H         1 3HT         0.0525
     25 H2          3.3380  -13.2904   34.1418 H         1 3HT         0.0548
     26 H3          6.8289  -15.5069   35.0723 H         1 3HT         0.0548
     27 H4          6.9412  -16.2688   32.7314 H         1 3HT         0.0525
     28 H5          2.8172  -14.5549   36.2666 H         1 3HT         0.1362
     29 H6          4.9367  -11.7998   39.8806 H         1 3HT         0.0559
     30 H7         11.4667   -9.5410   38.0034 H         1 3HT         0.2654
     31 H8          7.2720  -10.9832   39.6426 H         1 3HT         0.0532
     32 H9          7.5609  -12.8492   35.7807 H         1 3HT         0.0557
     33 H10         5.8130  -16.8140   29.2093 H         1 3HT         0.0574
     34 H11         5.5726  -17.6227   30.7951 H         1 3HT         0.0574
     35 H12         7.0113  -16.5811   30.5270 H         1 3HT         0.0574
@<TRIPOS>BOND
     1    2    1 ar 
     2    1   21 ar 
     3    3    2 ar 
     4    3    4 ar 
     5   20    3 1  
     6    4    5 ar 
     7    5   21 ar 
     8    6   19 2  
     9   20    6 1  
    10   16    7 ar 
    11    7   18 ar 
    12   15    8 1  
    13    8   16 ar 
    14    8   17 ar 
    15   17    9 ar 
    16    9   18 ar 
    17    9   20 1  
    18   10   11 2  
    19   12   10 am 
    20   10   14 1  
    21   13   12 1  
    22   13   15 2  
    23   14   15 1  
    24   18   19 1  
    25   21   22 1  
    26   22   23 1  
    27    1   24 1  
    28    2   25 1  
    29    4   26 1  
    30    5   27 1  
    31    6   28 1  
    32    7   29 1  
    33   12   30 1  
    34   16   31 1  
    35   17   32 1  
    36   23   33 1  
    37   23   34 1  
    38   23   35 1  
@<TRIPOS>SUBSTRUCTURE
     1 3HT         1

