### 
### Created by X-TOOL on Mon Sep 10 21:12:58 2018
### 

@<TRIPOS>MOLECULE
3f8c_ligand
   63    68     1     0     0
SMALL
GAST_HUCK


@<TRIPOS>ATOM
      1 C1          0.4840   -5.5480    6.5570 C.ar      1 HT1         0.0977
      2 O1          0.7220   -6.3420    7.6430 O.3       1 HT1        -0.3140
      3 C2         -0.4650   -5.9340    5.6170 C.ar      1 HT1        -0.0262
      4 C3         -0.7220   -5.1370    4.5030 C.ar      1 HT1        -0.0513
      5 C4         -0.0260   -3.9470    4.3270 C.ar      1 HT1         0.0248
      6 C5          0.9300   -3.5470    5.2760 C.ar      1 HT1        -0.0513
      7 C6          1.1830   -4.3500    6.3930 C.ar      1 HT1        -0.0262
      8 C7         -0.3020   -3.1560    3.2080 C.2       1 HT1         0.1345
      9 N1         -1.2750   -3.3980    2.3060 N.2       1 HT1        -0.3081
     10 C8         -1.2430   -2.4460    1.3790 C.ar      1 HT1         0.0356
     11 C9         -0.2010   -1.5710    1.7390 C.ar      1 HT1         0.0853
     12 N2          0.3470   -2.0340    2.8620 N.pl3     1 HT1        -0.2486
     13 C10         0.0830   -0.4560    0.9600 C.ar      1 HT1        -0.0348
     14 C11        -0.6730   -0.2160   -0.1790 C.ar      1 HT1        -0.0575
     15 C12        -1.7200   -1.0750   -0.5440 C.ar      1 HT1         0.0179
     16 C13        -2.0160   -2.2180    0.2240 C.ar      1 HT1        -0.0438
     17 C14        -2.4340   -0.7910   -1.7120 C.2       1 HT1         0.1286
     18 N3         -3.3220   -1.5990   -2.3110 N.pl3     1 HT1        -0.2556
     19 C15        -3.7740   -0.9840   -3.4100 C.ar      1 HT1         0.0691
     20 C16        -3.1170    0.2450   -3.4950 C.ar      1 HT1         0.0202
     21 N4         -2.3010    0.3310   -2.4470 N.2       1 HT1        -0.3162
     22 C17        -3.3780    1.1110   -4.5570 C.ar      1 HT1        -0.0689
     23 C18        -4.3080    0.7500   -5.5410 C.ar      1 HT1        -0.0554
     24 C19        -4.9830   -0.4710   -5.4610 C.ar      1 HT1         0.0285
     25 C20        -4.7050   -1.3500   -4.3940 C.ar      1 HT1        -0.0239
     26 N5         -5.8540   -0.8280   -6.4380 N.pl3     1 HT1        -0.3029
     27 C21        -6.9910    0.0960   -6.6140 C.3       1 HT1         0.0660
     28 C22        -7.8240   -0.3520   -7.8430 C.3       1 HT1        -0.0121
     29 N6         -8.2720   -1.7610   -7.6920 N.4       1 HT1         0.2358
     30 C23        -7.1160   -2.6500   -7.4690 C.3       1 HT1        -0.0121
     31 C24        -6.3590   -2.1870   -6.2140 C.3       1 HT1         0.0660
     32 C25        -8.9830   -2.2170   -8.8960 C.3       1 HT1        -0.0430
     33 C26         0.0120   -7.5840    7.5280 C.3       1 HT1         0.0692
     34 C27        -0.1730   -8.1910    8.9250 C.3       1 HT1        -0.0369
     35 H1         -1.0091   -6.8619    5.7516 H         1 HT1         0.0561
     36 H2         -1.4637   -5.4448    3.7748 H         1 HT1         0.0642
     37 H3          1.4709   -2.6171    5.1426 H         1 HT1         0.0642
     38 H4          1.9184   -4.0438    7.1282 H         1 HT1         0.0561
     39 H5          1.1312   -1.6057    3.3744 H         1 HT1         0.2311
     40 H6          0.8850    0.2180    1.2384 H         1 HT1         0.0558
     41 H7         -0.4511    0.6477   -0.7953 H         1 HT1         0.0582
     42 H8         -2.8101   -2.8976   -0.0635 H         1 HT1         0.0598
     43 H9         -3.6068   -2.5324   -1.9814 H         1 HT1         0.2281
     44 H10        -2.8620    2.0621   -4.6210 H         1 HT1         0.0533
     45 H11        -4.5049    1.4216   -6.3688 H         1 HT1         0.0451
     46 H12        -5.2099   -2.3073   -4.3340 H         1 HT1         0.0421
     47 H13        -6.6144    1.1166   -6.7767 H         1 HT1         0.0565
     48 H14        -7.6233    0.0775   -5.7141 H         1 HT1         0.0565
     49 H15        -7.2057   -0.2654   -8.7487 H         1 HT1         0.0834
     50 H16        -8.7059    0.2986   -7.9374 H         1 HT1         0.0834
     51 H17        -8.8928   -1.8196   -6.9000 H         1 HT1         0.2032
     52 H18        -6.4455   -2.6076   -8.3400 H         1 HT1         0.0834
     53 H19        -7.4676   -3.6825   -7.3268 H         1 HT1         0.0834
     54 H20        -7.0398   -2.1902   -5.3500 H         1 HT1         0.0565
     55 H21        -5.5163   -2.8667   -6.0194 H         1 HT1         0.0565
     56 H22        -9.8499   -1.5650   -9.0789 H         1 HT1         0.0778
     57 H23        -9.3268   -3.2515   -8.7491 H         1 HT1         0.0778
     58 H24        -8.3042   -2.1754   -9.7605 H         1 HT1         0.0778
     59 H25         0.5864   -8.2791    6.8981 H         1 HT1         0.0614
     60 H26        -0.9726   -7.4040    7.0719 H         1 HT1         0.0614
     61 H27        -0.7169   -9.1435    8.8418 H         1 HT1         0.0256
     62 H28        -0.7469   -7.4948    9.5542 H         1 HT1         0.0256
     63 H29         0.8121   -8.3700    9.3805 H         1 HT1         0.0256
@<TRIPOS>BOND
     1    1    2 1  
     2    1    3 ar 
     3    1    7 ar 
     4    2   33 1  
     5    3    4 ar 
     6    4    5 ar 
     7    5    6 ar 
     8    5    8 1  
     9    6    7 ar 
    10    8    9 2  
    11    8   12 1  
    12    9   10 1  
    13   10   11 ar 
    14   10   16 ar 
    15   11   12 1  
    16   11   13 ar 
    17   13   14 ar 
    18   14   15 ar 
    19   15   16 ar 
    20   15   17 1  
    21   17   18 1  
    22   17   21 2  
    23   18   19 1  
    24   19   20 ar 
    25   19   25 ar 
    26   20   21 1  
    27   20   22 ar 
    28   22   23 ar 
    29   23   24 ar 
    30   24   25 ar 
    31   24   26 1  
    32   26   27 1  
    33   26   31 1  
    34   27   28 1  
    35   28   29 1  
    36   29   30 1  
    37   29   32 1  
    38   30   31 1  
    39   33   34 1  
    40    3   35 1  
    41    4   36 1  
    42    6   37 1  
    43    7   38 1  
    44   12   39 1  
    45   13   40 1  
    46   14   41 1  
    47   16   42 1  
    48   18   43 1  
    49   22   44 1  
    50   23   45 1  
    51   25   46 1  
    52   27   47 1  
    53   27   48 1  
    54   28   49 1  
    55   28   50 1  
    56   29   51 1  
    57   30   52 1  
    58   30   53 1  
    59   31   54 1  
    60   31   55 1  
    61   32   56 1  
    62   32   57 1  
    63   32   58 1  
    64   33   59 1  
    65   33   60 1  
    66   34   61 1  
    67   34   62 1  
    68   34   63 1  
@<TRIPOS>SUBSTRUCTURE
     1 HT1         1

