### 
### Created by X-TOOL on Mon Sep 10 21:13:01 2018
### 

@<TRIPOS>MOLECULE
3f8e_ligand
   41    41     1     0     0
SMALL
GAST_HUCK


@<TRIPOS>ATOM
      1 CAA        -2.6550    3.5030   10.9140 C.3       1 TE1        -0.0625
      2 CAF        -4.1430    3.4800   10.3940 C.3       1 TE1        -0.0430
      3 CAE        -4.6420    2.0210   10.4280 C.3       1 TE1        -0.0625
      4 CAG        -5.0700    4.4540   11.1960 C.3       1 TE1        -0.0177
      5 CAH        -6.2140    5.2550   10.3980 C.3       1 TE1         0.0813
      6 OAB        -5.9780    5.2100    9.0840 O.3       1 TE1        -0.3830
      7 CAI        -6.3380    6.7720   10.5380 C.ar      1 TE1        -0.0027
      8 CAO        -6.1350    7.4850    9.3790 C.ar      1 TE1        -0.0724
      9 CAJ        -6.6340    7.4680   11.7070 C.ar      1 TE1         0.0796
     10 OAC        -6.8020    6.8200   12.8680 O.3       1 TE1        -0.3319
     11 CAD        -7.5360    7.3980   13.8050 C.3       1 TE1         0.0561
     12 CAK        -6.7060    8.8200   11.6420 C.ar      1 TE1        -0.0175
     13 CAQ        -6.4820    9.4830   10.4670 C.ar      1 TE1         0.0741
     14 OAR        -6.5190   10.8060   10.4090 O.3       1 TE1        -0.3439
     15 CAP        -6.1860    8.8520    9.3200 C.ar      1 TE1        -0.0295
     16 CAT        -6.0060    9.5860    8.1240 C.3       1 TE1        -0.0160
     17 CAS        -5.5020    9.1520    6.8550 C.3       1 TE1         0.0068
     18 CAN        -5.2610    7.9100    6.2090 C.2       1 TE1         0.0363
     19 OAL        -5.1410    6.8110    6.7520 O.co2     1 TE1        -0.5689
     20 OAM        -4.9770    7.9510    5.0480 O.co2     1 TE1        -0.5689
     21 H1         -2.0480    2.8043   10.3195 H         1 TE1         0.0232
     22 H2         -2.6314    3.2009   11.9714 H         1 TE1         0.0232
     23 H3         -2.2472    4.5197   10.8139 H         1 TE1         0.0232
     24 H4         -4.1447    3.8167    9.3468 H         1 TE1         0.0298
     25 H5         -5.6808    1.9803   10.0685 H         1 TE1         0.0232
     26 H6         -4.5959    1.6416   11.4595 H         1 TE1         0.0232
     27 H7         -4.0053    1.4005    9.7802 H         1 TE1         0.0232
     28 H8         -4.4201    5.2035   11.6712 H         1 TE1         0.0310
     29 H9         -5.5721    3.8587   11.9728 H         1 TE1         0.0310
     30 H10        -7.1755    4.7854   10.6528 H         1 TE1         0.0712
     31 H11        -5.9724    4.3050    8.7952 H         1 TE1         0.2123
     32 H12        -5.9243    6.9375    8.4675 H         1 TE1         0.0442
     33 H13        -7.5790    6.7470   14.6906 H         1 TE1         0.0572
     34 H14        -8.5539    7.5646   13.4227 H         1 TE1         0.0572
     35 H15        -7.0853    8.3628   14.0807 H         1 TE1         0.0572
     36 H16        -6.9450    9.3849   12.5358 H         1 TE1         0.0429
     37 H17        -6.3412   11.0880    9.5194 H         1 TE1         0.2432
     38 H18        -5.3400   10.4130    8.4114 H         1 TE1         0.0400
     39 H19        -7.0064    9.9829    7.8966 H         1 TE1         0.0400
     40 H20        -4.5122    9.6306    6.8196 H         1 TE1         0.0448
     41 H21        -6.1785    9.6560    6.1491 H         1 TE1         0.0448
@<TRIPOS>BOND
     1    1    2 1  
     2    2    3 1  
     3    2    4 1  
     4    4    5 1  
     5    5    6 1  
     6    5    7 1  
     7    7    8 ar 
     8    7    9 ar 
     9    8   15 ar 
    10    9   10 1  
    11    9   12 ar 
    12   10   11 1  
    13   12   13 ar 
    14   13   14 1  
    15   13   15 ar 
    16   15   16 1  
    17   16   17 1  
    18   17   18 1  
    19   18   19 ar 
    20   18   20 ar 
    21    1   21 1  
    22    1   22 1  
    23    1   23 1  
    24    2   24 1  
    25    3   25 1  
    26    3   26 1  
    27    3   27 1  
    28    4   28 1  
    29    4   29 1  
    30    5   30 1  
    31    6   31 1  
    32    8   32 1  
    33   11   33 1  
    34   11   34 1  
    35   11   35 1  
    36   12   36 1  
    37   14   37 1  
    38   16   38 1  
    39   16   39 1  
    40   17   40 1  
    41   17   41 1  
@<TRIPOS>SUBSTRUCTURE
     1 TE1         1

