### 
### Created by X-TOOL on Mon Sep 10 21:12:59 2018
### 

@<TRIPOS>MOLECULE
3f8f_ligand
   68    72     1     0     0
SMALL
GAST_HUCK


@<TRIPOS>ATOM
      1 C1         25.4770   39.1680   47.9470 C.ar      1 DM1        -0.0496
      2 C2         26.1120   38.7900   46.7730 C.ar      1 DM1        -0.0604
      3 C3         25.4470   38.0300   45.8250 C.ar      1 DM1        -0.0224
      4 C4         24.1290   37.6360   46.0420 C.ar      1 DM1         0.1154
      5 O4         23.5400   36.9540   45.1860 O.3       1 DM1        -0.3146
      6 C5         23.4770   38.0190   47.2350 C.ar      1 DM1         0.0759
      7 C6         22.1560   37.6380   47.4750 C.2       1 DM1         0.1471
      8 O6         21.5540   36.9620   46.6390 O.2       1 DM1        -0.3797
      9 C7         21.5130   38.0210   48.6640 C.ar      1 DM1         0.0568
     10 C8         20.1910   37.6300   48.8850 C.ar      1 DM1         0.1006
     11 O8         19.5390   36.8810   47.9490 O.3       1 DM1        -0.3380
     12 C9         19.4830   38.0260   50.1450 C.ar      1 DM1         0.0212
     13 C10        18.0680   37.6120   50.3980 C.3       1 DM1         0.0945
     14 O10        17.7380   36.5390   49.5330 O.3       1 DM1        -0.3376
     15 C11        17.9740   37.1060   51.8350 C.3       1 DM1         0.0173
     16 C12        18.5200   38.0780   52.9000 C.3       1 DM1         0.1394
     17 O12        19.2800   37.2990   53.8510 O.3       1 DM1        -0.3841
     18 C13        17.3300   38.7210   53.6290 C.2       1 DM1         0.1571
     19 O13        16.1230   38.6310   53.1080 O.2       1 DM1        -0.3298
     20 C14        17.5730   39.4410   54.9310 C.3       1 DM1         0.0137
     21 C15        19.4400   39.1860   52.3570 C.3       1 DM1         0.0124
     22 C16        20.1450   38.7760   51.0830 C.ar      1 DM1        -0.0032
     23 C17        21.5670   39.1860   50.8200 C.ar      1 DM1         0.0984
     24 O17        22.2510   39.9430   51.7480 O.3       1 DM1        -0.3380
     25 C18        22.2000   38.7950   49.6220 C.ar      1 DM1         0.0586
     26 C19        23.5260   39.1780   49.3800 C.2       1 DM1         0.1504
     27 O19        24.1390   39.8610   50.2220 O.2       1 DM1        -0.3730
     28 C20        24.1620   38.7880   48.1850 C.ar      1 DM1         0.0393
     29 C21        24.2720   36.1560   44.2800 C.3       1 DM1         0.0613
     30 C1'        16.3440   36.4240   49.2970 C.3       1 DM1         0.1670
     31 C2'        16.1040   35.8900   47.8760 C.3       1 DM1         0.0440
     32 C3'        16.5810   34.4360   47.7260 C.3       1 DM1         0.0093
     33 N3'        16.1080   33.8940   46.4610 N.4       1 DM1         0.2228
     34 C4'        16.1030   33.5480   48.8940 C.3       1 DM1         0.1234
     35 O4'        14.7320   33.2130   48.7300 O.3       1 DM1        -0.3836
     36 C5'        16.3290   34.2400   50.2550 C.3       1 DM1         0.0900
     37 O5'        15.7460   35.5440   50.2530 O.3       1 DM1        -0.3452
     38 C6'        15.7570   33.4210   51.4110 C.3       1 DM1        -0.0359
     39 H1         26.0088   39.7621   48.6814 H         1 DM1         0.0591
     40 H2         27.1379   39.0921   46.5959 H         1 DM1         0.0636
     41 H3         25.9540   37.7410   44.9115 H         1 DM1         0.0591
     42 H4         18.6558   36.7006   48.2486 H         1 DM1         0.2454
     43 H5         17.3846   38.4591   50.2387 H         1 DM1         0.0731
     44 H6         18.5428   36.1671   51.9051 H         1 DM1         0.0323
     45 H7         16.9152   36.9110   52.0605 H         1 DM1         0.0323
     46 H8         19.6300   37.8737   54.5216 H         1 DM1         0.2078
     47 H9         16.6211   39.8378   55.3138 H         1 DM1         0.0452
     48 H10        18.2760   40.2707   54.7656 H         1 DM1         0.0452
     49 H11        17.9991   38.7399   55.6637 H         1 DM1         0.0452
     50 H12        20.1969   39.4222   53.1194 H         1 DM1         0.0410
     51 H13        18.8334   40.0807   52.1530 H         1 DM1         0.0410
     52 H14        23.1297   40.1138   51.4300 H         1 DM1         0.2454
     53 H15        23.5764   35.6331   43.6072 H         1 DM1         0.0581
     54 H16        24.8662   35.4180   44.8387 H         1 DM1         0.0581
     55 H17        24.9436   36.7952   43.6881 H         1 DM1         0.0581
     56 H18        15.8826   37.4182   49.3903 H         1 DM1         0.0913
     57 H19        16.6527   36.5206   47.1609 H         1 DM1         0.0370
     58 H20        15.0275   35.9364   47.6550 H         1 DM1         0.0370
     59 H21        17.6810   34.4329   47.7205 H         1 DM1         0.0878
     60 H22        16.4221   32.9410   46.3654 H         1 DM1         0.1998
     61 H23        16.4738   34.4461   45.7011 H         1 DM1         0.1998
     62 H24        15.1005   33.9194   46.4403 H         1 DM1         0.1998
     63 H25        16.6907   32.6183   48.8807 H         1 DM1         0.0676
     64 H26        14.4517   32.6670   49.4551 H         1 DM1         0.2102
     65 H27        17.4132   34.3426   50.4100 H         1 DM1         0.0622
     66 H28        15.9390   33.9482   52.3591 H         1 DM1         0.0255
     67 H29        16.2457   32.4360   51.4396 H         1 DM1         0.0255
     68 H30        14.6745   33.2892   51.2667 H         1 DM1         0.0255
@<TRIPOS>BOND
     1    1    2 ar 
     2    1   28 ar 
     3    2    3 ar 
     4    3    4 ar 
     5    4    5 1  
     6    4    6 ar 
     7    5   29 1  
     8    6    7 1  
     9    6   28 ar 
    10    7    8 2  
    11    7    9 1  
    12    9   10 ar 
    13    9   25 ar 
    14   10   11 1  
    15   10   12 ar 
    16   12   13 1  
    17   12   22 ar 
    18   13   14 1  
    19   13   15 1  
    20   14   30 1  
    21   15   16 1  
    22   16   17 1  
    23   16   18 1  
    24   16   21 1  
    25   18   19 2  
    26   18   20 1  
    27   21   22 1  
    28   22   23 ar 
    29   23   24 1  
    30   23   25 ar 
    31   25   26 1  
    32   26   27 2  
    33   26   28 1  
    34   30   31 1  
    35   30   37 1  
    36   31   32 1  
    37   32   33 1  
    38   32   34 1  
    39   34   35 1  
    40   34   36 1  
    41   36   37 1  
    42   36   38 1  
    43    1   39 1  
    44    2   40 1  
    45    3   41 1  
    46   11   42 1  
    47   13   43 1  
    48   15   44 1  
    49   15   45 1  
    50   17   46 1  
    51   20   47 1  
    52   20   48 1  
    53   20   49 1  
    54   21   50 1  
    55   21   51 1  
    56   24   52 1  
    57   29   53 1  
    58   29   54 1  
    59   29   55 1  
    60   30   56 1  
    61   31   57 1  
    62   31   58 1  
    63   32   59 1  
    64   33   60 1  
    65   33   61 1  
    66   33   62 1  
    67   34   63 1  
    68   35   64 1  
    69   36   65 1  
    70   38   66 1  
    71   38   67 1  
    72   38   68 1  
@<TRIPOS>SUBSTRUCTURE
     1 DM1         1

