### 
### Created by X-TOOL on Mon Sep 10 21:13:02 2018
### 

@<TRIPOS>MOLECULE
3f8s_ligand
   52    55     1     0     0
SMALL
GAST_HUCK


@<TRIPOS>ATOM
      1 F26        16.1430   19.4560   40.3580 F         1 PF2        -0.2034
      2 C11        17.0780   18.6120   39.9920 C.3       1 PF2         0.2705
      3 F25        18.1070   18.6260   40.8040 F         1 PF2        -0.2034
      4 C10        17.6730   19.2050   38.7760 C.3       1 PF2         0.0332
      5 C9         18.4860   18.0140   38.3480 C.3       1 PF2         0.0398
      6 C12        16.6420   17.1730   39.6260 C.3       1 PF2         0.0974
      7 N8         17.4760   16.9630   38.4580 N.am      1 PF2        -0.2627
      8 C6         17.4400   16.0360   37.5030 C.2       1 PF2         0.2274
      9 O7         16.6750   15.1080   37.4880 O.2       1 PF2        -0.3907
     10 C4         18.5110   16.2140   36.4300 C.3       1 PF2         0.0724
     11 N3         18.7510   15.0330   35.6110 N.4       1 PF2         0.2502
     12 C2         19.3860   15.5360   34.3910 C.3       1 PF2         0.0128
     13 C5         18.1820   17.3040   35.4120 C.3       1 PF2         0.0558
     14 C1         19.1730   17.0500   34.3130 C.3       1 PF2         0.0276
     15 N13        18.7670   17.4680   32.9350 N.4       1 PF2         0.2443
     16 C18        19.9660   17.4090   32.0590 C.3       1 PF2        -0.0102
     17 C17        19.5350   17.5030   30.5960 C.3       1 PF2         0.0740
     18 N16        18.7330   18.7120   30.4120 N.pl3     1 PF2        -0.2646
     19 C15        17.8000   19.2300   31.4350 C.3       1 PF2         0.0740
     20 C14        18.2230   18.8440   32.8680 C.3       1 PF2        -0.0102
     21 C19        18.8550   19.3410   29.2070 C.ar      1 PF2         0.1960
     22 N23        19.7180   18.8310   28.2700 N.ar      1 PF2        -0.2527
     23 C24        19.8820   19.4110   27.0620 C.ar      1 PF2         0.0145
     24 C22        19.1710   20.5640   26.7750 C.ar      1 PF2        -0.0228
     25 C21        18.2870   21.0730   27.7410 C.ar      1 PF2         0.0145
     26 N20        18.1310   20.4650   28.9360 N.ar      1 PF2        -0.2527
     27 H1         18.3004   20.0799   39.0017 H         1 PF2         0.0343
     28 H2         16.9126   19.4815   38.0308 H         1 PF2         0.0343
     29 H3         19.3355   17.8358   39.0236 H         1 PF2         0.0524
     30 H4         18.8536   18.1202   37.3167 H         1 PF2         0.0524
     31 H5         15.5710   17.1179   39.3813 H         1 PF2         0.0581
     32 H6         16.8720   16.4573   40.4290 H         1 PF2         0.0581
     33 H7         19.4432   16.4797   36.9499 H         1 PF2         0.1101
     34 H8         17.8819   14.5713   35.3928 H         1 PF2         0.2037
     35 H9         19.3626   14.3897   36.0886 H         1 PF2         0.2037
     36 H10        18.9334   15.0532   33.5124 H         1 PF2         0.0871
     37 H11        20.4632   15.3150   34.4166 H         1 PF2         0.0871
     38 H12        18.3209   18.3052   35.8459 H         1 PF2         0.0403
     39 H13        17.1500   17.2035   35.0447 H         1 PF2         0.0403
     40 H14        20.1101   17.5747   34.5508 H         1 PF2         0.0908
     41 H15        18.0661   16.8269   32.5976 H         1 PF2         0.2040
     42 H16        20.4946   16.4587   32.2249 H         1 PF2         0.0835
     43 H17        20.6361   18.2479   32.2981 H         1 PF2         0.0835
     44 H18        18.9360   16.6194   30.3306 H         1 PF2         0.0580
     45 H19        20.4253   17.5496   29.9516 H         1 PF2         0.0580
     46 H20        16.7985   18.8191   31.2398 H         1 PF2         0.0580
     47 H21        17.7674   20.3269   31.3600 H         1 PF2         0.0580
     48 H22        18.9949   19.5481   33.2120 H         1 PF2         0.0835
     49 H23        17.3452   18.9112   33.5275 H         1 PF2         0.0835
     50 H24        20.5575   18.9822   26.3306 H         1 PF2         0.0900
     51 H25        19.2943   21.0651   25.8217 H         1 PF2         0.0665
     52 H26        17.7197   21.9706   27.5227 H         1 PF2         0.0900
@<TRIPOS>BOND
     1    1    2 1  
     2    2    3 1  
     3    2    4 1  
     4    2    6 1  
     5    4    5 1  
     6    5    7 1  
     7    6    7 1  
     8    7    8 am 
     9    8    9 2  
    10    8   10 1  
    11   10   11 1  
    12   10   13 1  
    13   11   12 1  
    14   12   14 1  
    15   13   14 1  
    16   14   15 1  
    17   15   16 1  
    18   15   20 1  
    19   16   17 1  
    20   17   18 1  
    21   18   19 1  
    22   18   21 1  
    23   19   20 1  
    24   21   22 ar 
    25   21   26 ar 
    26   22   23 ar 
    27   23   24 ar 
    28   24   25 ar 
    29   25   26 ar 
    30    4   27 1  
    31    4   28 1  
    32    5   29 1  
    33    5   30 1  
    34    6   31 1  
    35    6   32 1  
    36   10   33 1  
    37   11   34 1  
    38   11   35 1  
    39   12   36 1  
    40   12   37 1  
    41   13   38 1  
    42   13   39 1  
    43   14   40 1  
    44   15   41 1  
    45   16   42 1  
    46   16   43 1  
    47   17   44 1  
    48   17   45 1  
    49   19   46 1  
    50   19   47 1  
    51   20   48 1  
    52   20   49 1  
    53   23   50 1  
    54   24   51 1  
    55   25   52 1  
@<TRIPOS>SUBSTRUCTURE
     1 PF2         1

