### 
### Created by X-TOOL on Mon Sep 10 21:13:00 2018
### 

@<TRIPOS>MOLECULE
3f8w_ligand
   35    37     1     0     0
SMALL
GAST_HUCK


@<TRIPOS>ATOM
      1 O5'        18.3920   25.7370    7.1700 O.3       1 ADN        -0.3924
      2 C5'        18.9620   25.6790    8.4690 C.3       1 ADN         0.0730
      3 C4'        19.4330   27.0990    8.8990 C.3       1 ADN         0.1136
      4 O4'        18.3010   27.9950    8.7660 O.3       1 ADN        -0.3369
      5 C3'        19.8130   27.1670   10.3990 C.3       1 ADN         0.1146
      6 O3'        20.7130   28.2440   10.5830 O.3       1 ADN        -0.3864
      7 C2'        18.4920   27.3630   11.1470 C.3       1 ADN         0.1384
      8 O2'        18.5650   28.3600   12.1310 O.3       1 ADN        -0.3836
      9 C1'        17.5470   27.8320   10.0080 C.3       1 ADN         0.1964
     10 N9         16.4110   26.9470    9.7080 N.pl3     1 ADN        -0.2210
     11 C8         15.6300   26.9880    8.4100 C.2       1 ADN         0.0917
     12 N7         14.5700   25.9450    8.5290 N.2       1 ADN        -0.3222
     13 C5         14.6860   25.2770    9.8750 C.2       1 ADN         0.0769
     14 C6         13.8910   24.1180   10.5280 C.3       1 ADN         0.0930
     15 N6         12.7570   23.5150    9.8300 N.4       1 ADN         0.2473
     16 N1         14.2630   23.6460   11.8380 N.pl3     1 ADN        -0.2484
     17 C2         15.4250   24.2900   12.5950 C.2       1 ADN         0.0897
     18 N3         16.2150   25.4160   11.9480 N.2       1 ADN        -0.2913
     19 C4         15.8380   25.8860   10.5960 C.2       1 ADN         0.1147
     20 H1         18.1061   24.8686    6.9118 H         1 ADN         0.2095
     21 H2         19.8235   24.9951    8.4601 H         1 ADN         0.0584
     22 H3         18.2096   25.3117    9.1824 H         1 ADN         0.0584
     23 H4         20.2780   27.4201    8.2722 H         1 ADN         0.0647
     24 H5         20.2923   26.2318   10.7239 H         1 ADN         0.0648
     25 H6         21.4902   28.0992   10.0564 H         1 ADN         0.2100
     26 H7         18.1502   26.4208   11.6002 H         1 ADN         0.0676
     27 H8         18.7941   29.1878   11.7251 H         1 ADN         0.2101
     28 H9         17.1394   28.8087   10.3078 H         1 ADN         0.0995
     29 H10        15.8070   27.6465    7.5609 H         1 ADN         0.1167
     30 H11        14.5694   23.3861   10.0652 H         1 ADN         0.1259
     31 H12        12.3631   22.7823   10.3993 H         1 ADN         0.2028
     32 H13        13.0693   23.1280    8.9532 H         1 ADN         0.2028
     33 H14        12.0566   24.2188    9.6562 H         1 ADN         0.2028
     34 H15        13.7418   22.8685   12.2678 H         1 ADN         0.2006
     35 H16        15.6856   23.9433   13.5939 H         1 ADN         0.1382
@<TRIPOS>BOND
     1    1    2 1  
     2    2    3 1  
     3    3    4 1  
     4    3    5 1  
     5    4    9 1  
     6    5    6 1  
     7    5    7 1  
     8    7    8 1  
     9    7    9 1  
    10    9   10 1  
    11   10   11 1  
    12   10   19 1  
    13   11   12 2  
    14   12   13 1  
    15   13   14 1  
    16   13   19 2  
    17   14   15 1  
    18   14   16 1  
    19   16   17 1  
    20   17   18 2  
    21   18   19 1  
    22    1   20 1  
    23    2   21 1  
    24    2   22 1  
    25    3   23 1  
    26    5   24 1  
    27    6   25 1  
    28    7   26 1  
    29    8   27 1  
    30    9   28 1  
    31   11   29 1  
    32   14   30 1  
    33   15   31 1  
    34   15   32 1  
    35   15   33 1  
    36   16   34 1  
    37   17   35 1  
@<TRIPOS>SUBSTRUCTURE
     1 ADN         1

