### 
### Created by X-TOOL on Mon Sep 10 21:13:00 2018
### 

@<TRIPOS>MOLECULE
3f9n_ligand
   74    78     1     0     0
SMALL
GAST_HUCK


@<TRIPOS>ATOM
      1 C          21.9150  -10.0200   26.5790 C.ar      1 38M        -0.0490
      2 C1         22.7720  -10.4020   27.6140 C.ar      1 38M        -0.0472
      3 C2         24.0580   -9.8790   27.6790 C.ar      1 38M        -0.0045
      4 C3         24.4750   -8.9320   26.7520 C.ar      1 38M         0.1405
      5 C4         23.6520   -8.5590   25.7450 C.ar      1 38M         0.1012
      6 C5         22.3450   -9.1150   25.6140 C.ar      1 38M        -0.0317
      7 C6         24.1370   -7.5530   24.7720 C.2       1 38M         0.2440
      8 O          23.3920   -7.1880   23.8960 O.2       1 38M        -0.3367
      9 N          25.4080   -7.0150   24.9700 N.2       1 38M        -0.1831
     10 N7         25.7400   -8.3660   26.8550 N.pl3     1 38M        -0.1748
     11 C8         26.1610   -7.4120   25.9810 C.2       1 38M         0.2911
     12 S          27.7240   -6.6650   26.1310 S.3       1 38M         0.0429
     13 C15        28.6690   -7.5120   27.3140 C.3       1 38M         0.1271
     14 C16        27.9600   -7.4310   28.6900 C.2       1 38M         0.1962
     15 C17        29.9630   -6.7130   27.2780 C.3       1 38M        -0.0195
     16 O18        27.6000   -6.3540   29.1270 O.2       1 38M        -0.3953
     17 N19        27.7420   -8.5720   29.4400 N.am      1 38M        -0.2713
     18 C20        31.1220   -7.4690   27.8670 C.3       1 38M        -0.0499
     19 C21        32.4240   -6.6460   27.7490 C.3       1 38M        -0.0557
     20 C22        32.6760   -5.8450   29.0350 C.3       1 38M        -0.0653
     21 C23        28.1920   -9.8760   28.9430 C.3       1 38M         0.0339
     22 C24        29.3320  -10.3090   29.9030 C.3       1 38M        -0.0318
     23 C25        28.9650  -10.1700   31.4080 C.3       1 38M        -0.0388
     24 C26        28.1280   -8.9390   31.8260 C.3       1 38M         0.0312
     25 C27        27.0810   -8.5550   30.7810 C.3       1 38M         0.0444
     26 C7         29.1460   -7.8310   32.0880 C.3       1 38M        -0.0260
     27 C18        27.4370   -9.2580   33.1920 C.3       1 38M        -0.0359
     28 C19        26.8430   -8.0120   33.8000 C.3       1 38M        -0.0118
     29 N1         28.6570   -6.6580   32.8550 N.4       1 38M         0.2274
     30 C35        27.9920   -7.0720   34.1610 C.3       1 38M        -0.0336
     31 C9         25.8180   -6.0450   24.1030 C.ar      1 38M         0.0899
     32 C10        26.9190   -6.1850   23.2330 C.ar      1 38M        -0.0094
     33 C11        27.2750   -5.1640   22.3420 C.ar      1 38M        -0.0321
     34 C12        26.5520   -3.9640   22.3130 C.ar      1 38M        -0.0208
     35 C13        25.4750   -3.8430   23.1740 C.ar      1 38M         0.0690
     36 C14        25.0790   -4.8660   24.0640 C.ar      1 38M         0.0037
     37 CL         24.5440   -2.3910   23.1880 Cl        1 38M        -0.0614
     38 H1         20.9127  -10.4297   26.5277 H         1 38M         0.0688
     39 H2         22.4342  -11.1059   28.3660 H         1 38M         0.0676
     40 H3         24.7377  -10.2110   28.4554 H         1 38M         0.0692
     41 H4         21.7038   -8.8396   24.7845 H         1 38M         0.0698
     42 H5         26.3714   -8.6748   27.6079 H         1 38M         0.2758
     43 H6         28.8355   -8.5639   27.0388 H         1 38M         0.0704
     44 H7         29.8204   -5.7842   27.8498 H         1 38M         0.0304
     45 H8         30.1971   -6.4672   26.2317 H         1 38M         0.0304
     46 H9         31.2452   -8.4197   27.3276 H         1 38M         0.0267
     47 H10        30.9184   -7.6733   28.9285 H         1 38M         0.0267
     48 H11        32.3364   -5.9505   26.9013 H         1 38M         0.0263
     49 H12        33.2690   -7.3289   27.5772 H         1 38M         0.0263
     50 H13        33.6060   -5.2670   28.9306 H         1 38M         0.0230
     51 H14        32.7676   -6.5364   29.8856 H         1 38M         0.0230
     52 H15        31.8350   -5.1579   29.2098 H         1 38M         0.0230
     53 H16        28.5685   -9.7869   27.9133 H         1 38M         0.0522
     54 H17        27.3679  -10.6041   28.9704 H         1 38M         0.0522
     55 H18        30.2135   -9.6829   29.7008 H         1 38M         0.0285
     56 H19        29.5760  -11.3623   29.7004 H         1 38M         0.0285
     57 H20        29.9067  -10.1366   31.9755 H         1 38M         0.0274
     58 H21        28.3966  -11.0675   31.6932 H         1 38M         0.0274
     59 H22        26.2527   -9.2786   30.7986 H         1 38M         0.0530
     60 H23        26.6928   -7.5480   30.9936 H         1 38M         0.0530
     61 H24        29.5053   -7.4684   31.1136 H         1 38M         0.0820
     62 H25        29.9846   -8.2714   32.6473 H         1 38M         0.0820
     63 H26        28.1832   -9.6756   33.8840 H         1 38M         0.0275
     64 H27        26.6369   -9.9947   33.0273 H         1 38M         0.0275
     65 H28        26.2746   -8.2722   34.7051 H         1 38M         0.0317
     66 H29        26.1749   -7.5243   33.0749 H         1 38M         0.0317
     67 H30        27.9872   -6.1569   32.2926 H         1 38M         0.2014
     68 H31        29.4381   -6.0560   33.0634 H         1 38M         0.2014
     69 H32        28.7165   -7.5913   34.8055 H         1 38M         0.0814
     70 H33        27.6045   -6.1858   34.6849 H         1 38M         0.0814
     71 H34        27.5007   -7.0995   23.2540 H         1 38M         0.0807
     72 H35        28.1149   -5.3032   21.6710 H         1 38M         0.0703
     73 H36        26.8263   -3.1594   21.6404 H         1 38M         0.0852
     74 H37        24.2149   -4.7352   24.7053 H         1 38M         0.0800
@<TRIPOS>BOND
     1    1    2 ar 
     2    1    6 ar 
     3    2    3 ar 
     4    3    4 ar 
     5    4    5 ar 
     6    4   10 1  
     7    5    6 ar 
     8    5    7 1  
     9    7    8 2  
    10    7    9 1  
    11    9   11 2  
    12    9   31 1  
    13   10   11 1  
    14   11   12 1  
    15   12   13 1  
    16   13   14 1  
    17   13   15 1  
    18   14   16 2  
    19   14   17 am 
    20   15   18 1  
    21   17   21 1  
    22   17   25 1  
    23   18   19 1  
    24   19   20 1  
    25   21   22 1  
    26   22   23 1  
    27   23   24 1  
    28   24   25 1  
    29   24   26 1  
    30   24   27 1  
    31   26   29 1  
    32   27   28 1  
    33   28   30 1  
    34   29   30 1  
    35   31   32 ar 
    36   31   36 ar 
    37   32   33 ar 
    38   33   34 ar 
    39   34   35 ar 
    40   35   36 ar 
    41   35   37 1  
    42    1   38 1  
    43    2   39 1  
    44    3   40 1  
    45    6   41 1  
    46   10   42 1  
    47   13   43 1  
    48   15   44 1  
    49   15   45 1  
    50   18   46 1  
    51   18   47 1  
    52   19   48 1  
    53   19   49 1  
    54   20   50 1  
    55   20   51 1  
    56   20   52 1  
    57   21   53 1  
    58   21   54 1  
    59   22   55 1  
    60   22   56 1  
    61   23   57 1  
    62   23   58 1  
    63   25   59 1  
    64   25   60 1  
    65   26   61 1  
    66   26   62 1  
    67   27   63 1  
    68   27   64 1  
    69   28   65 1  
    70   28   66 1  
    71   29   67 1  
    72   29   68 1  
    73   30   69 1  
    74   30   70 1  
    75   32   71 1  
    76   33   72 1  
    77   34   73 1  
    78   36   74 1  
@<TRIPOS>SUBSTRUCTURE
     1 38M         1

