### 
### Created by X-TOOL on Mon Sep 10 21:13:00 2018
### 

@<TRIPOS>MOLECULE
3fa3_ligand
   14    13     1     0     0
SMALL
GAST_HUCK


@<TRIPOS>ATOM
      1 O2         -7.6680  -28.6810   -3.6210 O.co2     1 OAF        -0.5426
      2 C1         -6.8040  -27.7630   -3.6480 C.2       1 OAF         0.1092
      3 O1         -6.9010  -26.6650   -4.2560 O.co2     1 OAF        -0.5426
      4 C2         -5.4520  -27.9950   -2.9140 C.3       1 OAF         0.2832
      5 O4         -5.4950  -28.5130   -1.5980 O.3       1 OAF        -0.3594
      6 O3         -4.7870  -26.7470   -2.7490 O.3       1 OAF        -0.3594
      7 C3         -4.6720  -28.9680   -3.7850 C.3       1 OAF         0.3486
      8 F1         -4.7570  -28.6510   -5.0480 F         1 OAF        -0.1968
      9 F2         -5.1590  -30.1930   -3.7350 F         1 OAF        -0.1968
     10 C4         -3.2640  -28.9780   -3.3030 C.2       1 OAF         0.1183
     11 O5         -2.5250  -28.0400   -3.7150 O.co2     1 OAF        -0.5422
     12 O6         -2.9780  -29.9210   -2.5240 O.co2     1 OAF        -0.5422
     13 H1         -5.9764  -27.9145   -1.0389 H         1 OAF         0.2113
     14 H2         -4.7093  -26.3169   -3.5925 H         1 OAF         0.2113
@<TRIPOS>BOND
     1    1    2 ar 
     2    2    3 ar 
     3    2    4 1  
     4    4    5 1  
     5    4    6 1  
     6    4    7 1  
     7    7    8 1  
     8    7    9 1  
     9    7   10 1  
    10   10   11 ar 
    11   10   12 ar 
    12    5   13 1  
    13    6   14 1  
@<TRIPOS>SUBSTRUCTURE
     1 OAF         1

