### 
### Created by X-TOOL on Mon Sep 10 21:13:01 2018
### 

@<TRIPOS>MOLECULE
3faa_ligand
   42    45     1     0     0
SMALL
GAST_HUCK


@<TRIPOS>ATOM
      1 C1         75.0700   22.1240   96.0950 C.ar      1 55F         0.0401
      2 C2         74.0740   22.8710   96.7350 C.ar      1 55F         0.0409
      3 N3         73.6510   24.0830   96.2550 N.ar      1 55F        -0.2718
      4 C4         74.2380   24.5440   95.1160 C.ar      1 55F         0.0722
      5 C5         75.2760   23.7680   94.4430 C.ar      1 55F         0.0689
      6 N6         75.6780   22.5660   94.9450 N.ar      1 55F        -0.2739
      7 C7         73.8420   25.7790   94.5770 C.ar      1 55F        -0.0316
      8 C8         74.4390   26.2720   93.3870 C.ar      1 55F        -0.0466
      9 C9         75.4570   25.5190   92.7190 C.ar      1 55F        -0.0160
     10 C10        75.8620   24.2700   93.2650 C.ar      1 55F        -0.0313
     11 C11        76.0780   26.0040   91.4940 C.2       1 55F         0.0250
     12 C12        76.5180   27.2440   91.0120 C.2       1 55F         0.0946
     13 N13        77.0340   27.0880   89.7450 N.pl3     1 55F        -0.2290
     14 C14        76.9340   25.8290   89.4340 C.2       1 55F         0.2430
     15 N15        76.3610   25.1360   90.4650 N.2       1 55F        -0.3077
     16 C16        76.5020   28.5700   91.6410 C.ar      1 55F         0.0530
     17 C17        76.7760   28.7250   93.0200 C.ar      1 55F        -0.0401
     18 C18        76.7570   30.0050   93.5840 C.ar      1 55F        -0.0194
     19 C19        76.4690   31.1050   92.7810 C.ar      1 55F         0.1559
     20 C20        76.2090   30.9080   91.4150 C.ar      1 55F         0.0513
     21 N21        76.2210   29.6490   90.8390 N.ar      1 55F        -0.3031
     22 N22        77.3230   25.2050   88.2690 N.am      1 55F        -0.1875
     23 C23        75.9020   32.0800   90.5300 C.3       1 55F        -0.0159
     24 F24        76.4490   32.3190   93.3170 F         1 55F        -0.1828
     25 C25        77.7870   23.8930   88.2350 C.2       1 55F         0.2096
     26 O26        77.9240   23.1010   89.1740 O.2       1 55F        -0.3821
     27 C27        78.1420   23.4720   86.8300 C.3       1 55F         0.0330
     28 H1         75.3694   21.1718   96.5179 H         1 55F         0.0941
     29 H2         73.6229   22.4783   97.6391 H         1 55F         0.0927
     30 H3         73.0740   26.3607   95.0738 H         1 55F         0.0671
     31 H4         74.1216   27.2257   92.9811 H         1 55F         0.0670
     32 H5         76.6341   23.6952   92.7665 H         1 55F         0.0615
     33 H6         77.4274   27.8324   89.1517 H         1 55F         0.2351
     34 H7         76.9986   27.8599   93.6341 H         1 55F         0.0614
     35 H8         76.9652   30.1394   94.6393 H         1 55F         0.0687
     36 H9         77.2698   25.7163   87.4113 H         1 55F         0.2378
     37 H10        75.7282   31.7279   89.5025 H         1 55F         0.0413
     38 H11        76.7513   32.7789   90.5393 H         1 55F         0.0413
     39 H12        75.0014   32.5924   90.8993 H         1 55F         0.0413
     40 H13        78.5040   22.4333   86.8389 H         1 55F         0.0473
     41 H14        78.9300   24.1316   86.4376 H         1 55F         0.0473
     42 H15        77.2507   23.5441   86.1893 H         1 55F         0.0473
@<TRIPOS>BOND
     1    1    2 ar 
     2    1    6 ar 
     3    2    3 ar 
     4    3    4 ar 
     5    4    5 ar 
     6    4    7 ar 
     7    5    6 ar 
     8    5   10 ar 
     9    7    8 ar 
    10    8    9 ar 
    11    9   10 ar 
    12    9   11 1  
    13   11   12 2  
    14   11   15 1  
    15   12   13 1  
    16   12   16 1  
    17   13   14 1  
    18   14   15 2  
    19   14   22 1  
    20   16   17 ar 
    21   16   21 ar 
    22   17   18 ar 
    23   18   19 ar 
    24   19   20 ar 
    25   19   24 1  
    26   20   21 ar 
    27   20   23 1  
    28   22   25 am 
    29   25   26 2  
    30   25   27 1  
    31    1   28 1  
    32    2   29 1  
    33    7   30 1  
    34    8   31 1  
    35   10   32 1  
    36   13   33 1  
    37   17   34 1  
    38   18   35 1  
    39   22   36 1  
    40   23   37 1  
    41   23   38 1  
    42   23   39 1  
    43   27   40 1  
    44   27   41 1  
    45   27   42 1  
@<TRIPOS>SUBSTRUCTURE
     1 55F         1

