### 
### Created by X-TOOL on Mon Sep 10 21:13:01 2018
### 

@<TRIPOS>MOLECULE
3fal_ligand
   57    58     1     0     0
SMALL
GAST_HUCK


@<TRIPOS>ATOM
      1 C1         64.7110   37.0980   23.6580 C.3       1 LO2        -0.0652
      2 C2         63.5030   37.6280   24.3860 C.3       1 LO2        -0.0540
      3 C3         63.4020   39.1250   24.2140 C.3       1 LO2        -0.0315
      4 C4         61.9590   39.5670   24.0540 C.3       1 LO2         0.0375
      5 N5         61.9050   40.9870   24.3490 N.pl3     1 LO2        -0.2780
      6 C6         61.0470   41.4450   25.4380 C.3       1 LO2         0.0618
      7 C7         59.6200   41.5140   25.0180 C.ar      1 LO2        -0.0387
      8 C8         59.3590   41.4080   23.6730 C.ar      1 LO2        -0.0642
      9 C9         58.0610   41.4760   23.2480 C.ar      1 LO2         0.0534
     10 CL10       57.7150   41.3560   21.5800 Cl        1 LO2        -0.0839
     11 C11        57.0260   41.6440   24.1320 C.ar      1 LO2         0.1265
     12 O12        55.7440   41.7120   23.6110 O.3       1 LO2        -0.3285
     13 C13        54.9280   40.9180   24.4550 C.3       1 LO2         0.0556
     14 C14        57.2800   41.7480   25.4820 C.ar      1 LO2         0.1140
     15 O15        56.1990   41.9280   26.3490 O.3       1 LO2        -0.3265
     16 C16        56.5170   41.2990   27.5800 C.3       1 LO2         0.0567
     17 C17        58.5870   41.6840   25.9260 C.ar      1 LO2        -0.0375
     18 C18        62.1960   41.8840   23.2770 C.ar      1 LO2         0.0811
     19 C19        62.0300   43.2470   23.4090 C.ar      1 LO2        -0.0088
     20 C20        62.3170   44.1310   22.3850 C.ar      1 LO2        -0.0463
     21 C21        62.7860   43.6820   21.1710 C.ar      1 LO2        -0.0246
     22 C22        62.9540   42.3210   21.0260 C.ar      1 LO2        -0.0463
     23 C23        62.6730   41.4440   22.0570 C.ar      1 LO2        -0.0088
     24 C24        63.0700   44.6560   20.0540 C.3       1 LO2         0.2275
     25 O25        63.1990   45.9790   20.5740 O.3       1 LO2        -0.4221
     26 C26        64.3590   44.3730   19.3020 C.3       1 LO2         0.3926
     27 F27        64.2430   43.2940   18.4870 F         1 LO2        -0.1784
     28 F28        64.6870   45.4340   18.5120 F         1 LO2        -0.1784
     29 F29        65.3930   44.1390   20.1520 F         1 LO2        -0.1784
     30 C30        61.8800   44.6250   19.0890 C.3       1 LO2         0.3926
     31 F31        60.7630   45.1340   19.6780 F         1 LO2        -0.1784
     32 F32        62.1180   45.3420   17.9570 F         1 LO2        -0.1784
     33 F33        61.5660   43.3730   18.6590 F         1 LO2        -0.1784
     34 H1         64.7710   36.0079   23.7924 H         1 LO2         0.0230
     35 H2         65.6190   37.5679   24.0637 H         1 LO2         0.0230
     36 H3         64.6249   37.3311   22.5865 H         1 LO2         0.0230
     37 H4         63.5916   37.3910   25.4565 H         1 LO2         0.0263
     38 H5         62.5974   37.1542   23.9792 H         1 LO2         0.0263
     39 H6         63.9686   39.4216   23.3191 H         1 LO2         0.0286
     40 H7         63.8310   39.6169   25.0994 H         1 LO2         0.0286
     41 H8         61.3162   39.0129   24.7538 H         1 LO2         0.0538
     42 H9         61.6218   39.3841   23.0231 H         1 LO2         0.0538
     43 H10        61.3750   42.4462   25.7543 H         1 LO2         0.0677
     44 H11        61.1374   40.7457   26.2823 H         1 LO2         0.0677
     45 H12        60.1665   41.2731   22.9625 H         1 LO2         0.0442
     46 H13        53.8919   40.9360   24.0859 H         1 LO2         0.0571
     47 H14        54.9595   41.3193   25.4787 H         1 LO2         0.0571
     48 H15        55.2991   39.8825   24.4554 H         1 LO2         0.0571
     49 H16        55.6807   41.4257   28.2832 H         1 LO2         0.0573
     50 H17        57.4237   41.7569   28.0023 H         1 LO2         0.0573
     51 H18        56.6932   40.2267   27.4092 H         1 LO2         0.0573
     52 H19        58.8043   41.7668   26.9848 H         1 LO2         0.0453
     53 H20        61.6611   43.6395   24.3497 H         1 LO2         0.0631
     54 H21        62.1704   45.1937   22.5406 H         1 LO2         0.0815
     55 H22        63.3148   41.9297   20.0816 H         1 LO2         0.0815
     56 H23        62.8311   40.3825   21.9043 H         1 LO2         0.0631
     57 H24        63.9144   46.0042   21.1985 H         1 LO2         0.1926
@<TRIPOS>BOND
     1    1    2 1  
     2    2    3 1  
     3    3    4 1  
     4    4    5 1  
     5    5    6 1  
     6    5   18 1  
     7    6    7 1  
     8    7    8 ar 
     9    7   17 ar 
    10    8    9 ar 
    11    9   10 1  
    12    9   11 ar 
    13   11   12 1  
    14   11   14 ar 
    15   12   13 1  
    16   14   15 1  
    17   14   17 ar 
    18   15   16 1  
    19   18   19 ar 
    20   18   23 ar 
    21   19   20 ar 
    22   20   21 ar 
    23   21   22 ar 
    24   21   24 1  
    25   22   23 ar 
    26   24   25 1  
    27   24   26 1  
    28   24   30 1  
    29   26   27 1  
    30   26   28 1  
    31   26   29 1  
    32   30   31 1  
    33   30   32 1  
    34   30   33 1  
    35    1   34 1  
    36    1   35 1  
    37    1   36 1  
    38    2   37 1  
    39    2   38 1  
    40    3   39 1  
    41    3   40 1  
    42    4   41 1  
    43    4   42 1  
    44    6   43 1  
    45    6   44 1  
    46    8   45 1  
    47   13   46 1  
    48   13   47 1  
    49   13   48 1  
    50   16   49 1  
    51   16   50 1  
    52   16   51 1  
    53   17   52 1  
    54   19   53 1  
    55   20   54 1  
    56   22   55 1  
    57   23   56 1  
    58   25   57 1  
@<TRIPOS>SUBSTRUCTURE
     1 LO2         1

