### 
### Created by X-TOOL on Mon Sep 10 21:12:57 2018
### 

@<TRIPOS>MOLECULE
3fas_ligand
   18    17     1     0     0
SMALL
GAST_HUCK


@<TRIPOS>ATOM
      1 N          19.1270   16.3160   33.8520 N.4       1 GLU         0.2328
      2 CA         19.3750   15.6470   32.5330 C.3       1 GLU         0.0298
      3 C          20.8570   15.4350   32.3140 C.2       1 GLU         0.0845
      4 O          21.2360   14.8960   31.2680 O.co2     1 GLU        -0.5643
      5 CB         18.7890   16.4530   31.3700 C.3       1 GLU         0.0139
      6 CG         17.2920   16.2760   31.1750 C.3       1 GLU         0.0069
      7 CD         16.8550   14.9080   30.6570 C.2       1 GLU         0.0351
      8 OE1        15.6330   14.6240   30.7910 O.co2     1 GLU        -0.5690
      9 OE2        17.6820   14.1160   30.1170 O.co2     1 GLU        -0.5690
     10 OXT        21.6510   15.8040   33.1890 O.co2     1 GLU        -0.5643
     11 H1         18.1361   16.4488   33.9803 H         1 GLU         0.2010
     12 H2         19.5907   17.2109   33.8673 H         1 GLU         0.2010
     13 H3         19.4875   15.7380   34.5950 H         1 GLU         0.2010
     14 H4         18.8824   14.6637   32.5519 H         1 GLU         0.1025
     15 H5         19.2957   16.1406   30.4450 H         1 GLU         0.0356
     16 H6         18.9882   17.5188   31.5552 H         1 GLU         0.0356
     17 H7         16.9516   17.0355   30.4558 H         1 GLU         0.0433
     18 H8         16.8015   16.4437   32.1452 H         1 GLU         0.0433
@<TRIPOS>BOND
     1    1    2 1  
     2    2    3 1  
     3    2    5 1  
     4    3    4 ar 
     5    3   10 ar 
     6    5    6 1  
     7    6    7 1  
     8    7    8 ar 
     9    7    9 ar 
    10    1   11 1  
    11    1   12 1  
    12    1   13 1  
    13    2   14 1  
    14    5   15 1  
    15    5   16 1  
    16    6   17 1  
    17    6   18 1  
@<TRIPOS>SUBSTRUCTURE
     1 GLU         1

