### 
### Created by X-TOOL on Mon Sep 10 21:12:57 2018
### 

@<TRIPOS>MOLECULE
3fat_ligand
   23    23     1     0     0
SMALL
GAST_HUCK


@<TRIPOS>ATOM
      1 N          11.8850   49.7560   20.0440 N.4       1 AMQ         0.2333
      2 CA         12.3460   51.0730   20.5210 C.3       1 AMQ         0.0299
      3 C          13.2510   50.8730   21.7330 C.2       1 AMQ         0.0853
      4 OT1        13.7100   51.9090   22.2670 O.co2     1 AMQ        -0.5642
      5 OT2        13.5060   49.6970   22.0790 O.co2     1 AMQ        -0.5642
      6 CB         11.1220   51.9450   20.8920 C.3       1 AMQ         0.0201
      7 CG         10.2720   52.2340   19.6490 C.2       1 AMQ         0.0355
      8 CD1        10.4890   53.2840   18.7620 C.2       1 AMQ         0.1867
      9 CD2         9.1610   51.5580   19.1560 C.2       1 AMQ         0.1229
     10 CE2         8.5040   50.3170   19.7590 C.3       1 AMQ         0.0048
     11 OE1        11.4920   54.2050   18.8710 O.2       1 AMQ        -0.4259
     12 NE1         9.5960   53.2650   17.7810 N.am      1 AMQ        -0.1399
     13 OE2         8.7320   52.1650   18.0160 O.3       1 AMQ        -0.1759
     14 H1         11.2861   49.8797   19.2427 H         1 AMQ         0.2011
     15 H2         11.3725   49.2932   20.7783 H         1 AMQ         0.2011
     16 H3         12.6813   49.1949   19.7848 H         1 AMQ         0.2011
     17 H4         12.9151   51.5725   19.7231 H         1 AMQ         0.1035
     18 H5         11.4715   52.8959   21.3206 H         1 AMQ         0.0385
     19 H6         10.5091   51.4118   21.6336 H         1 AMQ         0.0385
     20 H7          7.6454   50.0190   19.1393 H         1 AMQ         0.0455
     21 H8          8.1592   50.5435   20.7787 H         1 AMQ         0.0455
     22 H9          9.2344   49.4952   19.7929 H         1 AMQ         0.0455
     23 H10         9.5420   53.9077   17.0168 H         1 AMQ         0.2313
@<TRIPOS>BOND
     1    1    2 1  
     2    2    3 1  
     3    2    6 1  
     4    3    4 ar 
     5    3    5 ar 
     6    6    7 1  
     7    7    8 1  
     8    7    9 2  
     9    8   11 2  
    10    8   12 am 
    11    9   10 1  
    12    9   13 1  
    13   12   13 1  
    14    1   14 1  
    15    1   15 1  
    16    1   16 1  
    17    2   17 1  
    18    6   18 1  
    19    6   19 1  
    20   10   20 1  
    21   10   21 1  
    22   10   22 1  
    23   12   23 1  
@<TRIPOS>SUBSTRUCTURE
     1 AMQ         1

