### 
### Created by X-TOOL on Mon Sep 10 21:13:02 2018
### 

@<TRIPOS>MOLECULE
3fbr_ligand
   84    83     1     0     0
SMALL
GAST_HUCK


@<TRIPOS>ATOM
      1 N          -0.3870    3.6430   66.1870 N.4       1 UNK         0.2377
      2 CA         -0.8290    4.3390   67.3990 C.3       1 UNK         0.0621
      3 C           0.2990    4.4540   68.4100 C.2       1 UNK         0.2264
      4 O           1.1410    3.5730   68.5100 O.2       1 UNK        -0.3907
      5 CB         -2.0390    3.6330   68.0100 C.3       1 UNK        -0.0040
      6 N           0.2710    5.5640   69.1920 N.am      1 UNK        -0.2613
      7 CA          1.2620    5.7770   70.2130 C.3       1 UNK         0.1283
      8 C           0.8670    6.4850   71.4780 C.2       1 UNK         0.2034
      9 O           0.2410    7.5470   71.5150 O.2       1 UNK        -0.3944
     10 CB          2.4440    6.4960   69.5890 C.3       1 UNK        -0.0244
     11 N           1.2980    5.7570   72.4750 N.am      1 UNK        -0.2664
     12 CA          1.3580    6.1690   73.8580 C.3       1 UNK         0.1201
     13 C           2.4800    7.1760   73.6450 C.2       1 UNK         0.2005
     14 O           3.3970    6.9290   72.8500 O.2       1 UNK        -0.3947
     15 N           2.4630    8.3360   74.3260 N.am      1 UNK        -0.2666
     16 CA          3.4140    9.3780   73.8690 C.3       1 UNK         0.1201
     17 C           4.2720   10.2380   74.8350 C.2       1 UNK         0.2007
     18 O           4.5120    9.8750   75.9910 O.2       1 UNK        -0.3947
     19 N           4.7520   11.3860   74.2670 N.am      1 UNK        -0.2642
     20 CA          5.6950   12.4360   74.7620 C.3       1 UNK         0.1282
     21 C           5.3390   13.3800   75.9390 C.2       1 UNK         0.2036
     22 O           5.0400   12.9530   77.0590 O.2       1 UNK        -0.3944
     23 CB          6.0840   13.2910   73.5670 C.3       1 UNK        -0.0244
     24 N           5.4600   14.6850   75.5790 N.am      1 UNK        -0.2640
     25 CA          5.1440   15.8390   76.3910 C.3       1 UNK         0.1282
     26 C           3.6240   15.9130   76.3980 C.2       1 UNK         0.2036
     27 O           3.0070   16.1400   75.3620 O.2       1 UNK        -0.3944
     28 CB          5.7500   17.1250   75.8340 C.3       1 UNK        -0.0244
     29 N           3.0470   15.7170   77.5390 N.am      1 UNK        -0.2640
     30 CA          1.6070   15.7210   77.8320 C.3       1 UNK         0.1282
     31 C           0.5130   16.1190   76.8110 C.2       1 UNK         0.2034
     32 O          -0.6610   15.9180   77.1600 O.2       1 UNK        -0.3944
     33 CB          1.4060   16.5880   79.0600 C.3       1 UNK        -0.0244
     34 N           0.7430   16.6550   75.6320 N.am      1 UNK        -0.2664
     35 CA         -0.3930   17.0350   74.7570 C.3       1 UNK         0.1201
     36 C          -1.3750   15.8880   74.4520 C.2       1 UNK         0.2008
     37 O          -0.9980   14.7280   74.5970 O.2       1 UNK        -0.3947
     38 N          -2.5970   16.2020   74.0330 N.am      1 UNK        -0.2655
     39 CA         -3.5960   15.1930   73.6840 C.3       1 UNK         0.1100
     40 C          -4.0100   15.2840   72.2230 C.2       1 UNK         0.1242
     41 O          -4.4300   16.3420   71.7490 O.2       1 UNK        -0.3725
     42 CB         -4.8170   15.3250   74.5800 C.3       1 UNK        -0.0257
     43 H1         -1.1542    3.5817   65.5361 H         1 UNK         0.2015
     44 H2         -0.0752    2.7150   66.4272 H         1 UNK         0.2015
     45 H3          0.3723    4.1537   65.7642 H         1 UNK         0.2015
     46 H4         -1.1347    5.3568   67.1149 H         1 UNK         0.1095
     47 H5         -2.3564    4.1683   68.9171 H         1 UNK         0.0310
     48 H6         -1.7676    2.5993   68.2703 H         1 UNK         0.0310
     49 H7         -2.8639    3.6234   67.2824 H         1 UNK         0.0310
     50 H8         -0.4496    6.2439   69.0560 H         1 UNK         0.1884
     51 H9          1.5981    4.7762   70.5219 H         1 UNK         0.0797
     52 H10         3.2143    6.6685   70.3551 H         1 UNK         0.0277
     53 H11         2.1115    7.4613   69.1795 H         1 UNK         0.0277
     54 H12         2.8630    5.8793   68.7802 H         1 UNK         0.0277
     55 H13         1.6142    4.8328   72.2609 H         1 UNK         0.1881
     56 H14         1.6384    5.3511   74.5380 H         1 UNK         0.0763
     57 H15         0.4247    6.6337   74.2086 H         1 UNK         0.0763
     58 H16         1.8441    8.4871   75.0968 H         1 UNK         0.1881
     59 H17         2.8184   10.0912   73.2803 H         1 UNK         0.0763
     60 H18         4.1284    8.8643   73.2090 H         1 UNK         0.0763
     61 H19         4.4062   11.5557   73.3442 H         1 UNK         0.1883
     62 H20         6.5887   11.8882   75.0953 H         1 UNK         0.0797
     63 H21         6.7802   14.0787   73.8909 H         1 UNK         0.0277
     64 H22         5.1826   13.7523   73.1372 H         1 UNK         0.0277
     65 H23         6.5708   12.6608   72.8081 H         1 UNK         0.0277
     66 H24         5.8030   14.8658   74.6572 H         1 UNK         0.1883
     67 H25         5.5193   15.6883   77.4139 H         1 UNK         0.0797
     68 H26         5.4810   17.9693   76.4857 H         1 UNK         0.0277
     69 H27         5.3606   17.3052   74.8211 H         1 UNK         0.0277
     70 H28         6.8449   17.0271   75.7939 H         1 UNK         0.0277
     71 H29         3.6535   15.5418   78.3146 H         1 UNK         0.1883
     72 H30         1.3729   14.6809   78.1027 H         1 UNK         0.0797
     73 H31         0.3366   16.6189   79.3159 H         1 UNK         0.0277
     74 H32         1.7627   17.6074   78.8515 H         1 UNK         0.0277
     75 H33         1.9727   16.1665   79.9033 H         1 UNK         0.0277
     76 H34         1.6829   16.8062   75.3258 H         1 UNK         0.1881
     77 H35         0.0151   17.4007   73.8032 H         1 UNK         0.0763
     78 H36        -0.9518   17.8436   75.2509 H         1 UNK         0.0763
     79 H37        -2.8430   17.1680   73.9532 H         1 UNK         0.1884
     80 H38        -3.1496   14.2015   73.8506 H         1 UNK         0.0787
     81 H39        -3.9344   14.4030   71.5873 H         1 UNK         0.1373
     82 H40        -5.5580   14.5599   74.3050 H         1 UNK         0.0278
     83 H41        -5.2581   16.3247   74.4538 H         1 UNK         0.0278
     84 H42        -4.5185   15.1857   75.6295 H         1 UNK         0.0278
@<TRIPOS>BOND
     1    1    2 1  
     2    2    3 1  
     3    2    5 1  
     4    3    4 2  
     5    3    6 am 
     6    6    7 1  
     7    7    8 1  
     8    7   10 1  
     9    8    9 2  
    10    8   11 am 
    11   11   12 1  
    12   12   13 1  
    13   13   14 2  
    14   13   15 am 
    15   15   16 1  
    16   16   17 1  
    17   17   18 2  
    18   17   19 am 
    19   19   20 1  
    20   20   21 1  
    21   20   23 1  
    22   21   22 2  
    23   21   24 am 
    24   24   25 1  
    25   25   26 1  
    26   25   28 1  
    27   26   27 2  
    28   26   29 am 
    29   29   30 1  
    30   30   31 1  
    31   30   33 1  
    32   31   32 2  
    33   31   34 am 
    34   34   35 1  
    35   35   36 1  
    36   36   37 2  
    37   36   38 am 
    38   38   39 1  
    39   39   40 1  
    40   39   42 1  
    41   40   41 2  
    42    1   43 1  
    43    1   44 1  
    44    1   45 1  
    45    2   46 1  
    46    5   47 1  
    47    5   48 1  
    48    5   49 1  
    49    6   50 1  
    50    7   51 1  
    51   10   52 1  
    52   10   53 1  
    53   10   54 1  
    54   11   55 1  
    55   12   56 1  
    56   12   57 1  
    57   15   58 1  
    58   16   59 1  
    59   16   60 1  
    60   19   61 1  
    61   20   62 1  
    62   23   63 1  
    63   23   64 1  
    64   23   65 1  
    65   24   66 1  
    66   25   67 1  
    67   28   68 1  
    68   28   69 1  
    69   28   70 1  
    70   29   71 1  
    71   30   72 1  
    72   33   73 1  
    73   33   74 1  
    74   33   75 1  
    75   34   76 1  
    76   35   77 1  
    77   35   78 1  
    78   38   79 1  
    79   39   80 1  
    80   40   81 1  
    81   42   82 1  
    82   42   83 1  
    83   42   84 1  
@<TRIPOS>SUBSTRUCTURE
     1 UNK         1

