### 
### Created by X-TOOL on Mon Sep 10 21:12:58 2018
### 

@<TRIPOS>MOLECULE
3fc1_ligand
   39    42     1     0     0
SMALL
GAST_HUCK


@<TRIPOS>ATOM
      1 F1         36.8510   32.5670   31.2450 F         1 52P        -0.1901
      2 C2         38.0210   31.9520   31.0380 C.ar      1 52P         0.1234
      3 C3         38.4750   31.0110   31.9500 C.ar      1 52P        -0.0378
      4 C4         39.6910   30.3890   31.7150 C.ar      1 52P        -0.0506
      5 C5         40.4310   30.7200   30.5800 C.ar      1 52P         0.0629
      6 S6         41.9650   29.9150   30.2870 S.3       1 52P        -0.0228
      7 C7         43.2720   31.0880   30.5140 C.2       1 52P         0.1075
      8 C8         44.5630   30.7640   30.0280 C.2       1 52P        -0.0853
      9 C9         45.6000   31.6340   30.1920 C.2       1 52P        -0.0891
     10 C10        45.3680   32.8640   30.8560 C.2       1 52P         0.0957
     11 C11        46.3990   33.8150   31.0630 C.3       1 52P         0.1238
     12 C12        47.8010   33.5940   30.6130 C.ar      1 52P         0.0179
     13 C13        48.6950   32.8010   31.3550 C.ar      1 52P         0.0463
     14 CL14       48.2150   32.0250   32.8300 Cl        1 52P        -0.0764
     15 C15        49.9980   32.6100   30.9090 C.ar      1 52P        -0.0538
     16 C16        50.4300   33.2100   29.7390 C.ar      1 52P        -0.0673
     17 C17        49.5640   34.0030   29.0030 C.ar      1 52P        -0.0538
     18 C18        48.2620   34.1940   29.4350 C.ar      1 52P         0.0463
     19 CL19       47.1870   35.1850   28.4960 Cl        1 52P        -0.0764
     20 C20        46.0390   35.0120   31.7480 C.2       1 52P         0.1805
     21 O21        46.8820   35.8740   31.9620 O.2       1 52P        -0.3823
     22 N22        44.7770   35.2060   32.1650 N.2       1 52P        -0.2492
     23 C23        43.8430   34.3200   31.9640 C.2       1 52P         0.1505
     24 N24        44.0970   33.1500   31.3200 N.pl3     1 52P        -0.1264
     25 N25        43.0560   32.2300   31.1330 N.pl3     1 52P        -0.1859
     26 C26        39.9570   31.6640   29.6690 C.ar      1 52P         0.1445
     27 F27        40.6670   31.9750   28.5680 F         1 52P        -0.1887
     28 C28        38.7490   32.2850   29.9030 C.ar      1 52P        -0.0003
     29 H1         37.8902   30.7668   32.8294 H         1 52P         0.0553
     30 H2         40.0659   29.6475   32.4112 H         1 52P         0.0549
     31 H3         44.7279   29.8147   29.5206 H         1 52P         0.0110
     32 H4         46.5925   31.3870   29.8179 H         1 52P         0.0158
     33 H5         46.1706   34.2829   30.0940 H         1 52P         0.0860
     34 H6         50.6783   31.9886   31.4800 H         1 52P         0.0607
     35 H7         51.4478   33.0593   29.3977 H         1 52P         0.0562
     36 H8         49.9059   34.4741   28.0885 H         1 52P         0.0607
     37 H9         42.8340   34.5217   32.3207 H         1 52P         0.1598
     38 H10        42.1126   32.4495   31.4833 H         1 52P         0.2191
     39 H11        38.3708   33.0260   29.2081 H         1 52P         0.0573
@<TRIPOS>BOND
     1    1    2 1  
     2    2    3 ar 
     3    2   28 ar 
     4    3    4 ar 
     5    4    5 ar 
     6    5    6 1  
     7    5   26 ar 
     8    6    7 1  
     9    7    8 2  
    10    7   25 1  
    11    8    9 1  
    12    9   10 2  
    13   10   11 1  
    14   10   24 1  
    15   11   12 1  
    16   11   20 1  
    17   12   13 ar 
    18   12   18 ar 
    19   13   14 1  
    20   13   15 ar 
    21   15   16 ar 
    22   16   17 ar 
    23   17   18 ar 
    24   18   19 1  
    25   20   21 2  
    26   20   22 1  
    27   22   23 2  
    28   23   24 1  
    29   24   25 1  
    30   26   27 1  
    31   26   28 ar 
    32    3   29 1  
    33    4   30 1  
    34    8   31 1  
    35    9   32 1  
    36   11   33 1  
    37   15   34 1  
    38   16   35 1  
    39   17   36 1  
    40   23   37 1  
    41   25   38 1  
    42   28   39 1  
@<TRIPOS>SUBSTRUCTURE
     1 52P         1

