### 
### Created by X-TOOL on Mon Sep 10 21:13:00 2018
### 

@<TRIPOS>MOLECULE
3fc2_ligand
   97   102     1     0     0
SMALL
GAST_HUCK


@<TRIPOS>ATOM
      1 C1         51.3340   -0.9140    9.5630 C.3       1 IBI         0.0097
      2 C2         52.2400    0.2950    9.2360 C.3       1 IBI         0.0095
      3 C5         53.1760   -2.0350   10.6170 C.3       1 IBI         0.0097
      4 C6         54.1060   -0.8360   10.3100 C.3       1 IBI         0.0095
      5 C7         49.3040   -4.8030    8.6510 C.3       1 IBI        -0.0249
      6 C8         50.0260   -3.4450    8.8300 C.3       1 IBI        -0.0076
      7 C11        51.3230   -6.0230    9.2350 C.3       1 IBI        -0.0249
      8 C12        52.1330   -4.7060    9.4000 C.3       1 IBI        -0.0076
      9 C15        47.2310   -9.3550    7.9190 C.ar      1 IBI        -0.0628
     10 C16        47.6870  -11.4320    6.1530 C.ar      1 IBI         0.1199
     11 C17        48.2740   -9.2290    6.9840 C.ar      1 IBI         0.0285
     12 C18        48.4800  -10.2810    6.0990 C.ar      1 IBI        -0.0230
     13 C21        42.4420  -12.9700   12.1850 C.3       1 IBI         0.1354
     14 N22        42.1240  -14.8970   10.6010 N.am      1 IBI        -0.2208
     15 C24        43.1220  -14.3450    9.7300 C.ar      1 IBI         0.1273
     16 C31        43.3060  -13.4930   13.3750 C.3       1 IBI        -0.0147
     17 C32        44.5820  -14.2730   12.9590 C.3       1 IBI        -0.0610
     18 C33        43.9630  -11.1270   11.7920 C.3       1 IBI         0.0381
     19 C34        45.3720  -10.8250   11.2990 C.3       1 IBI        -0.0420
     20 C35        43.0430   -9.8930   11.6820 C.3       1 IBI        -0.0420
     21 C36        41.4420  -16.1750   10.2940 C.3       1 IBI         0.0423
     22 C38        49.0960  -12.8170    4.6800 C.3       1 IBI         0.0570
     23 C39        49.1590   -7.9890    6.9350 C.2       1 IBI         0.1937
     24 O40        49.6650   -7.7030    5.8870 O.2       1 IBI        -0.3904
     25 O37        47.8620  -12.4980    5.3050 O.3       1 IBI        -0.3244
     26 C14        46.6520  -11.5440    7.0780 C.ar      1 IBI         0.0980
     27 N19        45.9580  -12.7920    7.0550 N.pl3     1 IBI        -0.2527
     28 C26        45.0190  -13.3310    7.9740 C.ar      1 IBI         0.1779
     29 N27        44.6880  -12.6510    9.1330 N.ar      1 IBI        -0.2512
     30 C25        43.7440  -13.1260   10.0220 C.ar      1 IBI         0.1459
     31 N23        43.3950  -12.3960   11.2130 N.pl3     1 IBI        -0.2692
     32 N28        44.4080  -14.5280    7.6920 N.ar      1 IBI        -0.2878
     33 C29        43.4680  -15.0220    8.5700 C.ar      1 IBI         0.0200
     34 C20        41.7550  -14.2360   11.7700 C.2       1 IBI         0.2284
     35 O30        40.9280  -14.6910   12.5390 O.2       1 IBI        -0.3839
     36 C13        46.4270  -10.4980    7.9660 C.ar      1 IBI        -0.0405
     37 N41        49.4110   -7.1880    8.0600 N.am      1 IBI        -0.2850
     38 C9         50.2190   -5.9320    8.1790 C.3       1 IBI         0.0417
     39 C10        51.2850   -3.4520    9.7480 C.3       1 IBI        -0.0203
     40 N3         52.1030   -2.1950    9.5910 N.4       1 IBI         0.2448
     41 N4         53.3610    0.4360   10.1910 N.4       1 IBI         0.2429
     42 C42        54.2470    1.5720    9.8800 C.3       1 IBI        -0.0286
     43 C43        53.8040    2.9140   10.4990 C.3       1 IBI        -0.0007
     44 C45        54.0860    4.2970    9.9520 C.3       1 IBI        -0.0450
     45 C44        52.7320    3.7130    9.7130 C.3       1 IBI        -0.0450
     46 H1         50.5485   -0.9875    8.7964 H         1 IBI         0.0868
     47 H2         50.8712   -0.7555   10.5482 H         1 IBI         0.0868
     48 H3         51.6317    1.2109    9.2681 H         1 IBI         0.0868
     49 H4         52.6523    0.1639    8.2247 H         1 IBI         0.0868
     50 H5         52.7061   -1.8763   11.5988 H         1 IBI         0.0868
     51 H6         53.7801   -2.9539   10.6437 H         1 IBI         0.0868
     52 H7         54.6305   -1.0287    9.3625 H         1 IBI         0.0868
     53 H8         54.8407   -0.7409   11.1231 H         1 IBI         0.0868
     54 H9         48.5020   -4.6740    7.9093 H         1 IBI         0.0289
     55 H10        48.8664   -5.0929    9.6177 H         1 IBI         0.0289
     56 H11        49.3032   -2.7341    9.2568 H         1 IBI         0.0320
     57 H12        50.3384   -3.0970    7.8344 H         1 IBI         0.0320
     58 H13        50.8605   -6.2709   10.2018 H         1 IBI         0.0289
     59 H14        52.0175   -6.8250    8.9444 H         1 IBI         0.0289
     60 H15        52.6606   -4.5094    8.4550 H         1 IBI         0.0320
     61 H16        52.8670   -4.8556   10.2055 H         1 IBI         0.0320
     62 H17        47.0463   -8.5480    8.6188 H         1 IBI         0.0548
     63 H18        49.2664  -10.2083    5.3565 H         1 IBI         0.0553
     64 H19        41.7096  -12.2065   12.4860 H         1 IBI         0.0806
     65 H20        42.6801  -14.1611   13.9848 H         1 IBI         0.0310
     66 H21        43.6157  -12.6277   13.9794 H         1 IBI         0.0310
     67 H22        45.1222  -14.5994   13.8599 H         1 IBI         0.0232
     68 H23        45.2318  -13.6195   12.3585 H         1 IBI         0.0232
     69 H24        44.2962  -15.1529   12.3639 H         1 IBI         0.0232
     70 H25        44.0600  -11.3226   12.8701 H         1 IBI         0.0553
     71 H26        45.7280   -9.8901   11.7565 H         1 IBI         0.0252
     72 H27        45.3622  -10.7170   10.2044 H         1 IBI         0.0252
     73 H28        46.0435  -11.6496   11.5801 H         1 IBI         0.0252
     74 H29        42.0379  -10.1514   12.0466 H         1 IBI         0.0252
     75 H30        42.9810   -9.5743   10.6310 H         1 IBI         0.0252
     76 H31        43.4542   -9.0737   12.2900 H         1 IBI         0.0252
     77 H32        41.8315  -16.5805    9.3486 H         1 IBI         0.0544
     78 H33        40.3601  -15.9999   10.1998 H         1 IBI         0.0544
     79 H34        41.6278  -16.8940   11.1055 H         1 IBI         0.0544
     80 H35        48.9691  -13.7124    4.0538 H         1 IBI         0.0573
     81 H36        49.8571  -13.0128    5.4497 H         1 IBI         0.0573
     82 H37        49.4180  -11.9731    4.0522 H         1 IBI         0.0573
     83 H38        46.1715  -13.3942    6.2471 H         1 IBI         0.2125
     84 H39        42.9851  -15.9667    8.3478 H         1 IBI         0.0703
     85 H40        45.6279  -10.5687    8.6951 H         1 IBI         0.0514
     86 H41        48.9877   -7.5030    8.9094 H         1 IBI         0.1844
     87 H42        50.6590   -5.6927    7.1997 H         1 IBI         0.0555
     88 H43        50.9577   -3.5211   10.7959 H         1 IBI         0.0851
     89 H44        52.5578   -2.2813    8.6956 H         1 IBI         0.2040
     90 H45        52.9547    0.6268   11.0935 H         1 IBI         0.2038
     91 H46        54.2817    1.6921    8.7871 H         1 IBI         0.0817
     92 H47        55.2537    1.3359   10.2551 H         1 IBI         0.0817
     93 H48        53.7405    2.7937   11.5905 H         1 IBI         0.0352
     94 H49        54.7831    4.4173    9.1096 H         1 IBI         0.0270
     95 H50        54.1987    5.1437   10.6451 H         1 IBI         0.0270
     96 H51        51.8553    4.1217   10.2367 H         1 IBI         0.0270
     97 H52        52.4396    3.3953    8.7013 H         1 IBI         0.0270
@<TRIPOS>BOND
     1    1    2 1  
     2   40    1 1  
     3    2   41 1  
     4    3    4 1  
     5   40    3 1  
     6    4   41 1  
     7    6    5 1  
     8    5   38 1  
     9   39    6 1  
    10    8    7 1  
    11    7   38 1  
    12   39    8 1  
    13   11    9 ar 
    14    9   36 ar 
    15   12   10 ar 
    16   10   25 1  
    17   10   26 ar 
    18   11   12 ar 
    19   23   11 1  
    20   13   16 1  
    21   31   13 1  
    22   13   34 1  
    23   15   14 1  
    24   14   21 1  
    25   14   34 am 
    26   30   15 ar 
    27   33   15 ar 
    28   16   17 1  
    29   18   19 1  
    30   18   20 1  
    31   31   18 1  
    32   25   22 1  
    33   23   24 2  
    34   37   23 am 
    35   26   27 1  
    36   36   26 ar 
    37   27   28 1  
    38   28   29 ar 
    39   28   32 ar 
    40   29   30 ar 
    41   30   31 1  
    42   32   33 ar 
    43   34   35 2  
    44   38   37 1  
    45   39   40 1  
    46   41   42 1  
    47   42   43 1  
    48   43   44 1  
    49   43   45 1  
    50   44   45 1  
    51    1   46 1  
    52    1   47 1  
    53    2   48 1  
    54    2   49 1  
    55    3   50 1  
    56    3   51 1  
    57    4   52 1  
    58    4   53 1  
    59    5   54 1  
    60    5   55 1  
    61    6   56 1  
    62    6   57 1  
    63    7   58 1  
    64    7   59 1  
    65    8   60 1  
    66    8   61 1  
    67    9   62 1  
    68   12   63 1  
    69   13   64 1  
    70   16   65 1  
    71   16   66 1  
    72   17   67 1  
    73   17   68 1  
    74   17   69 1  
    75   18   70 1  
    76   19   71 1  
    77   19   72 1  
    78   19   73 1  
    79   20   74 1  
    80   20   75 1  
    81   20   76 1  
    82   21   77 1  
    83   21   78 1  
    84   21   79 1  
    85   22   80 1  
    86   22   81 1  
    87   22   82 1  
    88   27   83 1  
    89   33   84 1  
    90   36   85 1  
    91   37   86 1  
    92   38   87 1  
    93   39   88 1  
    94   40   89 1  
    95   41   90 1  
    96   42   91 1  
    97   42   92 1  
    98   43   93 1  
    99   44   94 1  
   100   44   95 1  
   101   45   96 1  
   102   45   97 1  
@<TRIPOS>SUBSTRUCTURE
     1 IBI         1

