### 
### Created by X-TOOL on Mon Sep 10 21:13:00 2018
### 

@<TRIPOS>MOLECULE
3fc8_ligand
   39    40     1     0     0
SMALL
GAST_HUCK


@<TRIPOS>ATOM
      1 FAF        21.2200   -2.3560   -7.9650 F         1 IFA        -0.1854
      2 CAT        21.1810   -1.1600   -8.5630 C.ar      1 IFA         0.1351
      3 CAJ        21.2000   -1.1490   -9.9590 C.ar      1 IFA         0.0030
      4 CAS        21.1510    0.0470  -10.6530 C.ar      1 IFA         0.1280
      5 FAE        21.1690    0.0430  -12.0020 F         1 IFA        -0.1865
      6 CAH        21.0970    1.2400   -9.9270 C.ar      1 IFA        -0.0347
      7 CAI        21.0980    1.2210   -8.5210 C.ar      1 IFA        -0.0615
      8 CAY        21.1210    0.0130   -7.7990 C.ar      1 IFA         0.0077
      9 CAW        21.1330   -0.0300   -6.3630 C.2       1 IFA         0.0001
     10 CAL        20.1650    0.6540   -5.6100 C.2       1 IFA        -0.0078
     11 CAK        22.0610   -0.7330   -5.5650 C.2       1 IFA        -0.0378
     12 CAU        22.1000   -0.7980   -4.1120 C.2       1 IFA         0.0540
     13 IAG        23.6320   -1.9410   -3.2100 I         1 IFA        -0.0577
     14 CAV        21.2140   -0.0970   -3.1990 C.2       1 IFA         0.1468
     15 OAD        21.0660   -0.0590   -1.9720 O.2       1 IFA        -0.4027
     16 CAX        20.1730    0.6250   -4.1500 C.3       1 IFA         0.1580
     17 CAR        18.9600    1.4680   -3.6130 C.2       1 IFA         0.2157
     18 OAC        18.0810    2.0320   -4.3060 O.2       1 IFA        -0.3872
     19 NAO        18.8540    1.5080   -2.2750 N.am      1 IFA        -0.2794
     20 CAM        17.8470    2.1350   -1.4090 C.3       1 IFA         0.0493
     21 CAN        16.6480    1.1860   -1.4740 C.3       1 IFA         0.0688
     22 CAQ        15.9400    0.9830   -0.1530 C.2       1 IFA         0.2354
     23 OAB        16.0840    1.7740    0.7700 O.2       1 IFA        -0.3703
     24 OAP        15.0680   -0.1700    0.0360 O.3       1 IFA        -0.2801
     25 CAA        13.9880   -0.1250    0.9740 C.3       1 IFA         0.0658
     26 H1         21.2536   -2.0848  -10.5034 H         1 IFA         0.0582
     27 H2         21.0540    2.1874  -10.4519 H         1 IFA         0.0564
     28 H3         21.0806    2.1600   -7.9797 H         1 IFA         0.0573
     29 H4         19.3906    1.2190   -6.1267 H         1 IFA         0.0959
     30 H5         22.8332   -1.2881   -6.0955 H         1 IFA         0.0786
     31 H6         19.5796   -0.3012   -4.1466 H         1 IFA         0.1014
     32 H7         19.5837    1.0304   -1.7857 H         1 IFA         0.1858
     33 H8         17.5755    3.1321   -1.7859 H         1 IFA         0.0546
     34 H9         18.2197    2.2218   -0.3777 H         1 IFA         0.0546
     35 H10        17.0029    0.2069   -1.8282 H         1 IFA         0.0538
     36 H11        15.9235    1.5956   -2.1933 H         1 IFA         0.0538
     37 H12        13.4553   -1.0874    0.9662 H         1 IFA         0.0577
     38 H13        13.2933    0.6809    0.6949 H         1 IFA         0.0577
     39 H14        14.3853    0.0659    1.9818 H         1 IFA         0.0577
@<TRIPOS>BOND
     1    1    2 1  
     2    2    3 ar 
     3    2    8 ar 
     4    3    4 ar 
     5    4    5 1  
     6    4    6 ar 
     7    6    7 ar 
     8    7    8 ar 
     9    8    9 1  
    10    9   10 2  
    11    9   11 1  
    12   10   16 1  
    13   11   12 2  
    14   12   13 1  
    15   12   14 1  
    16   14   15 2  
    17   14   16 1  
    18   16   17 1  
    19   17   18 2  
    20   17   19 am 
    21   19   20 1  
    22   20   21 1  
    23   21   22 1  
    24   22   23 2  
    25   22   24 1  
    26   24   25 1  
    27    3   26 1  
    28    6   27 1  
    29    7   28 1  
    30   10   29 1  
    31   11   30 1  
    32   16   31 1  
    33   19   32 1  
    34   20   33 1  
    35   20   34 1  
    36   21   35 1  
    37   21   36 1  
    38   25   37 1  
    39   25   38 1  
    40   25   39 1  
@<TRIPOS>SUBSTRUCTURE
     1 IFA         1

