### 
### Created by X-TOOL on Mon Sep 10 21:13:00 2018
### 

@<TRIPOS>MOLECULE
3fcb_ligand
   35    36     1     0     0
SMALL
GAST_HUCK


@<TRIPOS>ATOM
      1 OAP        16.3770    0.2720   -0.7450 O.co2     1 IFB        -0.5689
      2 CAQ        17.4320    0.8580   -0.7780 C.2       1 IFB         0.0367
      3 OAB        18.4700    0.3830   -0.2400 O.co2     1 IFB        -0.5689
      4 CAN        17.4810    2.2040   -1.4870 C.3       1 IFB         0.0203
      5 CAM        18.9310    2.8220   -1.5200 C.3       1 IFB         0.0415
      6 NAO        19.7910    2.0010   -2.4780 N.am      1 IFB        -0.2863
      7 CAR        19.5820    1.7910   -3.7280 C.2       1 IFB         0.2002
      8 OAC        18.5460    2.2610   -4.3020 O.2       1 IFB        -0.3906
      9 CAX        20.6030    0.8770   -4.4770 C.ar      1 IFB         0.0816
     10 CAL        20.6340    0.8310   -5.8650 C.ar      1 IFB        -0.0406
     11 CAV        21.5150    0.0320   -3.7360 C.ar      1 IFB         0.1209
     12 OAD        21.5190    0.0280   -2.4160 O.3       1 IFB        -0.3252
     13 CAU        22.4340   -0.8160   -4.4080 C.ar      1 IFB         0.0440
     14 IAG        23.8320   -2.0950   -3.3050 I         1 IFB        -0.0552
     15 CAK        22.4100   -0.7950   -5.8090 C.ar      1 IFB        -0.0479
     16 CAW        21.5210    0.0160   -6.5650 C.ar      1 IFB        -0.0214
     17 CAY        21.5220    0.0140   -7.9980 C.ar      1 IFB         0.0078
     18 CAT        21.5410   -1.2220   -8.7620 C.ar      1 IFB         0.1374
     19 FAF        21.5790   -2.4000   -8.1890 F         1 IFB        -0.1838
     20 CAI        21.4980    1.2600   -8.7230 C.ar      1 IFB        -0.0593
     21 CAH        21.4900    1.2630  -10.1160 C.ar      1 IFB        -0.0327
     22 CAS        21.5220    0.0140  -10.8160 C.ar      1 IFB         0.1299
     23 FAE        21.5240    0.0040  -12.1690 F         1 IFB        -0.1850
     24 CAJ        21.5470   -1.2240  -10.1360 C.ar      1 IFB         0.0050
     25 H1         16.8126    2.9026   -0.9624 H         1 IFB         0.0450
     26 H2         17.1321    2.0697   -2.5215 H         1 IFB         0.0450
     27 H3         19.3691    2.7925   -0.5114 H         1 IFB         0.0537
     28 H4         18.8814    3.8644   -1.8679 H         1 IFB         0.0537
     29 H5         20.6096    1.5790   -2.0883 H         1 IFB         0.1842
     30 H6         19.9430    1.4518   -6.4238 H         1 IFB         0.0662
     31 H7         22.1773   -0.5819   -2.1043 H         1 IFB         0.2524
     32 H8         23.1061   -1.4307   -6.3441 H         1 IFB         0.0655
     33 H9         21.4861    2.1990   -8.1815 H         1 IFB         0.0591
     34 H10        21.4599    2.1984  -10.6630 H         1 IFB         0.0569
     35 H11        21.5705   -2.1571  -10.6873 H         1 IFB         0.0587
@<TRIPOS>BOND
     1    1    2 ar 
     2    2    3 ar 
     3    2    4 1  
     4    4    5 1  
     5    5    6 1  
     6    6    7 am 
     7    7    8 2  
     8    7    9 1  
     9    9   10 ar 
    10    9   11 ar 
    11   10   16 ar 
    12   11   12 1  
    13   11   13 ar 
    14   13   14 1  
    15   13   15 ar 
    16   15   16 ar 
    17   16   17 1  
    18   17   18 ar 
    19   17   20 ar 
    20   18   19 1  
    21   18   24 ar 
    22   20   21 ar 
    23   21   22 ar 
    24   22   23 1  
    25   22   24 ar 
    26    4   25 1  
    27    4   26 1  
    28    5   27 1  
    29    5   28 1  
    30    6   29 1  
    31   10   30 1  
    32   12   31 1  
    33   15   32 1  
    34   20   33 1  
    35   21   34 1  
    36   24   35 1  
@<TRIPOS>SUBSTRUCTURE
     1 IFB         1

