### 
### Created by X-TOOL on Mon Sep 10 21:13:00 2018
### 

@<TRIPOS>MOLECULE
3fcf_ligand
   38    39     1     0     0
SMALL
GAST_HUCK


@<TRIPOS>ATOM
      1 O40       -11.8940   -7.5360   -1.4420 O.co2     1 FCF        -0.5606
      2 C38       -12.4150   -7.3750   -2.7660 C.2       1 FCF         0.0627
      3 O39       -12.6310   -8.3610   -3.5070 O.co2     1 FCF        -0.5606
      4 C5        -12.7200   -5.9920   -3.2720 C.ar      1 FCF         0.0093
      5 C6        -13.0780   -5.7900   -4.6080 C.ar      1 FCF        -0.0490
      6 C1        -13.3650   -4.5070   -5.0760 C.ar      1 FCF        -0.0593
      7 C4        -12.6520   -4.9010   -2.4020 C.ar      1 FCF        -0.0411
      8 C3        -12.9360   -3.6160   -2.8660 C.ar      1 FCF        -0.0087
      9 C2        -13.2930   -3.4220   -4.2040 C.ar      1 FCF        -0.0529
     10 C17       -12.8570   -2.4720   -1.9260 C.2       1 FCF         0.0459
     11 N18       -13.2000   -1.3080   -2.2730 N.2       1 FCF        -0.1494
     12 O21       -13.1210   -0.2820   -1.3880 O.3       1 FCF        -0.2296
     13 C22       -13.4680    1.0450   -1.7900 C.3       1 FCF         0.1277
     14 C23       -14.9770    1.2460   -1.6660 C.3       1 FCF         0.1351
     15 O27       -15.3010    1.9220   -0.4470 O.3       1 FCF        -0.2046
     16 N31       -15.1160    1.3030    0.7470 N.2       1 FCF        -0.1048
     17 C30       -15.8180    1.5900    1.7550 C.2       1 FCF         0.0988
     18 C16       -15.5660    0.8790    3.0270 C.2       1 FCF         0.0769
     19 N11       -14.9970   -0.3370    2.9960 N.2       1 FCF        -0.2469
     20 C15       -15.9080    1.4510    4.2490 C.3       1 FCF         0.1053
     21 C14       -15.6410    0.7250    5.4090 C.2       1 FCF         0.2238
     22 O33       -15.9250    1.1920    6.5320 O.2       1 FCF        -0.3831
     23 N13       -15.0700   -0.4870    5.3190 N.am      1 FCF        -0.1921
     24 C12       -14.7480   -1.0130    4.1270 C.2       1 FCF         0.2627
     25 O34       -14.2130   -2.1410    4.0700 O.2       1 FCF        -0.3797
     26 H1        -13.1330   -6.6351   -5.2847 H         1 FCF         0.0638
     27 H2        -13.6426   -4.3549   -6.1128 H         1 FCF         0.0620
     28 H3        -12.3780   -5.0530   -1.3643 H         1 FCF         0.0646
     29 H4        -13.5146   -2.4240   -4.5644 H         1 FCF         0.0631
     30 H5        -12.4947   -2.6400   -0.9129 H         1 FCF         0.0776
     31 H6        -13.1637    1.2011   -2.8355 H         1 FCF         0.0683
     32 H7        -12.9491    1.7693   -1.1450 H         1 FCF         0.0683
     33 H8        -15.4737    0.2646   -1.6771 H         1 FCF         0.0700
     34 H9        -15.3320    1.8463   -2.5166 H         1 FCF         0.0700
     35 H10       -16.5966    2.3486    1.6896 H         1 FCF         0.0865
     36 H11       -16.9903    1.6464    4.2273 H         1 FCF         0.0772
     37 H12       -15.3648    2.4043    4.3275 H         1 FCF         0.0772
     38 H13       -14.8818   -1.0057    6.1530 H         1 FCF         0.2260
@<TRIPOS>BOND
     1    1    2 ar 
     2    2    3 ar 
     3    2    4 1  
     4    4    5 ar 
     5    4    7 ar 
     6    5    6 ar 
     7    6    9 ar 
     8    7    8 ar 
     9    8    9 ar 
    10    8   10 1  
    11   10   11 2  
    12   11   12 1  
    13   12   13 1  
    14   13   14 1  
    15   14   15 1  
    16   15   16 1  
    17   16   17 2  
    18   17   18 1  
    19   18   19 2  
    20   18   20 1  
    21   19   24 1  
    22   20   21 1  
    23   21   22 2  
    24   21   23 am 
    25   23   24 am 
    26   24   25 2  
    27    5   26 1  
    28    6   27 1  
    29    7   28 1  
    30    9   29 1  
    31   10   30 1  
    32   13   31 1  
    33   13   32 1  
    34   14   33 1  
    35   14   34 1  
    36   17   35 1  
    37   20   36 1  
    38   20   37 1  
    39   23   38 1  
@<TRIPOS>SUBSTRUCTURE
     1 FCF         1

