### 
### Created by X-TOOL on Mon Sep 10 21:13:00 2018
### 

@<TRIPOS>MOLECULE
3fci_ligand
   43    44     1     0     0
SMALL
GAST_HUCK


@<TRIPOS>ATOM
      1 C1        -12.9750   -4.8020   -5.5910 C.ar      1 3FI        -0.0593
      2 C2        -13.0810   -3.6930   -4.7500 C.ar      1 3FI        -0.0529
      3 C3        -12.8910   -3.8110   -3.3720 C.ar      1 3FI        -0.0087
      4 C4        -12.5960   -5.0200   -2.7450 C.ar      1 3FI        -0.0411
      5 C5        -12.4980   -6.1530   -3.6160 C.ar      1 3FI         0.0093
      6 C6        -12.6850   -6.0430   -5.0170 C.ar      1 3FI        -0.0490
      7 O40       -11.6310   -7.7600   -2.0980 O.co2     1 3FI        -0.5606
      8 C38       -12.1950   -7.5490   -3.1390 C.2       1 3FI         0.0627
      9 O39       -12.6360   -8.5580   -4.0020 O.co2     1 3FI        -0.5606
     10 C9        -13.0600   -2.4860   -2.6670 C.2       1 3FI         0.0459
     11 N18       -12.5520   -1.2670   -2.5120 N.2       1 3FI        -0.1495
     12 O1        -13.0850   -0.2560   -1.7000 O.3       1 3FI        -0.2325
     13 C22       -13.2500    0.9440   -2.4090 C.3       1 3FI         0.1002
     14 C23       -12.9030    2.0730   -1.4860 C.3       1 3FI         0.0185
     15 C8        -14.1910    2.5380   -0.7730 C.3       1 3FI        -0.0284
     16 N31       -14.3870    1.8700    0.5110 N.4       1 3FI         0.2493
     17 C30       -15.7080    1.7780    1.1730 C.3       1 3FI         0.0383
     18 C16       -15.5710    1.0750    2.5440 C.2       1 3FI         0.1013
     19 N11       -15.8920    1.6000    3.7940 N.2       1 3FI        -0.2458
     20 C15       -15.0350   -0.2150    2.3200 C.3       1 3FI         0.1173
     21 C14       -14.8680   -0.8860    3.5140 C.2       1 3FI         0.2274
     22 O33       -14.3750   -2.0980    3.4240 O.2       1 3FI        -0.3825
     23 N13       -15.1600   -0.4790    4.7470 N.am      1 3FI        -0.1926
     24 C12       -15.6740    0.7900    4.8990 C.2       1 3FI         0.2574
     25 O34       -15.9190    1.1780    6.0550 O.2       1 3FI        -0.3828
     26 H1        -13.1140   -4.7033   -6.6615 H         1 3FI         0.0620
     27 H2        -13.3149   -2.7233   -5.1743 H         1 3FI         0.0631
     28 H3        -12.4509   -5.0976   -1.6736 H         1 3FI         0.0646
     29 H4        -12.6029   -6.9232   -5.6444 H         1 3FI         0.0638
     30 H5        -13.9465   -2.5569   -2.0385 H         1 3FI         0.0776
     31 H6        -14.2936    1.0409   -2.7428 H         1 3FI         0.0654
     32 H7        -12.5826    0.9569   -3.2833 H         1 3FI         0.0654
     33 H8        -12.4773    2.9067   -2.0636 H         1 3FI         0.0345
     34 H9        -12.1696    1.7309   -0.7409 H         1 3FI         0.0345
     35 H10       -15.0526    2.3187   -1.4207 H         1 3FI         0.0815
     36 H11       -14.1281    3.6227   -0.6012 H         1 3FI         0.0815
     37 H12       -13.7797    2.3389    1.1647 H         1 3FI         0.2041
     38 H13       -14.0731    0.9208    0.3822 H         1 3FI         0.2041
     39 H14       -16.3943    1.2009    0.5358 H         1 3FI         0.1136
     40 H15       -16.1107    2.7906    1.3227 H         1 3FI         0.1136
     41 H16       -14.0600   -0.1194    1.8197 H         1 3FI         0.0817
     42 H17       -15.7222   -0.7855    1.6779 H         1 3FI         0.0817
     43 H18       -15.0113   -1.0744    5.5366 H         1 3FI         0.2261
@<TRIPOS>BOND
     1    1    2 ar 
     2    1    6 ar 
     3    2    3 ar 
     4    3    4 ar 
     5    3   10 1  
     6    4    5 ar 
     7    5    6 ar 
     8    5    8 1  
     9    8    7 ar 
    10    8    9 ar 
    11   10   11 2  
    12   11   12 1  
    13   12   13 1  
    14   13   14 1  
    15   14   15 1  
    16   15   16 1  
    17   16   17 1  
    18   17   18 1  
    19   18   19 2  
    20   18   20 1  
    21   19   24 1  
    22   20   21 1  
    23   21   22 2  
    24   21   23 am 
    25   23   24 am 
    26   24   25 2  
    27    1   26 1  
    28    2   27 1  
    29    4   28 1  
    30    6   29 1  
    31   10   30 1  
    32   13   31 1  
    33   13   32 1  
    34   14   33 1  
    35   14   34 1  
    36   15   35 1  
    37   15   36 1  
    38   16   37 1  
    39   16   38 1  
    40   17   39 1  
    41   17   40 1  
    42   20   41 1  
    43   20   42 1  
    44   23   43 1  
@<TRIPOS>SUBSTRUCTURE
     1 3FI         1

