### 
### Created by X-TOOL on Mon Sep 10 21:13:00 2018
### 

@<TRIPOS>MOLECULE
3fck_ligand
   43    44     1     0     0
SMALL
GAST_HUCK


@<TRIPOS>ATOM
      1 C1        -18.0920   -2.4200    9.2670 C.ar      1 FCK        -0.0648
      2 C2        -17.3120   -1.7000    8.3680 C.ar      1 FCK        -0.0527
      3 C3        -17.4500   -1.8990    6.9970 C.ar      1 FCK         0.0048
      4 C4        -18.3790   -2.8250    6.5370 C.ar      1 FCK        -0.0412
      5 C5        -19.1630   -3.5500    7.4280 C.ar      1 FCK         0.0036
      6 C6        -19.0170   -3.3450    8.7980 C.ar      1 FCK        -0.0545
      7 C7        -16.8390    0.3650    4.0530 C.3       1 FCK        -0.0295
      8 O39       -20.2450   -4.7070    5.7370 O.co2     1 FCK        -0.5607
      9 C38       -20.1320   -4.5210    6.9090 C.2       1 FCK         0.0613
     10 O40       -20.8660   -5.1690    7.8290 O.co2     1 FCK        -0.5607
     11 C17       -16.6190   -1.1330    6.0060 C.3       1 FCK         0.0007
     12 N18       -17.4370   -0.1610    5.2810 N.4       1 FCK         0.2392
     13 C22       -17.0630   -0.5600    2.8500 C.3       1 FCK         0.0200
     14 C23       -16.4860    0.0100    1.5520 C.3       1 FCK         0.1091
     15 O27       -16.7490   -0.8900    0.5000 O.3       1 FCK        -0.2073
     16 N31       -15.8620   -0.8430   -0.7620 N.2       1 FCK        -0.1049
     17 C30       -16.4230   -1.0440   -1.8730 C.2       1 FCK         0.0988
     18 C16       -15.8400   -0.5190   -3.1330 C.2       1 FCK         0.0769
     19 N11       -15.1420    0.6320   -3.1460 N.2       1 FCK        -0.2469
     20 C15       -16.0230   -1.2210   -4.3230 C.3       1 FCK         0.1053
     21 C14       -15.4740   -0.7110   -5.4960 C.2       1 FCK         0.2238
     22 O33       -15.6180   -1.3140   -6.5800 O.2       1 FCK        -0.3831
     23 N13       -14.7850    0.4380   -5.4550 N.am      1 FCK        -0.1921
     24 C12       -14.6210    1.0980   -4.2980 C.2       1 FCK         0.2627
     25 O34       -13.9740    2.1640   -4.3060 O.2       1 FCK        -0.3797
     26 H1        -17.9783   -2.2596   10.3330 H         1 FCK         0.0606
     27 H2        -16.5918   -0.9790    8.7375 H         1 FCK         0.0580
     28 H3        -18.4938   -2.9840    5.4709 H         1 FCK         0.0591
     29 H4        -19.6247   -3.9068    9.4981 H         1 FCK         0.0593
     30 H5        -15.7568    0.4842    4.2101 H         1 FCK         0.0815
     31 H6        -17.2878    1.3450    3.8333 H         1 FCK         0.0815
     32 H7        -16.1749   -1.8375    5.2873 H         1 FCK         0.0980
     33 H8        -15.8183   -0.6019    6.5414 H         1 FCK         0.0980
     34 H9        -18.3079   -0.6064    5.0377 H         1 FCK         0.2028
     35 H10       -17.6176    0.6158    5.8974 H         1 FCK         0.2028
     36 H11       -18.1446   -0.7104    2.7182 H         1 FCK         0.0346
     37 H12       -16.5805   -1.5271    3.0548 H         1 FCK         0.0346
     38 H13       -15.3996    0.1450    1.6591 H         1 FCK         0.0672
     39 H14       -16.9563    0.9801    1.3338 H         1 FCK         0.0672
     40 H15       -17.3511   -1.6125   -1.9088 H         1 FCK         0.0865
     41 H16       -17.1078   -1.3055   -4.4844 H         1 FCK         0.0772
     42 H17       -15.5950   -2.2235   -4.1755 H         1 FCK         0.0772
     43 H18       -14.3889    0.8074   -6.2956 H         1 FCK         0.2260
@<TRIPOS>BOND
     1    2    1 ar 
     2    1    6 ar 
     3    3    2 ar 
     4    3    4 ar 
     5   11    3 1  
     6    4    5 ar 
     7    5    6 ar 
     8    5    9 1  
     9   12    7 1  
    10    7   13 1  
    11    9    8 ar 
    12    9   10 ar 
    13   11   12 1  
    14   13   14 1  
    15   14   15 1  
    16   15   16 1  
    17   16   17 2  
    18   17   18 1  
    19   18   19 2  
    20   18   20 1  
    21   19   24 1  
    22   20   21 1  
    23   21   22 2  
    24   21   23 am 
    25   23   24 am 
    26   24   25 2  
    27    1   26 1  
    28    2   27 1  
    29    4   28 1  
    30    6   29 1  
    31    7   30 1  
    32    7   31 1  
    33   11   32 1  
    34   11   33 1  
    35   12   34 1  
    36   12   35 1  
    37   13   36 1  
    38   13   37 1  
    39   14   38 1  
    40   14   39 1  
    41   17   40 1  
    42   20   41 1  
    43   20   42 1  
    44   23   43 1  
@<TRIPOS>SUBSTRUCTURE
     1 FCK         1

