### 
### Created by X-TOOL on Mon Sep 10 21:13:00 2018
### 

@<TRIPOS>MOLECULE
3fcl_ligand
   48    49     1     0     0
SMALL
GAST_HUCK


@<TRIPOS>ATOM
      1 C8         35.0190    4.6120   19.0000 C.3       1 3FL        -0.0309
      2 C5         40.9530    1.0470   14.9850 C.ar      1 3FL         0.0036
      3 C6         41.5200    2.3120   14.8690 C.ar      1 3FL        -0.0545
      4 C2         39.3140    3.2920   14.8070 C.ar      1 3FL        -0.0527
      5 C4         39.5670    0.8960   15.0060 C.ar      1 3FL        -0.0412
      6 O40        41.8780   -0.8370   16.0430 O.co2     1 3FL        -0.5607
      7 C38        41.8590   -0.1460   15.0620 C.2       1 3FL         0.0613
      8 O39        42.6280   -0.3970   14.0100 O.co2     1 3FL        -0.5607
      9 C1         40.7010    3.4350   14.7830 C.ar      1 3FL        -0.0648
     10 C3         38.7480    2.0250   14.9180 C.ar      1 3FL         0.0048
     11 C17        37.2440    1.8880   14.9510 C.3       1 3FL         0.0007
     12 N18        36.8120    1.6570   16.3170 N.4       1 3FL         0.2391
     13 C7         36.8750    2.7140   17.3040 C.3       1 3FL        -0.0321
     14 C22        36.0250    2.3820   18.5220 C.3       1 3FL        -0.0078
     15 C23        35.9790    3.5420   19.5040 C.3       1 3FL        -0.0077
     16 N31        33.8040    4.6370   19.7300 N.4       1 3FL         0.2493
     17 C30        33.1230    5.8270   19.3690 C.3       1 3FL         0.0383
     18 C16        31.8710    5.4740   18.6000 C.2       1 3FL         0.1013
     19 N11        31.9660    4.8730   17.3990 N.2       1 3FL        -0.2458
     20 C15        30.6260    5.7740   19.1360 C.3       1 3FL         0.1173
     21 C14        29.5030    5.4370   18.3910 C.2       1 3FL         0.2274
     22 O33        28.3620    5.6830   18.8290 O.2       1 3FL        -0.3825
     23 N13        29.6490    4.8340   17.1970 N.am      1 3FL        -0.1926
     24 C12        30.8640    4.5560   16.7020 C.2       1 3FL         0.2574
     25 O34        30.9640    3.9900   15.5920 O.2       1 3FL        -0.3828
     26 H1         34.7913    4.4122   17.9425 H         1 3FL         0.0814
     27 H2         35.5058    5.5942   19.0911 H         1 3FL         0.0814
     28 H3         42.5980    2.4234   14.8456 H         1 3FL         0.0593
     29 H4         38.6772    4.1666   14.7393 H         1 3FL         0.0580
     30 H5         39.1273   -0.0913   15.0901 H         1 3FL         0.0591
     31 H6         41.1421    4.4215   14.6973 H         1 3FL         0.0606
     32 H7         36.9386    1.0396   14.3209 H         1 3FL         0.0980
     33 H8         36.7827    2.8116   14.5713 H         1 3FL         0.0980
     34 H9         37.3738    0.8989   16.6717 H         1 3FL         0.2028
     35 H10        35.8480    1.3666   16.2682 H         1 3FL         0.2028
     36 H11        36.5071    3.6477   16.8536 H         1 3FL         0.0814
     37 H12        37.9199    2.8467   17.6212 H         1 3FL         0.0814
     38 H13        36.4524    1.5032   19.0271 H         1 3FL         0.0319
     39 H14        35.0011    2.1531   18.1914 H         1 3FL         0.0319
     40 H15        35.6363    3.1770   20.4834 H         1 3FL         0.0319
     41 H16        36.9856    3.9739   19.6053 H         1 3FL         0.0319
     42 H17        33.9955    4.6353   20.7196 H         1 3FL         0.2041
     43 H18        33.2431    3.8332   19.4949 H         1 3FL         0.2041
     44 H19        33.7774    6.4481   18.7398 H         1 3FL         0.1136
     45 H20        32.8510    6.3844   20.2774 H         1 3FL         0.1136
     46 H21        30.5942    6.8605   19.3045 H         1 3FL         0.0817
     47 H22        30.5491    5.2509   20.1006 H         1 3FL         0.0817
     48 H23        28.8362    4.5885   16.6688 H         1 3FL         0.2261
@<TRIPOS>BOND
     1   15    1 1  
     2    1   16 1  
     3    2    3 ar 
     4    5    2 ar 
     5    2    7 1  
     6    9    3 ar 
     7    4    9 ar 
     8   10    4 ar 
     9   10    5 ar 
    10    7    6 ar 
    11    7    8 ar 
    12   11   10 1  
    13   12   11 1  
    14   13   12 1  
    15   14   13 1  
    16   14   15 1  
    17   16   17 1  
    18   17   18 1  
    19   18   19 2  
    20   18   20 1  
    21   19   24 1  
    22   20   21 1  
    23   21   22 2  
    24   21   23 am 
    25   23   24 am 
    26   24   25 2  
    27    1   26 1  
    28    1   27 1  
    29    3   28 1  
    30    4   29 1  
    31    5   30 1  
    32    9   31 1  
    33   11   32 1  
    34   11   33 1  
    35   12   34 1  
    36   12   35 1  
    37   13   36 1  
    38   13   37 1  
    39   14   38 1  
    40   14   39 1  
    41   15   40 1  
    42   15   41 1  
    43   16   42 1  
    44   16   43 1  
    45   17   44 1  
    46   17   45 1  
    47   20   46 1  
    48   20   47 1  
    49   23   48 1  
@<TRIPOS>SUBSTRUCTURE
     1 3FL         1

