### 
### Created by X-TOOL on Mon Sep 10 21:13:00 2018
### 

@<TRIPOS>MOLECULE
3fcq_ligand
   23    23     1     0     0
SMALL
GAST_HUCK


@<TRIPOS>ATOM
      1 O12        37.6510   42.4060   -3.3720 O.2       1 M3S        -0.3640
      2 C11        36.7500   42.7090   -2.5950 C.2       1 M3S         0.2533
      3 O1         35.6710   41.9040   -2.5740 O.3       1 M3S        -0.2144
      4 C2         35.7260   40.7140   -3.2690 C.ar      1 M3S         0.1394
      5 C7         35.8100   39.5460   -2.4890 C.ar      1 M3S        -0.0078
      6 C1         35.8360   39.6720   -0.9660 C.3       1 M3S        -0.0317
      7 C6         35.8660   38.3060   -3.1300 C.ar      1 M3S        -0.0652
      8 C5         35.8450   38.2300   -4.5270 C.ar      1 M3S        -0.0752
      9 C4         35.7620   39.3990   -5.3050 C.ar      1 M3S        -0.0620
     10 C3         35.7020   40.6370   -4.6570 C.ar      1 M3S         0.0373
     11 C8         35.6120   41.9300   -5.5630 C.2       1 M3S         0.0573
     12 O10        34.8350   42.8840   -5.1130 O.co2     1 M3S        -0.5642
     13 O9         36.3630   41.8940   -6.6150 O.co2     1 M3S        -0.5642
     14 C13        36.7080   43.9220   -1.7150 C.3       1 M3S         0.0413
     15 H1         35.9033   38.6704   -0.5163 H         1 M3S         0.0370
     16 H2         34.9153   40.1667   -0.6232 H         1 M3S         0.0370
     17 H3         36.7082   40.2695   -0.6623 H         1 M3S         0.0370
     18 H4         35.9261   37.3975   -2.5417 H         1 M3S         0.0549
     19 H5         35.8931   37.2626   -5.0136 H         1 M3S         0.0520
     20 H6         35.7448   39.3414   -6.3873 H         1 M3S         0.0566
     21 H7         37.6443   44.4885   -1.8265 H         1 M3S         0.0485
     22 H8         36.5906   43.6105   -0.6666 H         1 M3S         0.0485
     23 H9         35.8584   44.5571   -2.0062 H         1 M3S         0.0485
@<TRIPOS>BOND
     1    1    2 2  
     2    2    3 1  
     3    2   14 1  
     4    3    4 1  
     5    4    5 ar 
     6    4   10 ar 
     7    5    6 1  
     8    5    7 ar 
     9    7    8 ar 
    10    8    9 ar 
    11    9   10 ar 
    12   10   11 1  
    13   11   12 ar 
    14   11   13 ar 
    15    6   15 1  
    16    6   16 1  
    17    6   17 1  
    18    7   18 1  
    19    8   19 1  
    20    9   20 1  
    21   14   21 1  
    22   14   22 1  
    23   14   23 1  
@<TRIPOS>SUBSTRUCTURE
     1 M3S         1

