### 
### Created by X-TOOL on Mon Sep 10 21:13:02 2018
### 

@<TRIPOS>MOLECULE
3fdn_ligand
   52    54     1     0     0
SMALL
GAST_HUCK


@<TRIPOS>ATOM
      1 CBC        -4.5100  -33.6370   -0.7240 C.3       1 MMH         0.0316
      2 CBB        -4.7860  -33.0070    0.6470 C.2       1 MMH         0.2002
      3 OBD        -4.7230  -33.7300    1.6420 O.2       1 MMH        -0.3852
      4 NBA        -5.0940  -31.6900    0.6170 N.am      1 MMH        -0.2376
      5 CAY        -5.3540  -30.8530    1.6630 C.ar      1 MMH         0.0520
      6 CAZ        -4.8580  -31.0820    2.9500 C.ar      1 MMH        -0.0229
      7 CAX        -6.0930  -29.6840    1.4500 C.ar      1 MMH        -0.0564
      8 CAW        -6.3510  -28.7720    2.4800 C.ar      1 MMH        -0.0883
      9 CAV        -5.8580  -29.0260    3.7790 C.ar      1 MMH        -0.0565
     10 CAS        -5.0880  -30.1800    4.0090 C.ar      1 MMH         0.0508
     11 NAR        -4.6180  -30.5220    5.2280 N.am      1 MMH        -0.2428
     12 CAG        -5.0020  -29.9860    6.3960 C.2       1 MMH         0.2073
     13 OAQ        -5.8310  -29.0880    6.4800 O.2       1 MMH        -0.3932
     14 CAD        -4.4120  -30.6090    7.6810 C.2       1 MMH         0.1000
     15 CAE        -4.5950  -30.1460    8.9740 C.2       1 MMH         0.0956
     16 CAF        -5.3410  -28.8490    9.4530 C.3       1 MMH         0.0053
     17 NAA        -3.9820  -30.9970    9.8110 N.pl3     1 MMH        -0.2013
     18 NAB        -3.4750  -31.9400    9.1770 N.2       1 MMH        -0.1834
     19 CAC        -3.6980  -31.8060    7.8630 C.2       1 MMH         0.1567
     20 NAH        -3.2160  -32.7330    7.0010 N.2       1 MMH        -0.1571
     21 NAI        -2.8380  -32.5500    5.8370 N.2       1 MMH        -0.1951
     22 CAJ        -2.3380  -33.6020    5.1970 C.3       1 MMH         0.0796
     23 CAL        -1.9110  -33.6160    3.8660 C.ar      1 MMH        -0.0333
     24 CAK        -1.9350  -32.4760    3.0520 C.ar      1 MMH        -0.0671
     25 CAP        -1.5170  -32.5520    1.7150 C.ar      1 MMH        -0.0395
     26 CAO        -1.0940  -33.7800    1.1910 C.ar      1 MMH         0.0837
     27 OAT        -0.6940  -33.8470   -0.1130 O.3       1 MMH        -0.3257
     28 CAU        -0.1990  -35.1680   -0.4890 C.3       1 MMH         0.0579
     29 CAN        -1.0800  -34.9170    1.9930 C.ar      1 MMH        -0.0395
     30 CAM        -1.4900  -34.8360    3.3230 C.ar      1 MMH        -0.0671
     31 H1         -4.6041  -32.8691   -1.5060 H         1 MMH         0.0472
     32 H2         -5.2366  -34.4415   -0.9109 H         1 MMH         0.0472
     33 H3         -3.4915  -34.0521   -0.7384 H         1 MMH         0.0472
     34 H4         -5.1368  -31.2750   -0.2918 H         1 MMH         0.2252
     35 H5         -4.2798  -31.9792    3.1392 H         1 MMH         0.0375
     36 H6         -6.4772  -29.4785    0.4574 H         1 MMH         0.0381
     37 H7         -6.9264  -27.8750    2.2817 H         1 MMH         0.0541
     38 H8         -6.0709  -28.3388    4.5899 H         1 MMH         0.0381
     39 H9         -3.9216  -31.2388    5.2629 H         1 MMH         0.2236
     40 H10        -5.2979  -28.7854   10.5503 H         1 MMH         0.0464
     41 H11        -6.3914  -28.8894    9.1291 H         1 MMH         0.0464
     42 H12        -4.8560  -27.9641    9.0151 H         1 MMH         0.0464
     43 H13        -3.9374  -30.8854   10.8340 H         1 MMH         0.2626
     44 H14        -3.1155  -34.3775    5.2608 H         1 MMH         0.0639
     45 H15        -1.4622  -33.9114    5.7863 H         1 MMH         0.0639
     46 H16        -2.2781  -31.5309    3.4571 H         1 MMH         0.0531
     47 H17        -1.5214  -31.6655    1.0912 H         1 MMH         0.0525
     48 H18         0.1064  -35.1580   -1.5457 H         1 MMH         0.0575
     49 H19        -0.9955  -35.9128   -0.3446 H         1 MMH         0.0575
     50 H20         0.6651  -35.4285    0.1399 H         1 MMH         0.0575
     51 H21        -0.7505  -35.8652    1.5839 H         1 MMH         0.0525
     52 H22        -1.4828  -35.7256    3.9424 H         1 MMH         0.0531
@<TRIPOS>BOND
     1    1    2 1  
     2    2    3 2  
     3    2    4 am 
     4    4    5 1  
     5    5    6 ar 
     6    5    7 ar 
     7    6   10 ar 
     8    7    8 ar 
     9    8    9 ar 
    10    9   10 ar 
    11   10   11 1  
    12   11   12 am 
    13   12   13 2  
    14   12   14 1  
    15   14   15 2  
    16   14   19 1  
    17   15   16 1  
    18   15   17 1  
    19   17   18 1  
    20   18   19 2  
    21   19   20 1  
    22   20   21 2  
    23   21   22 1  
    24   22   23 1  
    25   23   24 ar 
    26   23   30 ar 
    27   24   25 ar 
    28   25   26 ar 
    29   26   27 1  
    30   26   29 ar 
    31   27   28 1  
    32   29   30 ar 
    33    1   31 1  
    34    1   32 1  
    35    1   33 1  
    36    4   34 1  
    37    6   35 1  
    38    7   36 1  
    39    8   37 1  
    40    9   38 1  
    41   11   39 1  
    42   16   40 1  
    43   16   41 1  
    44   16   42 1  
    45   17   43 1  
    46   22   44 1  
    47   22   45 1  
    48   24   46 1  
    49   25   47 1  
    50   28   48 1  
    51   28   49 1  
    52   28   50 1  
    53   29   51 1  
    54   30   52 1  
@<TRIPOS>SUBSTRUCTURE
     1 MMH         1

