### 
### Created by X-TOOL on Mon Sep 10 21:12:59 2018
### 

@<TRIPOS>MOLECULE
3fee_ligand
   20    20     1     0     0
SMALL
GAST_HUCK


@<TRIPOS>ATOM
      1 C01        19.0100   41.3910   18.4550 C.2       1 QUS         0.0866
      2 C02        18.0320   42.5190   18.6570 C.3       1 QUS         0.0520
      3 C03        16.6110   42.1340   18.1870 C.3       1 QUS         0.1233
      4 C04        15.5740   40.8810   16.3360 C.2       1 QUS         0.3201
      5 C05        16.4560   41.9860   14.7250 C.2       1 QUS         0.3771
      6 NP3        18.4810   43.7450   17.9610 N.4       1 QUS         0.2342
      7 N14        16.7370   41.4520   16.8880 N.am      1 QUS        -0.0915
      8 N15        15.4830   41.1150   15.0190 N.am      1 QUS        -0.1566
      9 O16        19.8700   41.5150   17.5730 O.co2     1 QUS        -0.5642
     10 O17        18.8550   40.3790   19.1870 O.co2     1 QUS        -0.5642
     11 O18        14.8000   40.2420   17.0130 O.2       1 QUS        -0.3935
     12 O19        16.7640   42.5010   13.6590 O.2       1 QUS        -0.3705
     13 O20        17.2480   42.3420   15.8700 O.3       1 QUS        -0.1145
     14 H1         17.9865   42.7350   19.7346 H         1 QUS         0.1046
     15 H2         15.9952   43.0387   18.0766 H         1 QUS         0.0630
     16 H3         16.1440   41.4598   18.9200 H         1 QUS         0.0630
     17 H4         19.4079   43.9884   18.2735 H         1 QUS         0.2011
     18 H5         17.8471   44.5007   18.1689 H         1 QUS         0.2011
     19 H6         18.4939   43.5812   16.9665 H         1 QUS         0.2011
     20 H7         14.8207   40.7182   14.3834 H         1 QUS         0.2278
@<TRIPOS>BOND
     1    1    2 1  
     2    1    9 ar 
     3    1   10 ar 
     4    2    3 1  
     5    2    6 1  
     6    3    7 1  
     7    7    4 am 
     8    4    8 am 
     9    4   11 2  
    10    8    5 am 
    11    5   12 2  
    12    5   13 1  
    13    7   13 1  
    14    2   14 1  
    15    3   15 1  
    16    3   16 1  
    17    6   17 1  
    18    6   18 1  
    19    6   19 1  
    20    8   20 1  
@<TRIPOS>SUBSTRUCTURE
     1 QUS         1

