### 
### Created by X-TOOL on Mon Sep 10 21:13:01 2018
### 

@<TRIPOS>MOLECULE
3fei_ligand
   50    52     1     0     0
SMALL
GAST_HUCK


@<TRIPOS>ATOM
      1 N1         48.0770   31.0950   35.1900 N.2       1 CTM        -0.3028
      2 C2         48.3560   31.4880   36.4230 C.2       1 CTM         0.1086
      3 S3         47.3110   32.7150   37.0750 S.3       1 CTM        -0.0186
      4 C4         46.9890   31.7680   34.7000 C.2       1 CTM         0.0314
      5 C5         46.4480   32.6790   35.5610 C.2       1 CTM         0.0082
      6 C6         48.4710   38.0940   28.5530 C.2       1 CTM         0.0653
      7 C7         46.3480   35.4980   30.2460 C.ar      1 CTM        -0.0479
      8 C8         46.6050   36.4950   29.1620 C.3       1 CTM         0.0117
      9 C9         49.4190   31.0020   37.2940 C.ar      1 CTM         0.0193
     10 C10        45.4390   35.7820   31.2780 C.ar      1 CTM        -0.0522
     11 C11        47.8950   37.2030   29.6000 C.3       1 CTM         0.1176
     12 C12        45.2200   34.8520   32.2780 C.ar      1 CTM        -0.0383
     13 O13        48.2400   39.2980   28.4940 O.co2     1 CTM        -0.5662
     14 C14        47.0560   34.2920   30.2290 C.ar      1 CTM        -0.0750
     15 C15        49.5380   31.5550   38.5760 C.ar      1 CTM        -0.0464
     16 C16        50.3150   30.0000   36.8960 C.ar      1 CTM        -0.0464
     17 C17        46.3950   31.5680   33.3200 C.3       1 CTM         0.1035
     18 C18        45.9290   33.6560   32.2320 C.ar      1 CTM         0.0798
     19 O19        45.6680   32.7760   33.2350 O.3       1 CTM        -0.3136
     20 O20        49.2860   37.5030   27.6590 O.co2     1 CTM        -0.5662
     21 C21        51.4260   30.1400   39.0380 C.ar      1 CTM         0.0437
     22 C22        46.8460   33.3470   31.2280 C.ar      1 CTM        -0.0464
     23 C23        50.5380   31.1330   39.4460 C.ar      1 CTM        -0.0439
     24 C24        51.3150   29.5760   37.7670 C.ar      1 CTM        -0.0439
     25 CL25       52.6980   29.5990   40.1390 Cl        1 CTM        -0.0675
     26 O26        47.6990   37.9910   30.7720 O.3       1 CTM        -0.3611
     27 C27        44.6710   37.0660   31.3160 C.3       1 CTM        -0.0360
     28 C28        48.9290   38.6250   31.1170 C.3       1 CTM         0.0476
     29 C29        48.6920   39.6220   32.2510 C.3       1 CTM        -0.0414
     30 H1         45.5864   33.3040   35.3310 H         1 CTM         0.0610
     31 H2         45.7736   37.2112   29.0854 H         1 CTM         0.0434
     32 H3         46.7456   35.9916   28.1941 H         1 CTM         0.0434
     33 H4         48.6344   36.4209   29.8271 H         1 CTM         0.0785
     34 H5         44.5143   35.0499   33.0767 H         1 CTM         0.0462
     35 H6         47.7689   34.0935   29.4368 H         1 CTM         0.0511
     36 H7         48.8413   32.3221   38.8941 H         1 CTM         0.0654
     37 H8         50.2293   29.5557   35.9109 H         1 CTM         0.0654
     38 H9         45.7406   30.6851   33.2732 H         1 CTM         0.0751
     39 H10        47.1685   31.4929   32.5415 H         1 CTM         0.0751
     40 H11        47.3774   32.4022   31.2260 H         1 CTM         0.0468
     41 H12        50.6256   31.5729   40.4328 H         1 CTM         0.0631
     42 H13        52.0101   28.8045   37.4562 H         1 CTM         0.0631
     43 H14        44.9588   37.6909   30.4577 H         1 CTM         0.0375
     44 H15        44.8963   37.6005   32.2506 H         1 CTM         0.0375
     45 H16        43.5934   36.8503   31.2676 H         1 CTM         0.0375
     46 H17        49.3256   39.1565   30.2394 H         1 CTM         0.0559
     47 H18        49.6537   37.8647   31.4437 H         1 CTM         0.0559
     48 H19        49.6420   40.1095   32.5151 H         1 CTM         0.0252
     49 H20        48.2958   39.0911   33.1292 H         1 CTM         0.0252
     50 H21        47.9677   40.3829   31.9249 H         1 CTM         0.0252
@<TRIPOS>BOND
     1    1    2 2  
     2    4    1 1  
     3    3    2 1  
     4    2    9 1  
     5    5    3 1  
     6    4    5 2  
     7   17    4 1  
     8   11    6 1  
     9    6   13 ar 
    10    6   20 ar 
    11    7    8 1  
    12   10    7 ar 
    13    7   14 ar 
    14    8   11 1  
    15    9   15 ar 
    16    9   16 ar 
    17   12   10 ar 
    18   10   27 1  
    19   11   26 1  
    20   18   12 ar 
    21   14   22 ar 
    22   15   23 ar 
    23   16   24 ar 
    24   19   17 1  
    25   18   19 1  
    26   18   22 ar 
    27   23   21 ar 
    28   21   24 ar 
    29   21   25 1  
    30   26   28 1  
    31   28   29 1  
    32    5   30 1  
    33    8   31 1  
    34    8   32 1  
    35   11   33 1  
    36   12   34 1  
    37   14   35 1  
    38   15   36 1  
    39   16   37 1  
    40   17   38 1  
    41   17   39 1  
    42   22   40 1  
    43   23   41 1  
    44   24   42 1  
    45   27   43 1  
    46   27   44 1  
    47   27   45 1  
    48   28   46 1  
    49   28   47 1  
    50   29   48 1  
    51   29   49 1  
    52   29   50 1  
@<TRIPOS>SUBSTRUCTURE
     1 CTM         1

