### 
### Created by X-TOOL on Mon Sep 10 21:13:01 2018
### 

@<TRIPOS>MOLECULE
3fej_ligand
   50    52     1     0     0
SMALL
GAST_HUCK


@<TRIPOS>ATOM
      1 N1          6.7330   24.1690   17.1050 N.2       1 CTM        -0.3028
      2 C2          7.0120   24.4000   15.8520 C.2       1 CTM         0.1086
      3 S3          7.6150   26.0030   15.5000 S.3       1 CTM        -0.0186
      4 C4          6.9720   25.2660   17.8680 C.2       1 CTM         0.0314
      5 C5          7.4530   26.3440   17.1970 C.2       1 CTM         0.0082
      6 C6         -1.2690   28.4770   20.0010 C.2       1 CTM         0.0653
      7 C7          2.4520   27.6830   20.4590 C.ar      1 CTM        -0.0479
      8 C8          1.0520   28.1220   20.7880 C.3       1 CTM         0.0117
      9 C9          6.8290   23.4120   14.7980 C.ar      1 CTM         0.0193
     10 C10         3.3860   28.6040   19.9710 C.ar      1 CTM        -0.0522
     11 C11         0.1180   28.0780   19.5730 C.3       1 CTM         0.1176
     12 C12         4.6960   28.2030   19.7420 C.ar      1 CTM        -0.0383
     13 O13        -1.5900   29.7030   19.9690 O.co2     1 CTM        -0.5662
     14 C14         2.8340   26.3560   20.6780 C.ar      1 CTM        -0.0750
     15 C15         7.1460   23.7110   13.4670 C.ar      1 CTM        -0.0464
     16 C16         6.3110   22.1470   15.1080 C.ar      1 CTM        -0.0464
     17 C17         6.7030   25.2430   19.3420 C.3       1 CTM         0.1035
     18 C18         5.0730   26.8850   19.9860 C.ar      1 CTM         0.0798
     19 O19         6.3890   26.5540   19.7850 O.3       1 CTM        -0.3136
     20 O20        -2.0470   27.5760   20.4340 O.co2     1 CTM        -0.5662
     21 C21         6.4030   21.5220   12.7850 C.ar      1 CTM         0.0437
     22 C22         4.1440   25.9470   20.4400 C.ar      1 CTM        -0.0464
     23 C23         6.9340   22.7730   12.4650 C.ar      1 CTM        -0.0439
     24 C24         6.0980   21.2070   14.1100 C.ar      1 CTM        -0.0439
     25 CL25        6.1080   20.3430   11.5180 Cl        1 CTM        -0.0675
     26 O26         0.5940   28.9380   18.5370 O.3       1 CTM        -0.3611
     27 C27         3.0150   30.0380   19.7160 C.3       1 CTM        -0.0360
     28 C28         0.1630   28.5100   17.2480 C.3       1 CTM         0.0476
     29 C29         0.7000   29.4520   16.1700 C.3       1 CTM        -0.0414
     30 H1          7.7042   27.2967   17.6608 H         1 CTM         0.0610
     31 H2          1.0867   29.1536   21.1681 H         1 CTM         0.0434
     32 H3          0.6485   27.4577   21.5664 H         1 CTM         0.0434
     33 H4          0.0877   27.0488   19.1859 H         1 CTM         0.0785
     34 H5          5.4247   28.9159   19.3734 H         1 CTM         0.0462
     35 H6          2.1041   25.6391   21.0362 H         1 CTM         0.0511
     36 H7          7.5597   24.6813   13.2172 H         1 CTM         0.0654
     37 H8          6.0746   21.9009   16.1369 H         1 CTM         0.0654
     38 H9          7.5960   24.8807   19.8723 H         1 CTM         0.0751
     39 H10         5.8559   24.5728   19.5499 H         1 CTM         0.0751
     40 H11         4.4376   24.9166   20.6047 H         1 CTM         0.0468
     41 H12         7.1803   23.0116   11.4367 H         1 CTM         0.0631
     42 H13         5.6961   20.2314   14.3585 H         1 CTM         0.0631
     43 H14         1.9495   30.1874   19.9451 H         1 CTM         0.0375
     44 H15         3.2007   30.2826   18.6597 H         1 CTM         0.0375
     45 H16         3.6231   30.6936   20.3566 H         1 CTM         0.0375
     46 H17        -0.9365   28.5093   17.2145 H         1 CTM         0.0559
     47 H18         0.5363   27.4926   17.0597 H         1 CTM         0.0559
     48 H19         0.3598   29.1098   15.1815 H         1 CTM         0.0252
     49 H20         1.7996   29.4536   16.1990 H         1 CTM         0.0252
     50 H21         0.3269   30.4703   16.3539 H         1 CTM         0.0252
@<TRIPOS>BOND
     1    1    2 2  
     2    4    1 1  
     3    3    2 1  
     4    2    9 1  
     5    5    3 1  
     6    4    5 2  
     7   17    4 1  
     8   11    6 1  
     9    6   13 ar 
    10    6   20 ar 
    11    7    8 1  
    12   10    7 ar 
    13    7   14 ar 
    14    8   11 1  
    15    9   15 ar 
    16    9   16 ar 
    17   12   10 ar 
    18   10   27 1  
    19   11   26 1  
    20   18   12 ar 
    21   14   22 ar 
    22   15   23 ar 
    23   16   24 ar 
    24   19   17 1  
    25   18   19 1  
    26   18   22 ar 
    27   23   21 ar 
    28   21   24 ar 
    29   21   25 1  
    30   26   28 1  
    31   28   29 1  
    32    5   30 1  
    33    8   31 1  
    34    8   32 1  
    35   11   33 1  
    36   12   34 1  
    37   14   35 1  
    38   15   36 1  
    39   16   37 1  
    40   17   38 1  
    41   17   39 1  
    42   22   40 1  
    43   23   41 1  
    44   24   42 1  
    45   27   43 1  
    46   27   44 1  
    47   27   45 1  
    48   28   46 1  
    49   28   47 1  
    50   29   48 1  
    51   29   49 1  
    52   29   50 1  
@<TRIPOS>SUBSTRUCTURE
     1 CTM         1

