### 
### Created by X-TOOL on Mon Sep 10 21:12:59 2018
### 

@<TRIPOS>MOLECULE
3ff3_ligand
   18    17     1     0     0
SMALL
GAST_HUCK


@<TRIPOS>ATOM
      1 N          18.5190   44.0390   18.2280 N.4       1 GLU         0.2328
      2 CA         18.0780   42.6780   18.8070 C.3       1 GLU         0.0298
      3 C          19.1260   41.6470   18.5890 C.2       1 GLU         0.0845
      4 O          19.1020   40.6040   19.2510 O.co2     1 GLU        -0.5643
      5 CB         16.7470   42.2250   18.2460 C.3       1 GLU         0.0139
      6 CG         16.8200   42.1600   16.7150 C.3       1 GLU         0.0069
      7 CD         15.6380   41.4760   16.0340 C.2       1 GLU         0.0351
      8 OE1        14.9140   40.7360   16.7170 O.co2     1 GLU        -0.5690
      9 OE2        15.4510   41.7030   14.7940 O.co2     1 GLU        -0.5690
     10 OXT        19.9510   41.8590   17.6290 O.co2     1 GLU        -0.5643
     11 H1         17.7949   44.7221   18.3866 H         1 GLU         0.2010
     12 H2         18.6820   43.9459   17.2376 H         1 GLU         0.2010
     13 H3         19.3680   44.3379   18.6817 H         1 GLU         0.2010
     14 H4         17.9532   42.8047   19.8925 H         1 GLU         0.1025
     15 H5         15.9641   42.9380   18.5437 H         1 GLU         0.0356
     16 H6         16.5047   41.2278   18.6421 H         1 GLU         0.0356
     17 H7         17.7335   41.6118   16.4413 H         1 GLU         0.0433
     18 H8         16.8823   43.1899   16.3337 H         1 GLU         0.0433
@<TRIPOS>BOND
     1    1    2 1  
     2    2    3 1  
     3    2    5 1  
     4    3    4 ar 
     5    3   10 ar 
     6    5    6 1  
     7    6    7 1  
     8    7    8 ar 
     9    7    9 ar 
    10    1   11 1  
    11    1   12 1  
    12    1   13 1  
    13    2   14 1  
    14    5   15 1  
    15    5   16 1  
    16    6   17 1  
    17    6   18 1  
@<TRIPOS>SUBSTRUCTURE
     1 GLU         1

