### 
### Created by X-TOOL on Mon Sep 10 21:13:01 2018
### 

@<TRIPOS>MOLECULE
3ff6_ligand
   72    77     1     0     0
SMALL
GAST_HUCK


@<TRIPOS>ATOM
      1 C29         8.6880   17.8500   26.0430 C.3       1 RCP         0.0573
      2 C30         9.6030   16.6560   25.9210 C.3       1 RCP         0.0681
      3 O28        10.9300   17.0780   25.6430 O.3       1 RCP        -0.3758
      4 C28        10.9610   17.7800   24.4120 C.3       1 RCP         0.0681
      5 C27        10.3320   19.1160   24.6870 C.3       1 RCP         0.0573
      6 N26         8.9630   18.9020   25.0730 N.am      1 RCP        -0.2684
      7 C26         7.9700   19.4900   24.3190 C.2       1 RCP         0.1868
      8 O26         8.1080   19.9000   23.1750 O.2       1 RCP        -0.3964
      9 C25         6.6600   19.5680   25.0550 C.3       1 RCP         0.0888
     10 C24         6.2320   21.0160   25.2290 C.3       1 RCP        -0.0117
     11 C23         5.6750   18.6960   24.3070 C.3       1 RCP        -0.0234
     12 C22         5.1800   19.3860   23.0750 C.3       1 RCP        -0.0100
     13 C21         4.6210   20.7170   23.4750 C.3       1 RCP        -0.0313
     14 N20         5.7120   21.5880   23.9750 N.4       1 RCP         0.2393
     15 C20         5.2900   23.0170   24.0850 C.3       1 RCP        -0.0170
     16 C19         3.8030   23.1890   24.2910 C.3       1 RCP         0.0107
     17 C18         3.4850   24.6230   24.0010 C.3       1 RCP         0.0381
     18 C17         5.9780   23.7670   25.1970 C.3       1 RCP         0.0107
     19 C16         5.5960   25.2280   25.1160 C.3       1 RCP         0.0381
     20 N15         4.1680   25.4260   24.9670 N.am      1 RCP        -0.2735
     21 C15         3.4330   26.3330   25.6870 C.2       1 RCP         0.2034
     22 O15         2.2230   26.4980   25.6360 O.2       1 RCP        -0.3885
     23 C14         4.2020   27.1700   26.6010 C.ar      1 RCP         0.0597
     24 C1          4.3240   26.7770   27.9240 C.ar      1 RCP        -0.0005
     25 C2          3.7490   25.6200   28.4140 C.ar      1 RCP        -0.0515
     26 C3          3.8960   25.2700   29.7330 C.ar      1 RCP        -0.0597
     27 C4          4.6220   26.0730   30.5750 C.ar      1 RCP        -0.0594
     28 C5          5.1990   27.2240   30.0950 C.ar      1 RCP        -0.0511
     29 C6          5.0500   27.5760   28.7730 C.ar      1 RCP        -0.0094
     30 C7          5.6290   28.7320   28.2980 C.ar      1 RCP        -0.0380
     31 C8          5.4940   29.1050   26.9760 C.ar      1 RCP        -0.0094
     32 C13         4.7750   28.3230   26.1030 C.ar      1 RCP        -0.0005
     33 C12         4.6480   28.7120   24.7830 C.ar      1 RCP        -0.0515
     34 C11         5.2310   29.8750   24.3330 C.ar      1 RCP        -0.0597
     35 C10         5.9490   30.6510   25.2080 C.ar      1 RCP        -0.0594
     36 C9          6.0800   30.2660   26.5240 C.ar      1 RCP        -0.0511
     37 H1          8.8001   18.2713   27.0529 H         1 RCP         0.0545
     38 H2          7.6519   17.5091   25.9008 H         1 RCP         0.0545
     39 H3          9.2492   16.0097   25.1042 H         1 RCP         0.0580
     40 H4          9.5919   16.0924   26.8656 H         1 RCP         0.0580
     41 H5         10.3873   17.2368   23.6467 H         1 RCP         0.0580
     42 H6         11.9986   17.9083   24.0702 H         1 RCP         0.0580
     43 H7         10.3695   19.7380   23.7806 H         1 RCP         0.0545
     44 H8         10.8729   19.6209   25.5009 H         1 RCP         0.0545
     45 H9          6.7921   19.1432   26.0610 H         1 RCP         0.0591
     46 H10         7.1001   21.6068   25.5566 H         1 RCP         0.0843
     47 H11         5.4448   21.0648   25.9957 H         1 RCP         0.0843
     48 H12         4.8206   18.4733   24.9630 H         1 RCP         0.0296
     49 H13         6.1710   17.7573   24.0194 H         1 RCP         0.0296
     50 H14         4.3946   18.7803   22.5994 H         1 RCP         0.0318
     51 H15         6.0113   19.5286   22.3689 H         1 RCP         0.0318
     52 H16         3.8731   20.5757   24.2691 H         1 RCP         0.0814
     53 H17         4.1455   21.1906   22.6035 H         1 RCP         0.0814
     54 H18         6.4599   21.5599   23.2998 H         1 RCP         0.2038
     55 H19         5.5592   23.4998   23.1340 H         1 RCP         0.0852
     56 H20         3.5345   22.9449   25.3294 H         1 RCP         0.0339
     57 H21         3.2479   22.5326   23.6047 H         1 RCP         0.0339
     58 H22         2.4002   24.7885   24.0766 H         1 RCP         0.0523
     59 H23         3.8261   24.8846   22.9885 H         1 RCP         0.0523
     60 H24         7.0681   23.6646   25.0915 H         1 RCP         0.0339
     61 H25         5.6634   23.3570   26.1680 H         1 RCP         0.0339
     62 H26         6.1056   25.6774   24.2509 H         1 RCP         0.0523
     63 H27         5.9264   25.7296   26.0375 H         1 RCP         0.0523
     64 H28         3.1762   24.9825   27.7502 H         1 RCP         0.0620
     65 H29         3.4394   24.3612   30.1082 H         1 RCP         0.0635
     66 H30         4.7404   25.8002   31.6174 H         1 RCP         0.0619
     67 H31         5.7741   27.8575   30.7606 H         1 RCP         0.0639
     68 H32         6.1999   29.3589   28.9733 H         1 RCP         0.0709
     69 H33         4.0830   28.0944   24.0943 H         1 RCP         0.0620
     70 H34         5.1239   30.1751   23.2969 H         1 RCP         0.0635
     71 H35         6.4135   31.5678   24.8632 H         1 RCP         0.0619
     72 H36         6.6495   30.8826   27.2099 H         1 RCP         0.0639
@<TRIPOS>BOND
     1    1    2 1  
     2    1    6 1  
     3    2    3 1  
     4    3    4 1  
     5    4    5 1  
     6    5    6 1  
     7    6    7 am 
     8    7    8 2  
     9    7    9 1  
    10    9   10 1  
    11    9   11 1  
    12   10   14 1  
    13   11   12 1  
    14   12   13 1  
    15   13   14 1  
    16   14   15 1  
    17   15   16 1  
    18   15   18 1  
    19   16   17 1  
    20   17   20 1  
    21   18   19 1  
    22   19   20 1  
    23   20   21 am 
    24   21   22 2  
    25   21   23 1  
    26   23   24 ar 
    27   23   32 ar 
    28   24   25 ar 
    29   24   29 ar 
    30   25   26 ar 
    31   26   27 ar 
    32   27   28 ar 
    33   28   29 ar 
    34   29   30 ar 
    35   30   31 ar 
    36   31   32 ar 
    37   31   36 ar 
    38   32   33 ar 
    39   33   34 ar 
    40   34   35 ar 
    41   35   36 ar 
    42    1   37 1  
    43    1   38 1  
    44    2   39 1  
    45    2   40 1  
    46    4   41 1  
    47    4   42 1  
    48    5   43 1  
    49    5   44 1  
    50    9   45 1  
    51   10   46 1  
    52   10   47 1  
    53   11   48 1  
    54   11   49 1  
    55   12   50 1  
    56   12   51 1  
    57   13   52 1  
    58   13   53 1  
    59   14   54 1  
    60   15   55 1  
    61   16   56 1  
    62   16   57 1  
    63   17   58 1  
    64   17   59 1  
    65   18   60 1  
    66   18   61 1  
    67   19   62 1  
    68   19   63 1  
    69   25   64 1  
    70   26   65 1  
    71   27   66 1  
    72   28   67 1  
    73   30   68 1  
    74   33   69 1  
    75   34   70 1  
    76   35   71 1  
    77   36   72 1  
@<TRIPOS>SUBSTRUCTURE
     1 RCP         1

