### 
### Created by X-TOOL on Mon Sep 10 21:13:01 2018
### 

@<TRIPOS>MOLECULE
3ffg_ligand
   74    80     1     0     0
SMALL
GAST_HUCK


@<TRIPOS>ATOM
      1 C13        36.6140   33.2620   19.7820 C.ar      1 FFG        -0.0353
      2 C18        36.7670   27.7520   14.2930 C.ar      1 FFG         0.1282
      3 C17        36.8410   34.3820   22.1520 C.ar      1 FFG         0.0070
      4 C16        33.5320   28.7330   15.2920 C.2       1 FFG         0.0254
      5 C15        38.6590   28.2940   12.7470 C.ar      1 FFG         0.0167
      6 C19        35.4040   31.4060   17.9210 C.ar      1 FFG         0.0701
      7 C20        34.9070   28.7900   15.4800 C.2       1 FFG         0.2006
      8 C21        33.2850   27.8510   14.2150 C.2       1 FFG         0.1318
      9 C22        39.0680   29.0040   11.5300 C.2       1 FFG         0.1524
     10 C23        35.5640   29.5850   16.4270 C.2       1 FFG         0.2605
     11 C24        38.9780   30.1660    9.7490 C.2       1 FFG         0.3193
     12 C11        35.3750   32.8400   17.6210 C.ar      1 FFG        -0.0398
     13 C12        37.2660   28.4250   13.1240 C.ar      1 FFG        -0.0103
     14 C27        33.4070   30.7870   16.6210 C.3       1 FFG         0.0643
     15 C1         38.9910   36.0160   21.2350 C.ar      1 FFG        -0.0703
     16 C2         38.5640   36.1660   22.6180 C.ar      1 FFG        -0.0702
     17 C3         39.0800   26.8010   14.7210 C.ar      1 FFG        -0.0627
     18 C4         38.3730   35.0780   20.3080 C.ar      1 FFG        -0.0637
     19 C5         36.6350   31.8220   20.0710 C.ar      1 FFG        -0.0678
     20 C6         35.9800   33.7680   18.5530 C.ar      1 FFG        -0.0678
     21 C7         39.5910   27.4790   13.5410 C.ar      1 FFG        -0.0561
     22 C8         37.4750   35.3360   23.0790 C.ar      1 FFG        -0.0564
     23 C9         37.6730   26.9410   15.0880 C.ar      1 FFG        -0.0204
     24 C10        36.0280   30.8860   19.1390 C.ar      1 FFG        -0.0398
     25 C14        37.2610   34.2260   20.7580 C.ar      1 FFG        -0.0197
     26 C25        32.6270   29.5410   16.1960 C.3       1 FFG         0.0080
     27 C26        32.2770   34.3020   22.9970 C.3       1 FFG         0.0185
     28 C28        33.3870   33.5270   23.6680 C.3       1 FFG        -0.0278
     29 C29        34.0580   35.3290   22.1250 C.3       1 FFG        -0.0036
     30 C30        32.7100   34.8070   21.6280 C.3       1 FFG         0.0997
     31 C31        35.7070   33.5390   22.7290 C.3       1 FFG         0.0023
     32 C32        31.9730   27.5320   13.5760 C.3       1 FFG         0.3843
     33 N33        34.4610   27.3890   13.7880 N.2       1 FFG        -0.1364
     34 N34        40.2860   28.9960   10.9840 N.2       1 FFG        -0.1946
     35 N35        35.4420   27.9580   14.5440 N.pl3     1 FFG        -0.1177
     36 N36        38.2450   29.7700   10.7730 N.am      1 FFG        -0.2055
     37 N37        40.2260   29.6870    9.9430 N.am      1 FFG        -0.1724
     38 N38        34.8290   30.5730   17.0010 N.am      1 FFG        -0.2163
     39 N39        34.5210   34.3170   23.1170 N.4       1 FFG         0.2492
     40 O40        36.7510   29.4060   16.7070 O.2       1 FFG        -0.3775
     41 O41        38.5810   30.8410    8.7980 O.2       1 FFG        -0.4039
     42 O42        31.8980   35.9070   21.1980 O.3       1 FFG        -0.3863
     43 F43        31.0540   27.4860   14.5030 F         1 FFG        -0.2218
     44 F44        31.7570   28.4830   12.6760 F         1 FFG        -0.2218
     45 F45        32.0940   26.3880   12.9400 F         1 FFG        -0.2218
     46 H1         34.9065   33.2014   16.7127 H         1 FFG         0.0508
     47 H2         36.5982   29.0319   12.5233 H         1 FFG         0.0609
     48 H3         32.8908   31.2271   17.4869 H         1 FFG         0.0610
     49 H4         33.3871   31.4980   15.7819 H         1 FFG         0.0610
     50 H5         39.8083   36.6320   20.8776 H         1 FFG         0.0555
     51 H6         39.0465   36.8762   23.2797 H         1 FFG         0.0583
     52 H7         39.7416   26.1929   15.3273 H         1 FFG         0.0606
     53 H8         38.7319   35.0076   19.2876 H         1 FFG         0.0584
     54 H9         37.1027   31.4576   20.9785 H         1 FFG         0.0580
     55 H10        35.9663   34.8321   18.3468 H         1 FFG         0.0580
     56 H11        40.6321   27.3863   13.2537 H         1 FFG         0.0584
     57 H12        37.1259   35.4147   24.1022 H         1 FFG         0.0552
     58 H13        37.2986   26.4312   15.9683 H         1 FFG         0.0607
     59 H14        36.0372   29.8213   19.3424 H         1 FFG         0.0508
     60 H15        32.3521   28.9485   17.0811 H         1 FFG         0.0446
     61 H16        31.7161   29.8336   15.6532 H         1 FFG         0.0446
     62 H17        32.0070   35.1617   23.6279 H         1 FFG         0.0344
     63 H18        31.4023   33.6458   22.8775 H         1 FFG         0.0344
     64 H19        33.4153   32.4738   23.3517 H         1 FFG         0.0815
     65 H20        33.3323   33.5790   24.7654 H         1 FFG         0.0815
     66 H21        33.9395   36.3127   22.6027 H         1 FFG         0.0840
     67 H22        34.7724   35.4094   21.2924 H         1 FFG         0.0840
     68 H23        32.7730   34.0277   20.8542 H         1 FFG         0.0649
     69 H24        36.0839   33.0156   23.6200 H         1 FFG         0.0982
     70 H25        35.4041   32.8015   21.9712 H         1 FFG         0.0982
     71 H26        37.2858   29.9888   10.9522 H         1 FFG         0.2315
     72 H27        41.0001   29.8618    9.3345 H         1 FFG         0.2451
     73 H28        34.8446   34.8655   23.8983 H         1 FFG         0.2049
     74 H29        31.0610   35.5798   20.8897 H         1 FFG         0.2100
@<TRIPOS>BOND
     1    1   19 ar 
     2    1   20 ar 
     3   25    1 1  
     4    2   13 ar 
     5    2   23 ar 
     6   35    2 1  
     7    3   22 ar 
     8    3   25 ar 
     9   31    3 1  
    10    7    4 2  
    11    4    8 1  
    12   26    4 1  
    13    5    9 1  
    14   13    5 ar 
    15    5   21 ar 
    16   12    6 ar 
    17   24    6 ar 
    18    6   38 1  
    19   10    7 1  
    20    7   35 1  
    21    8   32 1  
    22    8   33 2  
    23    9   34 2  
    24    9   36 1  
    25   38   10 am 
    26   10   40 2  
    27   36   11 am 
    28   11   37 am 
    29   11   41 2  
    30   20   12 ar 
    31   14   26 1  
    32   38   14 1  
    33   16   15 ar 
    34   18   15 ar 
    35   22   16 ar 
    36   17   21 ar 
    37   23   17 ar 
    38   25   18 ar 
    39   19   24 ar 
    40   28   27 1  
    41   30   27 1  
    42   39   28 1  
    43   29   30 1  
    44   39   29 1  
    45   30   42 1  
    46   31   39 1  
    47   32   43 1  
    48   32   44 1  
    49   32   45 1  
    50   33   35 1  
    51   34   37 1  
    52   12   46 1  
    53   13   47 1  
    54   14   48 1  
    55   14   49 1  
    56   15   50 1  
    57   16   51 1  
    58   17   52 1  
    59   18   53 1  
    60   19   54 1  
    61   20   55 1  
    62   21   56 1  
    63   22   57 1  
    64   23   58 1  
    65   24   59 1  
    66   26   60 1  
    67   26   61 1  
    68   27   62 1  
    69   27   63 1  
    70   28   64 1  
    71   28   65 1  
    72   29   66 1  
    73   29   67 1  
    74   30   68 1  
    75   31   69 1  
    76   31   70 1  
    77   36   71 1  
    78   37   72 1  
    79   39   73 1  
    80   42   74 1  
@<TRIPOS>SUBSTRUCTURE
     1 FFG         1

