### 
### Created by X-TOOL on Mon Sep 10 21:13:00 2018
### 

@<TRIPOS>MOLECULE
3ffp_ligand
   26    28     1     0     0
SMALL
GAST_HUCK


@<TRIPOS>ATOM
      1 CAH        -6.7710    7.5470   12.2030 C.2       1 LC1         0.0406
      2 SAI        -6.6190    8.9580   11.2610 S.3       1 LC1         0.0084
      3 CAR        -4.9260    8.9820   11.2550 C.2       1 LC1         0.0809
      4 NAQ        -4.5390    7.9060   11.9720 N.2       1 LC1        -0.2944
      5 CAP        -5.5250    7.1310   12.4980 C.2       1 LC1         0.0861
      6 CAO        -5.2640    5.9710   13.2600 C.2       1 LC1         0.1386
      7 NAN        -4.0930    5.3330   13.3980 N.pl3     1 LC1        -0.2517
      8 CAM        -4.2800    4.2720   14.1910 C.ar      1 LC1         0.0797
      9 CAL        -3.4370    3.2640   14.6340 C.ar      1 LC1        -0.0387
     10 CAK        -3.9300    2.2460   15.4640 C.ar      1 LC1        -0.0488
     11 CAD        -5.2920    2.1920   15.8220 C.ar      1 LC1         0.0927
     12 SAC        -5.9790    1.0410   16.8710 S.o2      1 LC1         0.0603
     13 OAA        -7.3540    0.9900   16.7300 O.2       1 LC1        -0.1518
     14 OAJ        -5.3650    1.0120   18.1680 O.2       1 LC1        -0.1518
     15 NAB        -5.4420   -0.3110   16.2900 N.am      1 LC1        -0.2620
     16 CAE        -6.1200    3.2300   15.3890 C.ar      1 LC1        -0.0362
     17 CAF        -5.6070    4.2420   14.5540 C.ar      1 LC1         0.0294
     18 NAG        -6.1770    5.2850   13.9660 N.2       1 LC1        -0.3130
     19 H1         -7.7013    7.0708   12.5091 H         1 LC1         0.0905
     20 H2         -4.2817    9.7151   10.7719 H         1 LC1         0.1186
     21 H3         -3.2005    5.6124   12.9665 H         1 LC1         0.2292
     22 H4         -2.3941    3.2626   14.3382 H         1 LC1         0.0544
     23 H5         -3.2512    1.4874   15.8366 H         1 LC1         0.0558
     24 H6         -5.6945   -1.1765   16.7226 H         1 LC1         0.1634
     25 H7         -4.8466   -0.3086   15.4865 H         1 LC1         0.1634
     26 H8         -7.1593    3.2570   15.6960 H         1 LC1         0.0564
@<TRIPOS>BOND
     1    1    2 1  
     2    1    5 2  
     3    2    3 1  
     4    3    4 2  
     5    4    5 1  
     6    5    6 1  
     7    6    7 1  
     8    6   18 2  
     9    7    8 1  
    10    8    9 ar 
    11    8   17 ar 
    12    9   10 ar 
    13   10   11 ar 
    14   11   12 1  
    15   11   16 ar 
    16   12   13 2  
    17   12   14 2  
    18   12   15 am 
    19   16   17 ar 
    20   17   18 1  
    21    1   19 1  
    22    3   20 1  
    23    7   21 1  
    24    9   22 1  
    25   10   23 1  
    26   15   24 1  
    27   15   25 1  
    28   16   26 1  
@<TRIPOS>SUBSTRUCTURE
     1 LC1         1

