### 
### Created by X-TOOL on Mon Sep 10 21:13:03 2018
### 

@<TRIPOS>MOLECULE
3fh5_ligand
   42    44     1     0     0
SMALL
GAST_HUCK


@<TRIPOS>ATOM
      1 CAB        24.3950   -2.0670   -2.0270 C.ar      1 24P        -0.0586
      2 CAA        23.9350   -2.8640   -3.0830 C.ar      1 24P        -0.0683
      3 CAF        23.6910   -2.3030   -4.3390 C.ar      1 24P        -0.0686
      4 CAE        23.8970   -0.9370   -4.5260 C.ar      1 24P        -0.0683
      5 CAD        24.3560   -0.1410   -3.4790 C.ar      1 24P        -0.0586
      6 CAC        24.6140   -0.6960   -2.2150 C.ar      1 24P        -0.0336
      7 CAG        25.0970    0.1980   -1.0710 C.3       1 24P         0.0090
      8 CAH        26.5030   -0.1370   -0.5410 C.ar      1 24P        -0.0425
      9 CAM        26.6720   -0.6300    0.7550 C.ar      1 24P        -0.0667
     10 CAL        27.9540   -0.9140    1.2530 C.ar      1 24P        -0.0391
     11 CAI        27.6150    0.0910   -1.3530 C.ar      1 24P        -0.0667
     12 CAJ        28.8870   -0.1970   -0.8590 C.ar      1 24P        -0.0391
     13 CAK        29.0690   -0.7040    0.4320 C.ar      1 24P         0.0846
     14 OAN        30.3560   -0.9740    0.8340 O.3       1 24P        -0.3167
     15 CAO        30.5630   -1.8210    2.0050 C.3       1 24P         0.1114
     16 CAP        31.8900   -2.5840    1.8320 C.3       1 24P         0.0057
     17 CAQ        31.9690   -3.4260    0.5540 C.3       1 24P        -0.0024
     18 CAR        33.4780   -3.7040    0.4740 C.3       1 24P        -0.0074
     19 CAS        34.1210   -2.5540    1.2500 C.3       1 24P        -0.0331
     20 NAT        33.0190   -1.6570    1.6630 N.4       1 24P         0.2311
     21 H1         24.5829   -2.5141   -1.0575 H         1 24P         0.0560
     22 H2         23.7672   -3.9232   -2.9246 H         1 24P         0.0600
     23 H3         23.3455   -2.9227   -5.1586 H         1 24P         0.0560
     24 H4         23.6985   -0.4907   -5.4937 H         1 24P         0.0600
     25 H5         24.5158    0.9187   -3.6417 H         1 24P         0.0560
     26 H6         24.3853    0.1024   -0.2378 H         1 24P         0.0563
     27 H7         25.1049    1.2380   -1.4291 H         1 24P         0.0563
     28 H8         25.8041   -0.7952    1.3832 H         1 24P         0.0534
     29 H9         28.0791   -1.2915    2.2614 H         1 24P         0.0526
     30 H10        27.4916    0.4868   -2.3546 H         1 24P         0.0534
     31 H11        29.7525   -0.0244   -1.4884 H         1 24P         0.0526
     32 H12        29.7330   -2.5372    2.0956 H         1 24P         0.0668
     33 H13        30.6096   -1.1973    2.9098 H         1 24P         0.0668
     34 H14        32.0398   -3.2226    2.7150 H         1 24P         0.0877
     35 H15        31.6157   -2.8630   -0.3224 H         1 24P         0.0322
     36 H16        31.3918   -4.3576    0.6485 H         1 24P         0.0322
     37 H17        33.8182   -3.7052   -0.5721 H         1 24P         0.0319
     38 H18        33.7205   -4.6706    0.9396 H         1 24P         0.0319
     39 H19        34.8311   -2.0125    0.6077 H         1 24P         0.0814
     40 H20        34.6480   -2.9405    2.1348 H         1 24P         0.0814
     41 H21        33.2371   -1.1888    2.5286 H         1 24P         0.2017
     42 H22        32.8225   -0.9716    0.9505 H         1 24P         0.2017
@<TRIPOS>BOND
     1    1    2 ar 
     2    1    6 ar 
     3    2    3 ar 
     4    3    4 ar 
     5    4    5 ar 
     6    5    6 ar 
     7    6    7 1  
     8    7    8 1  
     9    8    9 ar 
    10    8   11 ar 
    11    9   10 ar 
    12   10   13 ar 
    13   11   12 ar 
    14   12   13 ar 
    15   13   14 1  
    16   14   15 1  
    17   15   16 1  
    18   16   17 1  
    19   16   20 1  
    20   17   18 1  
    21   18   19 1  
    22   19   20 1  
    23    1   21 1  
    24    2   22 1  
    25    3   23 1  
    26    4   24 1  
    27    5   25 1  
    28    7   26 1  
    29    7   27 1  
    30    9   28 1  
    31   10   29 1  
    32   11   30 1  
    33   12   31 1  
    34   15   32 1  
    35   15   33 1  
    36   16   34 1  
    37   17   35 1  
    38   17   36 1  
    39   18   37 1  
    40   18   38 1  
    41   19   39 1  
    42   19   40 1  
    43   20   41 1  
    44   20   42 1  
@<TRIPOS>SUBSTRUCTURE
     1 24P         1

