### 
### Created by X-TOOL on Mon Sep 10 21:13:02 2018
### 

@<TRIPOS>MOLECULE
3fh7_ligand
   51    53     1     0     0
SMALL
GAST_HUCK


@<TRIPOS>ATOM
      1 CAD        24.5860   87.3330   -2.8990 C.ar      1 25P        -0.0283
      2 CAC        24.0210   86.6650   -3.9770 C.ar      1 25P        -0.0560
      3 CAB        23.7390   85.3130   -3.8610 C.ar      1 25P         0.0289
      4 CLAG       23.0740   84.5200   -5.2140 Cl        1 25P        -0.0806
      5 CAA        23.9910   84.5890   -2.7020 C.ar      1 25P        -0.0560
      6 CAF        24.5470   85.2560   -1.6180 C.ar      1 25P        -0.0283
      7 CAE        24.8440   86.6230   -1.7370 C.ar      1 25P         0.1137
      8 OAH        25.3730   87.3030   -0.7060 O.3       1 25P        -0.2646
      9 CAI        26.5830   86.9350   -0.2250 C.ar      1 25P         0.1052
     10 CAN        27.7310   86.9390   -1.0300 C.ar      1 25P        -0.0366
     11 CAM        28.9660   86.5830   -0.4510 C.ar      1 25P        -0.0403
     12 CAJ        26.6650   86.6090    1.1210 C.ar      1 25P        -0.0366
     13 CAK        27.8890   86.2660    1.7010 C.ar      1 25P        -0.0403
     14 CAL        29.0440   86.2410    0.9070 C.ar      1 25P         0.0809
     15 OAO        30.2150   85.8980    1.5100 O.3       1 25P        -0.3191
     16 CAP        31.1990   85.3340    0.6580 C.3       1 25P         0.1107
     17 CAQ        32.0800   84.7140    1.7380 C.3       1 25P         0.0073
     18 CAR        32.7380   85.7800    2.6020 C.3       1 25P        -0.0024
     19 CAS        34.0700   85.1580    2.9390 C.3       1 25P        -0.0073
     20 CAT        34.4490   84.4730    1.6470 C.3       1 25P        -0.0314
     21 NAU        33.1830   83.8610    1.2130 N.4       1 25P         0.2394
     22 CAV        33.1610   83.6650   -0.2320 C.3       1 25P        -0.0300
     23 CAW        33.8160   82.3290   -0.4970 C.3       1 25P        -0.0010
     24 CAX        35.2170   82.5700   -1.0570 C.3       1 25P         0.0050
     25 CAY        35.1820   83.0630   -2.4900 C.2       1 25P         0.0350
     26 OBA        34.1680   82.7770   -3.1800 O.co2     1 25P        -0.5690
     27 OAZ        36.1980   83.6550   -2.8830 O.co2     1 25P        -0.5690
     28 H1         24.8208   88.3892   -2.9649 H         1 25P         0.0551
     29 H2         23.8032   87.1941   -4.8977 H         1 25P         0.0596
     30 H3         23.7597   83.5315   -2.6454 H         1 25P         0.0596
     31 H4         24.7488   84.7284   -0.6928 H         1 25P         0.0551
     32 H5         27.6700   87.2107   -2.0776 H         1 25P         0.0527
     33 H6         29.8626   86.5735   -1.0602 H         1 25P         0.0518
     34 H7         25.7684   86.6205    1.7302 H         1 25P         0.0527
     35 H8         27.9450   86.0214    2.7556 H         1 25P         0.0518
     36 H9         31.7317   86.0981    0.0729 H         1 25P         0.0667
     37 H10        30.7786   84.5784   -0.0220 H         1 25P         0.0667
     38 H11        31.4322   84.0910    2.3721 H         1 25P         0.0878
     39 H12        32.1492   85.9731    3.5108 H         1 25P         0.0322
     40 H13        32.8685   86.7185    2.0433 H         1 25P         0.0322
     41 H14        33.9732   84.4322    3.7599 H         1 25P         0.0319
     42 H15        34.8088   85.9254    3.2133 H         1 25P         0.0319
     43 H16        35.2204   83.7074    1.8169 H         1 25P         0.0814
     44 H17        34.8112   85.2002    0.9054 H         1 25P         0.0814
     45 H18        33.1021   82.9509    1.6386 H         1 25P         0.2037
     46 H19        33.7215   84.4683   -0.7325 H         1 25P         0.0815
     47 H20        32.1238   83.6584   -0.5983 H         1 25P         0.0815
     48 H21        33.2187   81.7626   -1.2266 H         1 25P         0.0335
     49 H22        33.8859   81.7589    0.4411 H         1 25P         0.0335
     50 H23        35.7807   81.6261   -1.0205 H         1 25P         0.0432
     51 H24        35.7227   83.3234   -0.4352 H         1 25P         0.0432
@<TRIPOS>BOND
     1    1    2 ar 
     2    1    7 ar 
     3    2    3 ar 
     4    3    4 1  
     5    3    5 ar 
     6    5    6 ar 
     7    6    7 ar 
     8    7    8 1  
     9    8    9 1  
    10    9   10 ar 
    11    9   12 ar 
    12   10   11 ar 
    13   11   14 ar 
    14   12   13 ar 
    15   13   14 ar 
    16   14   15 1  
    17   15   16 1  
    18   16   17 1  
    19   17   18 1  
    20   17   21 1  
    21   18   19 1  
    22   19   20 1  
    23   20   21 1  
    24   21   22 1  
    25   22   23 1  
    26   23   24 1  
    27   24   25 1  
    28   25   26 ar 
    29   25   27 ar 
    30    1   28 1  
    31    2   29 1  
    32    5   30 1  
    33    6   31 1  
    34   10   32 1  
    35   11   33 1  
    36   12   34 1  
    37   13   35 1  
    38   16   36 1  
    39   16   37 1  
    40   17   38 1  
    41   18   39 1  
    42   18   40 1  
    43   19   41 1  
    44   19   42 1  
    45   20   43 1  
    46   20   44 1  
    47   21   45 1  
    48   22   46 1  
    49   22   47 1  
    50   23   48 1  
    51   23   49 1  
    52   24   50 1  
    53   24   51 1  
@<TRIPOS>SUBSTRUCTURE
     1 25P         1

