### 
### Created by X-TOOL on Mon Sep 10 21:13:02 2018
### 

@<TRIPOS>MOLECULE
3fh8_ligand
   45    47     1     0     0
SMALL
GAST_HUCK


@<TRIPOS>ATOM
      1 CAR        33.3010   85.3730    2.1660 C.3       1 27P        -0.0316
      2 CAS        34.1810   84.6240    1.1730 C.3       1 27P        -0.0077
      3 CAU        33.1950   83.6760    0.4810 C.3       1 27P        -0.0077
      4 CAT        31.7960   84.1860    0.8900 C.3       1 27P        -0.0316
      5 NAA        32.0170   85.5230    1.4800 N.4       1 27P         0.2371
      6 CAB        31.0190   85.9200    2.4950 C.3       1 27P        -0.0037
      7 CAC        29.5760   85.8940    2.0050 C.3       1 27P         0.1087
      8 OAD        29.5730   86.7380    0.8560 O.3       1 27P        -0.3170
      9 CAE        28.3980   86.9080    0.1860 C.ar      1 27P         0.0846
     10 CAJ        28.4030   87.5830   -1.0290 C.ar      1 27P        -0.0391
     11 CAI        27.2230   87.7670   -1.7380 C.ar      1 27P        -0.0667
     12 CAF        27.1880   86.4260    0.6820 C.ar      1 27P        -0.0391
     13 CAG        26.0070   86.6200   -0.0290 C.ar      1 27P        -0.0667
     14 CAH        26.0250   87.2850   -1.2420 C.ar      1 27P        -0.0425
     15 CAK        24.7170   87.5200   -2.0230 C.3       1 27P         0.0090
     16 CAL        24.2970   86.3860   -2.9680 C.ar      1 27P        -0.0336
     17 CAM        23.9610   86.6750   -4.2780 C.ar      1 27P        -0.0586
     18 CAN        23.5770   85.6870   -5.1780 C.ar      1 27P        -0.0683
     19 CAO        23.4810   84.3680   -4.7530 C.ar      1 27P        -0.0686
     20 CAP        23.7940   84.0710   -3.4290 C.ar      1 27P        -0.0683
     21 CAQ        24.1900   85.0600   -2.5360 C.ar      1 27P        -0.0586
     22 H1         33.7324   86.3569    2.4023 H         1 27P         0.0814
     23 H2         33.1807   84.7931    3.0929 H         1 27P         0.0814
     24 H3         34.9714   84.0617    1.6917 H         1 27P         0.0319
     25 H4         34.6374   85.3158    0.4497 H         1 27P         0.0319
     26 H5         33.3457   82.6424    0.8259 H         1 27P         0.0319
     27 H6         33.3183   83.7198   -0.6112 H         1 27P         0.0319
     28 H7         31.3421   83.5102    1.6298 H         1 27P         0.0814
     29 H8         31.1411   84.2586    0.0092 H         1 27P         0.0814
     30 H9         32.0577   86.2231    0.7560 H         1 27P         0.2034
     31 H10        31.2518   86.9434    2.8242 H         1 27P         0.0841
     32 H11        31.1045   85.2318    3.3488 H         1 27P         0.0841
     33 H12        28.8965   86.2853    2.7764 H         1 27P         0.0665
     34 H13        29.2752   84.8706    1.7363 H         1 27P         0.0665
     35 H14        29.3349   87.9687   -1.4262 H         1 27P         0.0526
     36 H15        27.2409   88.2918   -2.6863 H         1 27P         0.0534
     37 H16        27.1664   85.8966    1.6277 H         1 27P         0.0526
     38 H17        25.0697   86.2486    0.3693 H         1 27P         0.0534
     39 H18        24.8408   88.4330   -2.6239 H         1 27P         0.0563
     40 H19        23.9084   87.6687   -1.2923 H         1 27P         0.0563
     41 H20        23.9982   87.7049   -4.6141 H         1 27P         0.0560
     42 H21        23.3535   85.9450   -6.2069 H         1 27P         0.0600
     43 H22        23.1693   83.5870   -5.4370 H         1 27P         0.0560
     44 H23        23.7273   83.0446   -3.0867 H         1 27P         0.0600
     45 H24        24.4154   84.8041   -1.5070 H         1 27P         0.0560
@<TRIPOS>BOND
     1    1    2 1  
     2    1    5 1  
     3    2    3 1  
     4    3    4 1  
     5    4    5 1  
     6    5    6 1  
     7    6    7 1  
     8    7    8 1  
     9    8    9 1  
    10    9   10 ar 
    11    9   12 ar 
    12   10   11 ar 
    13   11   14 ar 
    14   12   13 ar 
    15   13   14 ar 
    16   14   15 1  
    17   15   16 1  
    18   16   17 ar 
    19   16   21 ar 
    20   17   18 ar 
    21   18   19 ar 
    22   19   20 ar 
    23   20   21 ar 
    24    1   22 1  
    25    1   23 1  
    26    2   24 1  
    27    2   25 1  
    28    3   26 1  
    29    3   27 1  
    30    4   28 1  
    31    4   29 1  
    32    5   30 1  
    33    6   31 1  
    34    6   32 1  
    35    7   33 1  
    36    7   34 1  
    37   10   35 1  
    38   11   36 1  
    39   12   37 1  
    40   13   38 1  
    41   15   39 1  
    42   15   40 1  
    43   17   41 1  
    44   18   42 1  
    45   19   43 1  
    46   20   44 1  
    47   21   45 1  
@<TRIPOS>SUBSTRUCTURE
     1 27P         1

