### 
### Created by X-TOOL on Mon Sep 10 21:13:00 2018
### 

@<TRIPOS>MOLECULE
3fhb_ligand
   16    16     1     0     0
SMALL
GAST_HUCK


@<TRIPOS>ATOM
      1 C1'        15.8290   -7.0170   11.2010 C.2       1 GAB         0.0599
      2 O1'        14.6310   -6.6170   11.2000 O.co2     1 GAB        -0.5608
      3 O2'        16.8390   -6.3450   11.5520 O.co2     1 GAB        -0.5608
      4 C1         16.1020   -8.4350   10.7320 C.ar      1 GAB        -0.0016
      5 C2         17.1930   -9.1380   11.2190 C.ar      1 GAB        -0.0307
      6 C3         17.4080  -10.4350   10.7530 C.ar      1 GAB         0.0387
      7 C4         16.5740  -11.0240    9.8240 C.ar      1 GAB        -0.0421
      8 C5         15.4900  -10.3050    9.3460 C.ar      1 GAB        -0.0701
      9 C6         15.2560   -9.0150    9.8020 C.ar      1 GAB        -0.0610
     10 N3         18.4350  -11.1360   11.1990 N.pl3     1 GAB        -0.3365
     11 H1         17.8628   -8.6906   11.9444 H         1 GAB         0.0547
     12 H2         16.7639  -12.0323    9.4742 H         1 GAB         0.0536
     13 H3         14.8243  -10.7503    8.6155 H         1 GAB         0.0590
     14 H4         14.4050   -8.4578    9.4274 H         1 GAB         0.0538
     15 H5         19.0764  -10.7256   11.8926 H         1 GAB         0.1718
     16 H6         18.5944  -12.0930   10.8531 H         1 GAB         0.1718
@<TRIPOS>BOND
     1    1    2 ar 
     2    1    3 ar 
     3    1    4 1  
     4    4    5 ar 
     5    4    9 ar 
     6    5    6 ar 
     7    6    7 ar 
     8    6   10 1  
     9    7    8 ar 
    10    8    9 ar 
    11    5   11 1  
    12    7   12 1  
    13    8   13 1  
    14    9   14 1  
    15   10   15 1  
    16   10   16 1  
@<TRIPOS>SUBSTRUCTURE
     1 GAB         1

