### 
### Created by X-TOOL on Mon Sep 10 21:13:02 2018
### 

@<TRIPOS>MOLECULE
3fhe_ligand
   49    50     1     0     0
SMALL
GAST_HUCK


@<TRIPOS>ATOM
      1 CAQ        24.1120   86.4030   -3.9430 C.ar      1 28P        -0.0586
      2 CAR        23.8000   85.5770   -5.0040 C.ar      1 28P        -0.0683
      3 CAS        23.5280   84.2400   -4.7880 C.ar      1 28P        -0.0686
      4 CAT        23.5630   83.7290   -3.4950 C.ar      1 28P        -0.0683
      5 CAU        23.8800   84.5550   -2.4300 C.ar      1 28P        -0.0586
      6 CAP        24.1680   85.8970   -2.6570 C.ar      1 28P        -0.0336
      7 CAO        24.5000   86.8410   -1.4840 C.3       1 28P         0.0090
      8 CAN        25.9490   86.7050   -0.9790 C.ar      1 28P        -0.0425
      9 CAV        26.1770   86.0680    0.2100 C.ar      1 28P        -0.0667
     10 CAW        27.4560   85.9300    0.7090 C.ar      1 28P        -0.0391
     11 CAM        27.0110   87.2410   -1.6830 C.ar      1 28P        -0.0667
     12 CAL        28.3060   87.1150   -1.2060 C.ar      1 28P        -0.0391
     13 CAK        28.5250   86.4650   -0.0070 C.ar      1 28P         0.0844
     14 OAJ        29.7900   86.3700    0.4380 O.3       1 28P        -0.3221
     15 CAI        29.9940   85.6300    1.7010 C.3       1 28P         0.0738
     16 CAH        31.4980   85.3090    1.7410 C.3       1 28P         0.0151
     17 CAG        32.0900   84.8360    0.3810 C.3       1 28P        -0.0296
     18 N1         33.2070   83.8840    0.5490 N.4       1 28P         0.2343
     19 CAX        34.3100   84.3640    1.3920 C.3       1 28P        -0.0430
     20 CAB        33.6480   83.3420   -0.7560 C.3       1 28P        -0.0205
     21 CAC        34.8580   84.0770   -1.2860 C.3       1 28P         0.0404
     22 CAD        35.3020   83.4900   -2.6490 C.2       1 28P         0.0399
     23 OAF        34.4670   83.1540   -3.5190 O.co2     1 28P        -0.5688
     24 OAE        36.5090   83.3700   -2.8650 O.co2     1 28P        -0.5688
     25 H1         24.3141   87.4534   -4.1185 H         1 28P         0.0560
     26 H2         23.7683   85.9789   -6.0102 H         1 28P         0.0600
     27 H3         23.2882   83.5917   -5.6230 H         1 28P         0.0560
     28 H4         23.3417   82.6822   -3.3207 H         1 28P         0.0600
     29 H5         23.9037   84.1571   -1.4220 H         1 28P         0.0560
     30 H6         23.8181   86.6150   -0.6510 H         1 28P         0.0563
     31 H7         24.3425   87.8779   -1.8158 H         1 28P         0.0563
     32 H8         25.3399   85.6654    0.7688 H         1 28P         0.0534
     33 H9         27.6270   85.4121    1.6458 H         1 28P         0.0526
     34 H10        26.8295   87.7638   -2.6151 H         1 28P         0.0534
     35 H11        29.1386   87.5224   -1.7680 H         1 28P         0.0526
     36 H12        29.4014   84.7033    1.7053 H         1 28P         0.0613
     37 H13        29.7091   86.2515    2.5627 H         1 28P         0.0613
     38 H14        31.6605   84.5130    2.4826 H         1 28P         0.0343
     39 H15        32.0355   86.2165    2.0534 H         1 28P         0.0343
     40 H16        32.4562   85.7154   -0.1690 H         1 28P         0.0815
     41 H17        31.2938   84.3463   -0.1988 H         1 28P         0.0815
     42 H18        32.8184   83.1012    1.0513 H         1 28P         0.2032
     43 H19        35.0875   83.5884    1.4551 H         1 28P         0.0778
     44 H20        33.9310   84.5861    2.4005 H         1 28P         0.0778
     45 H21        34.7376   85.2768    0.9517 H         1 28P         0.0778
     46 H22        32.8255   83.4411   -1.4796 H         1 28P         0.0833
     47 H23        33.9022   82.2789   -0.6331 H         1 28P         0.0833
     48 H24        35.6834   83.9805   -0.5653 H         1 28P         0.0483
     49 H25        34.6066   85.1400   -1.4154 H         1 28P         0.0483
@<TRIPOS>BOND
     1    1    2 ar 
     2    1    6 ar 
     3    2    3 ar 
     4    3    4 ar 
     5    4    5 ar 
     6    5    6 ar 
     7    6    7 1  
     8    7    8 1  
     9    8    9 ar 
    10    8   11 ar 
    11    9   10 ar 
    12   10   13 ar 
    13   11   12 ar 
    14   12   13 ar 
    15   13   14 1  
    16   14   15 1  
    17   15   16 1  
    18   16   17 1  
    19   17   18 1  
    20   18   19 1  
    21   18   20 1  
    22   20   21 1  
    23   21   22 1  
    24   22   23 ar 
    25   22   24 ar 
    26    1   25 1  
    27    2   26 1  
    28    3   27 1  
    29    4   28 1  
    30    5   29 1  
    31    7   30 1  
    32    7   31 1  
    33    9   32 1  
    34   10   33 1  
    35   11   34 1  
    36   12   35 1  
    37   15   36 1  
    38   15   37 1  
    39   16   38 1  
    40   16   39 1  
    41   17   40 1  
    42   17   41 1  
    43   18   42 1  
    44   19   43 1  
    45   19   44 1  
    46   19   45 1  
    47   20   46 1  
    48   20   47 1  
    49   21   48 1  
    50   21   49 1  
@<TRIPOS>SUBSTRUCTURE
     1 28P         1

