### 
### Created by X-TOOL on Mon Sep 10 21:13:01 2018
### 

@<TRIPOS>MOLECULE
3fhr_ligand
   42    46     1     0     0
SMALL
GAST_HUCK


@<TRIPOS>ATOM
      1 C19        21.6220    8.0020   12.6900 C.ar      1 P4O        -0.0238
      2 C20        21.2730    8.5830   11.4580 C.ar      1 P4O         0.0093
      3 C25        21.6980    9.8650   11.1070 C.ar      1 P4O        -0.0452
      4 C24        21.3330   10.3900    9.8620 C.ar      1 P4O        -0.0553
      5 C23        20.5460    9.6570    8.9710 C.ar      1 P4O        -0.0553
      6 C22        20.0950    8.3920    9.3110 C.ar      1 P4O        -0.0386
      7 C21        20.4780    7.8630   10.5490 C.ar      1 P4O         0.0478
      8 N16        20.0410    6.6290   10.8650 N.ar      1 P4O        -0.2933
      9 C17        20.3610    6.0550   12.0270 C.ar      1 P4O         0.0211
     10 C18        21.1140    6.7210   12.9770 C.ar      1 P4O         0.0268
     11 C14        21.4120    5.9590   14.2130 C.ar      1 P4O         0.0492
     12 C13        20.5270    5.0140   14.7050 C.ar      1 P4O        -0.0266
     13 N15        22.5770    6.1440   14.8430 N.ar      1 P4O        -0.3026
     14 C10        22.8990    5.4430   15.9480 C.ar      1 P4O         0.0006
     15 C11        22.0420    4.5030   16.4870 C.ar      1 P4O        -0.0350
     16 C12        20.8340    4.2690   15.8350 C.ar      1 P4O         0.0079
     17 C2         19.8910    3.2820   16.4160 C.2       1 P4O         0.0641
     18 C3         19.9580    2.5870   17.6120 C.2       1 P4O        -0.0565
     19 C4         18.8100    1.8260   17.6310 C.2       1 P4O         0.0410
     20 C6         18.2400    0.8760   18.6250 C.2       1 P4O         0.1752
     21 O26        18.8820    0.5350   19.5950 O.2       1 P4O        -0.4040
     22 N7         16.9860    0.4580   18.4510 N.am      1 P4O        -0.2898
     23 C8         16.3950    0.3620   17.1120 C.3       1 P4O         0.0436
     24 C9         16.6930    1.4990   16.1240 C.3       1 P4O         0.0315
     25 C5         18.0330    2.1310   16.4410 C.2       1 P4O         0.0718
     26 N1         18.7320    3.0360   15.7240 N.pl3     1 P4O        -0.2706
     27 H1         22.2604    8.5227   13.3946 H         1 P4O         0.0795
     28 H2         22.3042   10.4478   11.7911 H         1 P4O         0.0659
     29 H3         21.6671   11.3832    9.5844 H         1 P4O         0.0643
     30 H4         20.2865   10.0805    8.0075 H         1 P4O         0.0656
     31 H5         19.4623    7.8269    8.6362 H         1 P4O         0.0646
     32 H6         20.0234    5.0452   12.2304 H         1 P4O         0.0884
     33 H7         19.5811    4.8540   14.2003 H         1 P4O         0.0667
     34 H8         23.8553    5.6213   16.4263 H         1 P4O         0.0796
     35 H9         22.3022    3.9636   17.3906 H         1 P4O         0.0653
     36 H10        20.7415    2.6320   18.3670 H         1 P4O         0.0380
     37 H11        16.4380    0.2052   19.2484 H         1 P4O         0.1835
     38 H12        15.3033    0.3108   17.2363 H         1 P4O         0.0546
     39 H13        16.7566   -0.5725   16.6581 H         1 P4O         0.0546
     40 H14        15.9045    2.2622   16.2000 H         1 P4O         0.0506
     41 H15        16.7149    1.0949   15.1011 H         1 P4O         0.0506
     42 H16        18.4496    3.4605   14.8291 H         1 P4O         0.2347
@<TRIPOS>BOND
     1    1    2 ar 
     2    1   10 ar 
     3    2    3 ar 
     4    2    7 ar 
     5    3    4 ar 
     6    4    5 ar 
     7    5    6 ar 
     8    6    7 ar 
     9    7    8 ar 
    10    8    9 ar 
    11    9   10 ar 
    12   10   11 1  
    13   11   12 ar 
    14   11   13 ar 
    15   12   16 ar 
    16   13   14 ar 
    17   14   15 ar 
    18   15   16 ar 
    19   16   17 1  
    20   17   18 2  
    21   17   26 1  
    22   18   19 1  
    23   19   20 1  
    24   19   25 2  
    25   20   21 2  
    26   20   22 am 
    27   22   23 1  
    28   23   24 1  
    29   24   25 1  
    30   25   26 1  
    31    1   27 1  
    32    3   28 1  
    33    4   29 1  
    34    5   30 1  
    35    6   31 1  
    36    9   32 1  
    37   12   33 1  
    38   14   34 1  
    39   15   35 1  
    40   18   36 1  
    41   22   37 1  
    42   23   38 1  
    43   23   39 1  
    44   24   40 1  
    45   24   41 1  
    46   26   42 1  
@<TRIPOS>SUBSTRUCTURE
     1 P4O         1

