### 
### Created by X-TOOL on Mon Sep 10 21:13:00 2018
### 

@<TRIPOS>MOLECULE
3fi2_ligand
   69    72     1     0     0
SMALL
GAST_HUCK


@<TRIPOS>ATOM
      1 O1         14.5350   34.6280   10.6880 O.3       1 JK1        -0.3324
      2 N2         15.0360   36.6770    9.4420 N.pl3     1 JK1        -0.2582
      3 C3          1.6180   39.4260   14.2990 C.3       1 JK1         0.0510
      4 O4          1.2650   36.6160   12.7520 O.3       1 JK1        -0.3314
      5 C5         16.4160   38.5370    6.4700 C.ar      1 JK1        -0.0737
      6 C6         14.4570   39.7050    7.4600 C.ar      1 JK1        -0.0737
      7 C7          9.6320   31.5020   13.6850 C.ar      1 JK1        -0.0679
      8 C8         16.2860   37.5390    7.4470 C.ar      1 JK1        -0.0443
      9 C10         8.4420   32.0250   14.3260 C.ar      1 JK1        -0.0549
     10 C11        10.2280   32.2300   12.4750 C.ar      1 JK1        -0.0354
     11 C15         3.4670   35.5080   13.1020 C.ar      1 JK1        -0.0317
     12 C16        11.5180   34.0280   10.4970 C.3       1 JK1         0.1122
     13 C17        14.1340   35.8730   10.2370 C.3       1 JK1         0.1685
     14 C18         6.6210   33.8680   14.4550 C.2       1 JK1         0.2263
     15 C19        15.2380   37.6570    8.4100 C.ar      1 JK1         0.0442
     16 C20         4.6690   35.3750   13.9100 C.ar      1 JK1         0.0384
     17 C22         7.8470   33.2050   13.8260 C.ar      1 JK1         0.0438
     18 C23         9.6130   33.3790   12.0340 C.ar      1 JK1         0.0854
     19 C24         3.8280   37.1620   15.4780 C.ar      1 JK1         0.0989
     20 C25         2.4280   36.4850   13.5320 C.ar      1 JK1         0.0989
     21 C26         2.6410   37.2960   14.7200 C.ar      1 JK1         0.1313
     22 C1          5.1420   37.5900   17.4520 C.3       1 JK1         0.0562
     23 N1          9.3410   34.8370    9.9480 N.4       1 JK1         0.3653
     24 C2          1.0000   36.3070   11.3890 C.3       1 JK1         0.0562
     25 O2          6.3730   33.8010   15.6010 O.2       1 JK1        -0.3745
     26 N3         12.8840   35.7870    9.5120 N.4       1 JK1         0.2743
     27 O3          4.0690   37.9350   16.6090 O.3       1 JK1        -0.3314
     28 C4         15.5390   39.6020    6.4580 C.ar      1 JK1        -0.0751
     29 N4          5.7580   34.5010   13.4860 N.am      1 JK1        -0.2439
     30 N5         10.1510   34.1070   10.9220 N.pl3     1 JK1        -0.2744
     31 O5          1.6890   38.2570   15.0850 O.3       1 JK1        -0.3390
     32 C9         14.3300   38.7460    8.4090 C.ar      1 JK1        -0.0443
     33 C12        10.2760   35.7580    9.2720 C.3       1 JK1         0.0356
     34 C13         8.3940   33.9290   12.6620 C.ar      1 JK1        -0.0197
     35 C14         4.9030   36.1580   15.0550 C.ar      1 JK1        -0.0317
     36 C21        11.6530   35.0570    9.3200 C.3       1 JK1         0.0481
     37 H          13.8251   34.2291   11.1963 H         1 JK1         0.2176
     38 H          15.9713   36.4332    9.7678 H         1 JK1         0.1833
     39 H           2.5782   39.9410   14.3286 H         1 JK1         0.0562
     40 H           1.3803   39.1565   13.2699 H         1 JK1         0.0562
     41 H           0.8408   40.0807   14.6932 H         1 JK1         0.0562
     42 H          17.2070   38.4714    5.7230 H         1 JK1         0.0583
     43 H          13.7655   40.5472    7.4356 H         1 JK1         0.0583
     44 H          10.1017   30.5936   14.0623 H         1 JK1         0.0594
     45 H          16.9705   36.6911    7.4707 H         1 JK1         0.0515
     46 H           8.0101   31.5128   15.1858 H         1 JK1         0.0556
     47 H          11.1179   31.8466   11.9758 H         1 JK1         0.0552
     48 H           3.3297   34.9070   12.2031 H         1 JK1         0.0313
     49 H          11.7784   33.0192   10.1766 H         1 JK1         0.0622
     50 H          12.2031   34.2620   11.3118 H         1 JK1         0.0622
     51 H          14.0685   36.4023   11.1876 H         1 JK1         0.1489
     52 H           4.9913   36.5808   17.8353 H         1 JK1         0.0572
     53 H           6.0735   37.6303   16.8874 H         1 JK1         0.0572
     54 H           5.1892   38.2927   18.2839 H         1 JK1         0.0572
     55 H           8.5781   35.3421   10.3988 H         1 JK1         0.2268
     56 H           8.8928   34.2048    9.2847 H         1 JK1         0.2268
     57 H           1.6666   36.8864   10.7502 H         1 JK1         0.0572
     58 H           1.1665   35.2431   11.2200 H         1 JK1         0.0572
     59 H          -0.0354   36.5556   11.1561 H         1 JK1         0.0572
     60 H          13.3110   35.4640    8.6438 H         1 JK1         0.2070
     61 H          12.4458   36.5650   10.0050 H         1 JK1         0.2070
     62 H          15.6453   40.3777    5.6997 H         1 JK1         0.0505
     63 H           5.9116   34.3350   12.4914 H         1 JK1         0.2215
     64 H          13.5423   38.8108    9.1596 H         1 JK1         0.0515
     65 H          10.3052   36.7300    9.7643 H         1 JK1         0.0877
     66 H           9.9662   35.9602    8.2467 H         1 JK1         0.0877
     67 H           7.9180   34.8326   12.2812 H         1 JK1         0.0566
     68 H           5.8255   36.0525   15.6259 H         1 JK1         0.0313
     69 H          11.8014   34.6949    8.3027 H         1 JK1         0.0927
@<TRIPOS>BOND
     1   13    1 1  
     2   13    2 1  
     3    2   15 1  
     4   31    3 1  
     5   20    4 1  
     6    4   24 1  
     7    8    5 ar 
     8    5   28 ar 
     9    6   28 ar 
    10   32    6 ar 
    11    7    9 ar 
    12   10    7 ar 
    13   15    8 ar 
    14   17    9 ar 
    15   18   10 ar 
    16   16   11 ar 
    17   11   20 ar 
    18   12   30 1  
    19   36   12 1  
    20   26   13 1  
    21   17   14 1  
    22   14   25 2  
    23   14   29 am 
    24   15   32 ar 
    25   29   16 1  
    26   16   35 ar 
    27   34   17 ar 
    28   30   18 1  
    29   18   34 ar 
    30   19   21 ar 
    31   19   27 1  
    32   35   19 ar 
    33   20   21 ar 
    34   21   31 1  
    35   27   22 1  
    36   30   23 1  
    37   23   33 1  
    38   26   36 1  
    39   33   36 1  
    40    1   37 1  
    41    2   38 1  
    42    3   39 1  
    43    3   40 1  
    44    3   41 1  
    45    5   42 1  
    46    6   43 1  
    47    7   44 1  
    48    8   45 1  
    49    9   46 1  
    50   10   47 1  
    51   11   48 1  
    52   12   49 1  
    53   12   50 1  
    54   13   51 1  
    55   22   52 1  
    56   22   53 1  
    57   22   54 1  
    58   23   55 1  
    59   23   56 1  
    60   24   57 1  
    61   24   58 1  
    62   24   59 1  
    63   26   60 1  
    64   26   61 1  
    65   28   62 1  
    66   29   63 1  
    67   32   64 1  
    68   33   65 1  
    69   33   66 1  
    70   34   67 1  
    71   35   68 1  
    72   36   69 1  
@<TRIPOS>SUBSTRUCTURE
     1 JK1         1

