### 
### Created by X-TOOL on Mon Sep 10 21:13:00 2018
### 

@<TRIPOS>MOLECULE
3fi3_ligand
   63    67     1     0     0
SMALL
GAST_HUCK


@<TRIPOS>ATOM
      1 C12       -29.1090  -34.4500  -11.5340 C.ar      1 JK2        -0.0378
      2 C13       -31.2930  -35.5830   -8.9320 C.2       1 JK2         0.0201
      3 C14       -36.8610  -36.1110  -14.9630 C.ar      1 JK2        -0.0317
      4 C16       -33.3090  -34.0270  -12.5320 C.ar      1 JK2        -0.0087
      5 C18       -35.0510  -33.8380  -14.2330 C.2       1 JK2         0.2274
      6 C26       -27.7630  -35.7560  -10.0170 C.ar      1 JK2         0.0470
      7 C27       -37.1160  -35.2540  -13.7750 C.ar      1 JK2         0.0384
      8 C31       -26.2300  -37.4530   -8.6090 C.ar      1 JK2         0.0904
      9 C35       -30.0920  -35.4870   -9.5420 C.ar      1 JK2         0.0018
     10 C36       -30.2270  -34.7160  -10.6870 C.ar      1 JK2         0.0986
     11 F38       -24.2980  -36.2220   -7.7080 F         1 JK2        -0.1915
     12 C28       -25.1330  -37.2990   -7.6430 C.ar      1 JK2         0.1524
     13 C07       -24.9510  -38.2560   -6.7010 C.ar      1 JK2        -0.0388
     14 C04       -25.8270  -39.3590   -6.6540 C.ar      1 JK2        -0.0762
     15 C10       -27.1030  -38.5160   -8.5500 C.ar      1 JK2        -0.0419
     16 C05       -26.9140  -39.4950   -7.5680 C.ar      1 JK2        -0.0766
     17 N21       -26.5760  -36.4090   -9.5350 N.pl3     1 JK2        -0.2806
     18 C11       -27.8890  -34.9570  -11.2350 C.ar      1 JK2        -0.0446
     19 C17       -28.8270  -36.0060   -9.2150 C.ar      1 JK2        -0.0441
     20 N37       -31.5100  -34.3530  -10.7610 N.pl3     1 JK2        -0.1577
     21 N19       -32.1900  -34.8750   -9.6820 N.2       1 JK2        -0.1914
     22 C30       -32.0680  -33.5720  -11.8420 C.ar      1 JK2         0.1094
     23 C09       -31.4150  -32.4640  -12.2790 C.ar      1 JK2        -0.0246
     24 C06       -31.9370  -31.7160  -13.3660 C.ar      1 JK2        -0.0622
     25 C29       -33.8070  -33.2890  -13.5690 C.ar      1 JK2         0.0495
     26 C08       -33.1510  -32.1330  -14.0230 C.ar      1 JK2        -0.0502
     27 O22       -35.1270  -33.9320  -15.4050 O.2       1 JK2        -0.3744
     28 N20       -36.0530  -34.0000  -13.3410 N.am      1 JK2        -0.2438
     29 C15       -38.2400  -35.4400  -13.0210 C.ar      1 JK2        -0.0317
     30 C33       -39.1920  -36.4130  -13.4160 C.ar      1 JK2         0.0989
     31 O24       -40.3470  -36.5940  -12.6540 O.3       1 JK2        -0.3314
     32 C02       -40.2900  -36.2520  -11.2990 C.3       1 JK2         0.0562
     33 C34       -38.9540  -37.2320  -14.5800 C.ar      1 JK2         0.1313
     34 O25       -39.8680  -38.2160  -14.9430 O.3       1 JK2        -0.3390
     35 C03       -39.7450  -39.4790  -14.3560 C.3       1 JK2         0.0510
     36 C32       -37.7770  -37.0600  -15.3330 C.ar      1 JK2         0.0989
     37 O23       -37.5470  -37.8430  -16.4630 O.3       1 JK2        -0.3314
     38 C01       -38.4350  -37.7620  -17.5380 C.3       1 JK2         0.0562
     39 H         -29.2377  -33.8361  -12.4254 H         1 JK2         0.0552
     40 H         -31.5076  -36.1252   -8.0111 H         1 JK2         0.0716
     41 H         -35.9448  -35.9841  -15.5397 H         1 JK2         0.0313
     42 H         -33.8138  -34.9388  -12.2127 H         1 JK2         0.0620
     43 H         -24.1333  -38.1733   -5.9851 H         1 JK2         0.0569
     44 H         -25.6698  -40.1291   -5.8988 H         1 JK2         0.0501
     45 H         -27.9287  -38.5939   -9.2573 H         1 JK2         0.0514
     46 H         -27.5877  -40.3493   -7.5024 H         1 JK2         0.0551
     47 H         -25.7419  -36.0210   -9.9755 H         1 JK2         0.2043
     48 H         -27.0299  -34.7754  -11.8808 H         1 JK2         0.0523
     49 H         -28.7017  -36.6097   -8.3162 H         1 JK2         0.0473
     50 H         -30.4904  -32.1496  -11.7949 H         1 JK2         0.0604
     51 H         -31.4170  -30.8206  -13.7065 H         1 JK2         0.0607
     52 H         -33.5532  -31.5602  -14.8586 H         1 JK2         0.0595
     53 H         -36.1599  -33.4326  -12.5001 H         1 JK2         0.2215
     54 H         -38.4034  -34.8448  -12.1226 H         1 JK2         0.0313
     55 H         -39.5237  -36.8505  -10.8064 H         1 JK2         0.0572
     56 H         -40.0445  -35.1944  -11.2025 H         1 JK2         0.0572
     57 H         -41.2575  -36.4455  -10.8357 H         1 JK2         0.0572
     58 H         -38.7682  -39.8974  -14.5985 H         1 JK2         0.0562
     59 H         -39.8438  -39.3867  -13.2744 H         1 JK2         0.0562
     60 H         -40.5275  -40.1340  -14.7390 H         1 JK2         0.0562
     61 H         -39.4328  -38.0486  -17.2058 H         1 JK2         0.0572
     62 H         -38.4557  -36.7392  -17.9142 H         1 JK2         0.0572
     63 H         -38.1071  -38.4352  -18.3300 H         1 JK2         0.0572
@<TRIPOS>BOND
     1   10    1 ar 
     2    1   18 ar 
     3    2    9 1  
     4   21    2 2  
     5    7    3 ar 
     6    3   36 ar 
     7   22    4 ar 
     8    4   25 ar 
     9   25    5 1  
    10    5   27 2  
    11    5   28 am 
    12    6   17 1  
    13   18    6 ar 
    14   19    6 ar 
    15   28    7 1  
    16    7   29 ar 
    17    8   12 ar 
    18    8   15 ar 
    19   17    8 1  
    20   10    9 ar 
    21    9   19 ar 
    22   20   10 1  
    23   12   11 1  
    24   12   13 ar 
    25   13   14 ar 
    26   16   14 ar 
    27   15   16 ar 
    28   20   21 1  
    29   20   22 1  
    30   22   23 ar 
    31   23   24 ar 
    32   24   26 ar 
    33   25   26 ar 
    34   29   30 ar 
    35   30   31 1  
    36   30   33 ar 
    37   31   32 1  
    38   33   34 1  
    39   33   36 ar 
    40   34   35 1  
    41   36   37 1  
    42   37   38 1  
    43    1   39 1  
    44    2   40 1  
    45    3   41 1  
    46    4   42 1  
    47   13   43 1  
    48   14   44 1  
    49   15   45 1  
    50   16   46 1  
    51   17   47 1  
    52   18   48 1  
    53   19   49 1  
    54   23   50 1  
    55   24   51 1  
    56   26   52 1  
    57   28   53 1  
    58   29   54 1  
    59   32   55 1  
    60   32   56 1  
    61   32   57 1  
    62   35   58 1  
    63   35   59 1  
    64   35   60 1  
    65   38   61 1  
    66   38   62 1  
    67   38   63 1  
@<TRIPOS>SUBSTRUCTURE
     1 JK2         1

