### 
### Created by X-TOOL on Mon Sep 10 21:13:00 2018
### 

@<TRIPOS>MOLECULE
3fkt_ligand
   71    75     1     0     0
SMALL
GAST_HUCK


@<TRIPOS>ATOM
      1 C1         34.8350   41.6210   -0.0400 C.ar      1 SII        -0.0472
      2 C2         34.4260   42.9580    0.0910 C.ar      1 SII         0.0596
      3 C3         33.5250   43.4020    1.0740 C.ar      1 SII        -0.0472
      4 C7         32.8660   40.0550    2.7710 C.3       1 SII        -0.0047
      5 C8         34.2920   44.9160   -1.4700 C.2       1 SII         0.1987
      6 C9         34.8910   45.4960   -2.7380 C.3       1 SII         0.0312
      7 C10        31.5780   39.8480   -2.2250 C.ar      1 SII        -0.0084
      8 C11        30.4730   40.3190   -1.5080 C.ar      1 SII         0.0634
      9 C12        30.2770   41.6920   -1.3130 C.ar      1 SII        -0.0453
     10 C13        31.1740   42.6420   -1.8010 C.ar      1 SII        -0.0770
     11 C14        32.2830   42.1860   -2.5060 C.ar      1 SII        -0.0435
     12 C15        32.4610   40.8160   -2.7000 C.ar      1 SII         0.1193
     13 C16        29.1670   39.7340    1.3990 C.3       1 SII         0.0126
     14 C19        31.9090   38.4130    1.1060 C.3       1 SII        -0.0325
     15 C20        30.4720   40.2690    2.0240 C.3       1 SII        -0.0325
     16 C21        28.2140   37.9180   -0.0620 C.2       1 SII         0.1593
     17 C22        28.5770   38.9670   -1.8740 C.2       1 SII         0.3120
     18 C24        26.2760   35.0260   -0.0550 C.3       1 SII        -0.0289
     19 C27        24.0650   35.6830    1.8750 C.3       1 SII        -0.0509
     20 F1         33.4980   40.3460   -3.3670 F         1 SII        -0.1876
     21 N1         34.9680   43.7710   -0.8350 N.am      1 SII        -0.2380
     22 O1         33.2840   45.4210   -1.0090 O.2       1 SII        -0.3861
     23 N2         31.6400   39.3290    2.2380 N.4       1 SII         0.2447
     24 O2         28.4450   39.2480   -3.0630 O.2       1 SII        -0.3523
     25 N3         29.5930   39.4000   -1.0620 N.am      1 SII        -0.2121
     26 C4         33.0130   42.4520    1.9730 C.ar      1 SII        -0.0682
     27 N4         27.6930   38.1970   -1.2160 N.2       1 SII        -0.1590
     28 C5         33.4280   41.1120    1.8430 C.ar      1 SII        -0.0132
     29 N5         27.4540   37.1750    0.9480 N.pl3     1 SII        -0.2866
     30 C6         34.3220   40.6820    0.8640 C.ar      1 SII        -0.0682
     31 C17        29.4570   38.7550    0.2450 C.3       1 SII         0.1403
     32 C18        30.6000   37.7760    0.6200 C.3       1 SII         0.0126
     33 C23        25.3780   33.8980    0.4630 C.3       1 SII        -0.0509
     34 C25        26.5270   36.0520    1.0440 C.3       1 SII         0.0447
     35 C26        25.2260   36.6530    1.5750 C.3       1 SII        -0.0289
     36 C28        24.0500   34.3910    1.0520 C.3       1 SII        -0.0529
     37 H1         35.5281   41.3240   -0.8187 H         1 SII         0.0487
     38 H2         33.2344   44.4445    1.1364 H         1 SII         0.0487
     39 H3         33.6525   39.3088    2.9567 H         1 SII         0.0951
     40 H4         32.5912   40.5417    3.7184 H         1 SII         0.0951
     41 H5         34.2732   46.3379   -3.0835 H         1 SII         0.0471
     42 H6         34.9221   44.7201   -3.5171 H         1 SII         0.0471
     43 H7         35.9118   45.8505   -2.5325 H         1 SII         0.0471
     44 H8         31.7383   38.7905   -2.4011 H         1 SII         0.0487
     45 H9         29.4024   42.0262   -0.7667 H         1 SII         0.0471
     46 H10        31.0122   43.7011   -1.6363 H         1 SII         0.0568
     47 H11        33.0047   42.8910   -2.9024 H         1 SII         0.0477
     48 H12        28.5822   40.5811    1.0113 H         1 SII         0.0287
     49 H13        28.5867   39.2119    2.1740 H         1 SII         0.0287
     50 H14        32.5986   37.6215    1.4345 H         1 SII         0.0810
     51 H15        32.3664   38.9788    0.2810 H         1 SII         0.0810
     52 H16        30.2088   40.6806    3.0095 H         1 SII         0.0810
     53 H17        30.8297   41.0793    1.3718 H         1 SII         0.0810
     54 H18        25.7838   35.5195   -0.9060 H         1 SII         0.0288
     55 H19        27.2372   34.6029   -0.3823 H         1 SII         0.0288
     56 H20        23.1216   36.2158    1.6850 H         1 SII         0.0266
     57 H21        24.1220   35.4060    2.9380 H         1 SII         0.0266
     58 H22        35.9090   43.5819   -1.1157 H         1 SII         0.2234
     59 H23        31.3507   38.7221    2.9890 H         1 SII         0.2045
     60 H24        32.3145   42.7432    2.7491 H         1 SII         0.0522
     61 H25        27.6294   37.5694    1.8832 H         1 SII         0.1918
     62 H26        34.6149   39.6401    0.8033 H         1 SII         0.0522
     63 H27        30.2294   37.1192    1.4208 H         1 SII         0.0287
     64 H28        30.8310   37.1736   -0.2709 H         1 SII         0.0287
     65 H29        25.9237   33.3508    1.2458 H         1 SII         0.0266
     66 H30        25.1565   33.2182   -0.3730 H         1 SII         0.0266
     67 H31        26.9418   35.4370    1.8562 H         1 SII         0.0568
     68 H32        25.4644   37.1811    2.5100 H         1 SII         0.0288
     69 H33        24.8672   37.3754    0.8271 H         1 SII         0.0288
     70 H34        23.3569   34.5460    0.2120 H         1 SII         0.0265
     71 H35        23.6643   33.5926    1.7031 H         1 SII         0.0265
@<TRIPOS>BOND
     1    1    2 ar 
     2   30    1 ar 
     3    3    2 ar 
     4    2   21 1  
     5   26    3 ar 
     6   23    4 1  
     7    4   28 1  
     8    5    6 1  
     9   21    5 am 
    10    5   22 2  
    11    8    7 ar 
    12    7   12 ar 
    13    8    9 ar 
    14   25    8 1  
    15    9   10 ar 
    16   10   11 ar 
    17   12   11 ar 
    18   12   20 1  
    19   13   15 1  
    20   31   13 1  
    21   14   23 1  
    22   32   14 1  
    23   15   23 1  
    24   16   27 2  
    25   29   16 1  
    26   16   31 1  
    27   17   24 2  
    28   25   17 am 
    29   27   17 1  
    30   33   18 1  
    31   18   34 1  
    32   19   35 1  
    33   36   19 1  
    34   31   25 1  
    35   28   26 ar 
    36   28   30 ar 
    37   34   29 1  
    38   31   32 1  
    39   33   36 1  
    40   34   35 1  
    41    1   37 1  
    42    3   38 1  
    43    4   39 1  
    44    4   40 1  
    45    6   41 1  
    46    6   42 1  
    47    6   43 1  
    48    7   44 1  
    49    9   45 1  
    50   10   46 1  
    51   11   47 1  
    52   13   48 1  
    53   13   49 1  
    54   14   50 1  
    55   14   51 1  
    56   15   52 1  
    57   15   53 1  
    58   18   54 1  
    59   18   55 1  
    60   19   56 1  
    61   19   57 1  
    62   21   58 1  
    63   23   59 1  
    64   26   60 1  
    65   29   61 1  
    66   30   62 1  
    67   32   63 1  
    68   32   64 1  
    69   33   65 1  
    70   33   66 1  
    71   34   67 1  
    72   35   68 1  
    73   35   69 1  
    74   36   70 1  
    75   36   71 1  
@<TRIPOS>SUBSTRUCTURE
     1 SII         1

