### 
### Created by X-TOOL on Mon Sep 10 21:13:00 2018
### 

@<TRIPOS>MOLECULE
3fl5_ligand
   28    30     1     0     0
SMALL
GAST_HUCK


@<TRIPOS>ATOM
      1 O18        21.3460    9.2370   18.7070 O.2       1 TXQ        -0.3751
      2 C9         22.1030    8.2550   18.5470 C.2       1 TXQ         0.1486
      3 C8         22.3690    7.3270   19.6940 C.ar      1 TXQ         0.0695
      4 C13        21.7700    7.5490   20.9400 C.ar      1 TXQ         0.1019
      5 O17        20.9500    8.6270   21.1120 O.3       1 TXQ        -0.3332
      6 C12        22.0200    6.6860   22.0070 C.ar      1 TXQ        -0.0296
      7 C11        22.8680    5.5850   21.8280 C.ar      1 TXQ        -0.0296
      8 C14        23.4590    5.3640   20.5810 C.ar      1 TXQ         0.1018
      9 O16        24.2840    4.2960   20.3930 O.3       1 TXQ        -0.3332
     10 C7         23.2160    6.2310   19.5150 C.ar      1 TXQ         0.0691
     11 C10        23.8500    5.9900   18.1810 C.2       1 TXQ         0.1508
     12 O19        24.5980    5.0020   18.0080 O.2       1 TXQ        -0.3765
     13 C2         22.7320    8.0220   17.2180 C.ar      1 TXQ         0.0291
     14 C1         23.5790    6.9220   17.0460 C.ar      1 TXQ         0.0694
     15 C3         22.4880    8.8950   16.1470 C.ar      1 TXQ        -0.0580
     16 C4         23.0850    8.6550   14.8990 C.ar      1 TXQ        -0.0304
     17 C5         23.9250    7.5510   14.7350 C.ar      1 TXQ         0.1284
     18 O20        24.5160    7.2930   13.5340 O.3       1 TXQ        -0.3317
     19 C6         24.1650    6.6900   15.7990 C.ar      1 TXQ         0.1421
     20 O15        24.9860    5.6210   15.6250 O.3       1 TXQ        -0.3297
     21 H1         20.6255    8.6374   22.0048 H         1 TXQ         0.2477
     22 H2         21.5597    6.8666   22.9717 H         1 TXQ         0.0571
     23 H3         23.0645    4.9086   22.6520 H         1 TXQ         0.0571
     24 H4         24.5977    4.2936   19.4963 H         1 TXQ         0.2477
     25 H5         21.8398    9.7532   16.2828 H         1 TXQ         0.0567
     26 H6         22.8950    9.3232   14.0668 H         1 TXQ         0.0558
     27 H7         25.0482    6.5094   13.6061 H         1 TXQ         0.2466
     28 H8         25.0473    5.1345   16.4386 H         1 TXQ         0.2476
@<TRIPOS>BOND
     1    1    2 2  
     2    2    3 1  
     3    2   13 1  
     4    3    4 ar 
     5    3   10 ar 
     6    4    5 1  
     7    4    6 ar 
     8    6    7 ar 
     9    7    8 ar 
    10    8    9 1  
    11    8   10 ar 
    12   10   11 1  
    13   11   12 2  
    14   11   14 1  
    15   13   14 ar 
    16   13   15 ar 
    17   14   19 ar 
    18   15   16 ar 
    19   16   17 ar 
    20   17   18 1  
    21   17   19 ar 
    22   19   20 1  
    23    5   21 1  
    24    6   22 1  
    25    7   23 1  
    26    9   24 1  
    27   15   25 1  
    28   16   26 1  
    29   18   27 1  
    30   20   28 1  
@<TRIPOS>SUBSTRUCTURE
     1 TXQ         1

