### 
### Created by X-TOOL on Mon Sep 10 21:13:01 2018
### 

@<TRIPOS>MOLECULE
3fl8_ligand
   75    78     1     0     0
SMALL
GAST_HUCK


@<TRIPOS>ATOM
      1 N01        15.3970  -31.3430   -6.2690 N.pl3     1 RAR        -0.3201
      2 C02        15.8540  -31.8660   -5.0940 C.ar      1 RAR         0.1143
      3 C03        16.2330  -30.9060   -4.0160 C.ar      1 RAR         0.0129
      4 C04        16.1620  -29.4160   -4.2890 C.3       1 RAR        -0.0148
      5 C05        16.9700  -28.6240   -3.2920 C.3       1 RAR        -0.0278
      6 C06        16.2650  -27.4860   -2.5250 C.3       1 RAR        -0.0194
      7 C07        17.0230  -26.7130   -1.4790 C.3       1 RAR         0.0876
      8 O08        16.3420  -25.7030   -0.8310 O.3       1 RAR        -0.3770
      9 C09        15.0780  -25.4890   -1.3010 C.3       1 RAR         0.0369
     10 C10        18.4860  -27.0610   -1.1890 C.3       1 RAR         0.1001
     11 O11        19.0900  -26.3360   -0.1930 O.3       1 RAR        -0.3740
     12 C12        18.6330  -26.5470    1.1530 C.3       1 RAR         0.0372
     13 C13        19.2210  -28.2020   -1.9390 C.3       1 RAR         0.0260
     14 C14        20.6800  -28.5920   -1.6810 C.2       1 RAR        -0.0538
     15 C15        21.5310  -27.8320   -1.0510 C.2       1 RAR         0.0023
     16 C16        22.9260  -28.2980   -0.6990 C.2       1 RAR         0.2182
     17 N17        23.5290  -29.3200   -1.4780 N.am      1 RAR        -0.2324
     18 N18        22.6920  -29.8720   -2.5010 N.4       1 RAR         0.3756
     19 C19        23.1870  -30.9750   -3.2220 C.3       1 RAR         0.0223
     20 C20        24.9290  -29.7900   -1.3140 C.3       1 RAR         0.1132
     21 C21        25.1220  -31.2630   -0.7360 C.3       1 RAR        -0.0164
     22 C22        26.1410  -31.2130    0.3760 C.3       1 RAR        -0.0520
     23 C23        25.8070  -30.0460    1.2950 C.3       1 RAR        -0.0651
     24 C24        25.4890  -30.1040   -2.7450 C.ar      1 RAR        -0.0061
     25 C25        24.5700  -30.7260   -3.6910 C.ar      1 RAR         0.0064
     26 C26        25.0310  -31.0640   -5.1120 C.ar      1 RAR        -0.0617
     27 C27        26.4580  -30.7340   -5.4390 C.ar      1 RAR        -0.0753
     28 C28        27.3820  -30.1120   -4.4570 C.ar      1 RAR        -0.0754
     29 C29        26.9420  -29.7690   -3.0780 C.ar      1 RAR        -0.0643
     30 O30        23.5170  -27.8010    0.1640 O.2       1 RAR        -0.3960
     31 C31        18.4360  -28.9780   -2.9930 C.3       1 RAR        -0.0298
     32 C32        16.7030  -31.4680   -2.7430 C.ar      1 RAR        -0.0002
     33 N33        16.7610  -32.8710   -2.6230 N.ar      1 RAR        -0.2826
     34 C34        16.3770  -33.8330   -3.7060 C.ar      1 RAR         0.1636
     35 N35        16.5040  -35.2090   -3.5200 N.pl3     1 RAR        -0.3099
     36 N36        15.9230  -33.2890   -4.9570 N.ar      1 RAR        -0.2490
     37 H1         15.1243  -31.9693   -7.0399 H         1 RAR         0.1789
     38 H2         15.3249  -30.3221   -6.3848 H         1 RAR         0.1789
     39 H3         15.1119  -29.0934   -4.2324 H         1 RAR         0.0402
     40 H4         16.5519  -29.2202   -5.2988 H         1 RAR         0.0402
     41 H5         17.2898  -27.9246   -4.0785 H         1 RAR         0.0323
     42 H6         15.3929  -27.9311   -2.0237 H         1 RAR         0.0295
     43 H7         15.9244  -26.7579   -3.2759 H         1 RAR         0.0295
     44 H8         16.7089  -27.4255   -0.7021 H         1 RAR         0.0624
     45 H9         14.6089  -24.6723   -0.7327 H         1 RAR         0.0524
     46 H10        14.4828  -26.4065   -1.1833 H         1 RAR         0.0524
     47 H11        15.1240  -25.2157   -2.3655 H         1 RAR         0.0524
     48 H12        18.8298  -26.3433   -1.9484 H         1 RAR         0.0657
     49 H13        19.2033  -25.9034    1.8390 H         1 RAR         0.0524
     50 H14        18.7823  -27.6010    1.4300 H         1 RAR         0.0524
     51 H15        17.5637  -26.2980    1.2205 H         1 RAR         0.0524
     52 H16        19.5569  -27.4798   -2.6977 H         1 RAR         0.0550
     53 H17        21.0255  -29.5587   -2.0445 H         1 RAR         0.0849
     54 H18        21.2266  -26.8254   -0.7680 H         1 RAR         0.0474
     55 H19        22.5030  -29.1377   -3.1651 H         1 RAR         0.2296
     56 H20        21.8305  -30.1595   -2.0636 H         1 RAR         0.2296
     57 H21        22.5392  -31.1557   -4.0924 H         1 RAR         0.0971
     58 H22        23.1822  -31.8616   -2.5710 H         1 RAR         0.0971
     59 H23        25.5133  -29.0446   -0.7546 H         1 RAR         0.0756
     60 H24        25.4771  -31.9311   -1.5345 H         1 RAR         0.0310
     61 H25        24.1641  -31.6362   -0.3446 H         1 RAR         0.0310
     62 H26        27.1458  -31.0729   -0.0492 H         1 RAR         0.0265
     63 H27        26.1121  -32.1530    0.9466 H         1 RAR         0.0265
     64 H28        26.5437  -29.9991    2.1106 H         1 RAR         0.0230
     65 H29        24.8012  -30.1879    1.7172 H         1 RAR         0.0230
     66 H30        25.8349  -29.1079    0.7213 H         1 RAR         0.0230
     67 H31        24.3654  -31.5152   -5.8390 H         1 RAR         0.0539
     68 H32        26.8293  -30.9588   -6.4323 H         1 RAR         0.0541
     69 H33        28.4036  -29.9024   -4.7527 H         1 RAR         0.0541
     70 H34        27.6089  -29.3112   -2.3564 H         1 RAR         0.0538
     71 H35        18.9859  -28.8686   -3.9393 H         1 RAR         0.0304
     72 H36        18.4483  -30.0329   -2.6816 H         1 RAR         0.0304
     73 H37        16.9960  -30.8240   -1.9217 H         1 RAR         0.0772
     74 H38        16.8310  -35.5785   -2.6159 H         1 RAR         0.1803
     75 H39        16.2708  -35.8560   -4.2867 H         1 RAR         0.1803
@<TRIPOS>BOND
     1    1    2 1  
     2    2    3 ar 
     3    2   36 ar 
     4    3    4 1  
     5    3   32 ar 
     6    4    5 1  
     7    5    6 1  
     8    5   31 1  
     9    6    7 1  
    10    7    8 1  
    11    7   10 1  
    12    8    9 1  
    13   10   11 1  
    14   10   13 1  
    15   11   12 1  
    16   13   14 1  
    17   13   31 1  
    18   14   15 2  
    19   15   16 1  
    20   16   17 am 
    21   16   30 2  
    22   17   18 1  
    23   17   20 1  
    24   18   19 1  
    25   19   25 1  
    26   20   21 1  
    27   20   24 1  
    28   21   22 1  
    29   22   23 1  
    30   24   25 ar 
    31   24   29 ar 
    32   25   26 ar 
    33   26   27 ar 
    34   27   28 ar 
    35   28   29 ar 
    36   32   33 ar 
    37   33   34 ar 
    38   34   35 1  
    39   34   36 ar 
    40    1   37 1  
    41    1   38 1  
    42    4   39 1  
    43    4   40 1  
    44    5   41 1  
    45    6   42 1  
    46    6   43 1  
    47    7   44 1  
    48    9   45 1  
    49    9   46 1  
    50    9   47 1  
    51   10   48 1  
    52   12   49 1  
    53   12   50 1  
    54   12   51 1  
    55   13   52 1  
    56   14   53 1  
    57   15   54 1  
    58   18   55 1  
    59   18   56 1  
    60   19   57 1  
    61   19   58 1  
    62   20   59 1  
    63   21   60 1  
    64   21   61 1  
    65   22   62 1  
    66   22   63 1  
    67   23   64 1  
    68   23   65 1  
    69   23   66 1  
    70   26   67 1  
    71   27   68 1  
    72   28   69 1  
    73   29   70 1  
    74   31   71 1  
    75   31   72 1  
    76   32   73 1  
    77   35   74 1  
    78   35   75 1  
@<TRIPOS>SUBSTRUCTURE
     1 RAR         1

