### 
### Created by X-TOOL on Mon Sep 10 21:13:02 2018
### 

@<TRIPOS>MOLECULE
3fl9_ligand
   39    40     1     0     0
SMALL
GAST_HUCK


@<TRIPOS>ATOM
      1 C1         18.3770   10.8000   38.0650 C.ar      1 TOP         0.0016
      2 N2         18.4500   12.1040   38.2420 N.ar      1 TOP        -0.2822
      3 C3         19.4430   12.8200   37.7080 C.ar      1 TOP         0.1638
      4 N4         19.4790   14.1330   37.9090 N.pl3     1 TOP        -0.3098
      5 N5         20.3930   12.2210   36.9760 N.ar      1 TOP        -0.2486
      6 C6         20.3600   10.8950   36.7710 C.ar      1 TOP         0.1161
      7 N7         21.3140   10.3240   36.0440 N.pl3     1 TOP        -0.3198
      8 C8         19.3350   10.1290   37.3190 C.ar      1 TOP         0.0217
      9 C9         19.1980    8.6080   37.1410 C.3       1 TOP         0.0058
     10 C10        18.4230    7.9630   38.3040 C.ar      1 TOP        -0.0614
     11 C11        19.0580    7.0380   39.1230 C.ar      1 TOP        -0.0491
     12 C12        18.3810    6.4350   40.1790 C.ar      1 TOP         0.1051
     13 O13        19.0680    5.5380   40.9510 O.3       1 TOP        -0.3297
     14 C14        20.0700    4.8610   40.1790 C.3       1 TOP         0.0563
     15 C15        17.0380    6.7620   40.4280 C.ar      1 TOP         0.1396
     16 O16        16.3530    6.1950   41.4670 O.3       1 TOP        -0.3340
     17 C17        16.7500    4.8790   41.8420 C.3       1 TOP         0.0526
     18 C18        16.3950    7.7010   39.6050 C.ar      1 TOP         0.1051
     19 O19        15.0860    8.0850   39.7530 O.3       1 TOP        -0.3297
     20 C20        14.1600    7.0680   40.1590 C.3       1 TOP         0.0563
     21 C21        17.0920    8.2790   38.5490 C.ar      1 TOP        -0.0491
     22 H1         17.5581   10.2448   38.5079 H         1 TOP         0.0775
     23 H2         18.7465   14.5880   38.4723 H         1 TOP         0.1804
     24 H3         20.2394   14.6957   37.5015 H         1 TOP         0.1804
     25 H4         21.2980    9.3072   35.8806 H         1 TOP         0.1790
     26 H5         22.0697   10.8981   35.6437 H         1 TOP         0.1790
     27 H6         20.2030    8.1633   37.0931 H         1 TOP         0.0535
     28 H7         18.6626    8.4064   36.2015 H         1 TOP         0.0535
     29 H8         20.0949    6.7823   38.9371 H         1 TOP         0.0367
     30 H9         20.6070    4.1471   40.8208 H         1 TOP         0.0572
     31 H10        20.7806    5.5968   39.7745 H         1 TOP         0.0572
     32 H11        19.5907    4.3200   39.3498 H         1 TOP         0.0572
     33 H12        16.1297    4.5344   42.6825 H         1 TOP         0.0565
     34 H13        17.8072    4.8875   42.1459 H         1 TOP         0.0565
     35 H14        16.6196    4.1991   40.9872 H         1 TOP         0.0565
     36 H15        13.1522    7.5012   40.2408 H         1 TOP         0.0572
     37 H16        14.4651    6.6627   41.1350 H         1 TOP         0.0572
     38 H17        14.1523    6.2600   39.4126 H         1 TOP         0.0572
     39 H18        16.5872    8.9897   37.9047 H         1 TOP         0.0367
@<TRIPOS>BOND
     1    1    2 ar 
     2    1    8 ar 
     3    2    3 ar 
     4    3    4 1  
     5    3    5 ar 
     6    5    6 ar 
     7    6    7 1  
     8    6    8 ar 
     9    8    9 1  
    10    9   10 1  
    11   10   11 ar 
    12   10   21 ar 
    13   11   12 ar 
    14   12   13 1  
    15   12   15 ar 
    16   13   14 1  
    17   15   16 1  
    18   15   18 ar 
    19   16   17 1  
    20   18   19 1  
    21   18   21 ar 
    22   19   20 1  
    23    1   22 1  
    24    4   23 1  
    25    4   24 1  
    26    7   25 1  
    27    7   26 1  
    28    9   27 1  
    29    9   28 1  
    30   11   29 1  
    31   14   30 1  
    32   14   31 1  
    33   14   32 1  
    34   17   33 1  
    35   17   34 1  
    36   17   35 1  
    37   20   36 1  
    38   20   37 1  
    39   20   38 1  
    40   21   39 1  
@<TRIPOS>SUBSTRUCTURE
     1 TOP         1

