### 
### Created by X-TOOL on Mon Sep 10 21:13:01 2018
### 

@<TRIPOS>MOLECULE
3fmz_ligand
   46    48     1     0     0
SMALL
GAST_HUCK


@<TRIPOS>ATOM
      1 N1         11.1400  -20.3900    3.3340 N.am      1 2T1        -0.2535
      2 N3          9.9020  -18.9950    1.9970 N.am      1 2T1        -0.2161
      3 C4         13.8960  -24.8360    3.0400 C.ar      1 2T1         0.0493
      4 C5         14.0900  -26.0940    2.4800 C.ar      1 2T1        -0.0380
      5 C6         13.3850  -26.4850    1.3470 C.ar      1 2T1        -0.0392
      6 C7         12.7650  -22.6200    3.0230 C.3       1 2T1         0.0117
      7 C8         12.6340  -21.5770    1.9180 C.3       1 2T1        -0.0150
      8 C10        11.2730  -21.2750    4.4790 C.3       1 2T1         0.0377
      9 C13         8.7200  -18.3300    1.6170 C.ar      1 2T1         0.0817
     10 C15         8.7750  -17.1760    0.8480 C.ar      1 2T1         0.0301
     11 C17         7.4780  -18.8400    1.9860 C.ar      1 2T1        -0.0375
     12 C21        10.0830  -16.5860    0.4170 C.2       1 2T1         0.0546
     13 O3         11.1540  -17.1040    0.8100 O.co2     1 2T1        -0.5657
     14 O2         10.0560  -15.5810   -0.3290 O.co2     1 2T1        -0.5657
     15 C16         7.6050  -16.5340    0.4670 C.ar      1 2T1        -0.0613
     16 C19         6.3720  -17.0450    0.8460 C.ar      1 2T1        -0.0736
     17 C18         6.3070  -18.2000    1.6090 C.ar      1 2T1        -0.0729
     18 C14         9.9830  -19.8010    3.0580 C.2       1 2T1         0.2913
     19 O1          9.0330  -20.0010    3.7880 O.2       1 2T1        -0.3896
     20 C11        11.4870  -22.6410    3.8510 C.3       1 2T1        -0.0150
     21 C9         12.3410  -20.2100    2.5250 C.3       1 2T1         0.0377
     22 C3         12.9900  -23.9630    2.4490 C.ar      1 2T1        -0.0057
     23 C2         12.2840  -24.3500    1.3140 C.ar      1 2T1        -0.0290
     24 C1         12.4820  -25.6100    0.7620 C.ar      1 2T1        -0.0406
     25 C12        14.6930  -24.4550    4.2640 C.3       1 2T1         0.3705
     26 F1         15.9570  -24.3490    3.9010 F         1 2T1        -0.2263
     27 F3         14.5860  -25.3880    5.1910 F         1 2T1        -0.2263
     28 F2         14.2970  -23.3040    4.7810 F         1 2T1        -0.2263
     29 H1         10.7231  -18.8562    1.4433 H         1 2T1         0.2274
     30 H2         14.7992  -26.7779    2.9321 H         1 2T1         0.0820
     31 H3         13.5407  -27.4702    0.9225 H         1 2T1         0.0648
     32 H4         13.6155  -22.3560    3.6687 H         1 2T1         0.0540
     33 H5         11.8116  -21.8606    1.2447 H         1 2T1         0.0319
     34 H6         13.5740  -21.5290    1.3488 H         1 2T1         0.0319
     35 H7         10.3601  -21.2635    5.0926 H         1 2T1         0.0522
     36 H8         12.1352  -20.9883    5.0990 H         1 2T1         0.0522
     37 H9          7.4258  -19.7484    2.5752 H         1 2T1         0.0509
     38 H10         7.6547  -15.6299   -0.1290 H         1 2T1         0.0611
     39 H11         5.4604  -16.5412    0.5456 H         1 2T1         0.0495
     40 H12         5.3458  -18.6011    1.9096 H         1 2T1         0.0598
     41 H13        11.5746  -23.3996    4.6427 H         1 2T1         0.0319
     42 H14        10.6328  -22.8849    3.2022 H         1 2T1         0.0319
     43 H15        13.1816  -19.8806    3.1534 H         1 2T1         0.0522
     44 H16        12.1628  -19.4681    1.7326 H         1 2T1         0.0522
     45 H17        11.5769  -23.6661    0.8587 H         1 2T1         0.0636
     46 H18        11.9321  -25.9080   -0.1234 H         1 2T1         0.0834
@<TRIPOS>BOND
     1    1    8 1  
     2    1   18 am 
     3   21    1 1  
     4    2    9 1  
     5   18    2 am 
     6    3    4 ar 
     7   22    3 ar 
     8    3   25 1  
     9    4    5 ar 
    10    5   24 ar 
    11    7    6 1  
    12    6   20 1  
    13    6   22 1  
    14    7   21 1  
    15    8   20 1  
    16    9   10 ar 
    17    9   11 ar 
    18   10   12 1  
    19   10   15 ar 
    20   11   17 ar 
    21   12   13 ar 
    22   12   14 ar 
    23   15   16 ar 
    24   16   17 ar 
    25   18   19 2  
    26   22   23 ar 
    27   23   24 ar 
    28   25   26 1  
    29   25   27 1  
    30   25   28 1  
    31    2   29 1  
    32    4   30 1  
    33    5   31 1  
    34    6   32 1  
    35    7   33 1  
    36    7   34 1  
    37    8   35 1  
    38    8   36 1  
    39   11   37 1  
    40   15   38 1  
    41   16   39 1  
    42   17   40 1  
    43   20   41 1  
    44   20   42 1  
    45   21   43 1  
    46   21   44 1  
    47   23   45 1  
    48   24   46 1  
@<TRIPOS>SUBSTRUCTURE
     1 2T1         1

