### 
### Created by X-TOOL on Mon Sep 10 21:13:00 2018
### 

@<TRIPOS>MOLECULE
3fnm_ligand
   18    18     1     0     0
SMALL
GAST_HUCK


@<TRIPOS>ATOM
      1 C1         45.0830   -1.4820   39.1060 C.2       1 AVN         0.0877
      2 O1         44.6650   -2.3250   39.8460 O.co2     1 AVN        -0.5642
      3 O2         44.5320   -0.4360   38.8630 O.co2     1 AVN        -0.5642
      4 C2         46.3900   -1.7600   38.4730 C.3       1 AVN         0.0632
      5 N1         47.1520   -2.6210   39.3430 N.4       1 AVN         0.2350
      6 C3         46.0370   -2.5610   37.2640 C.3       1 AVN         0.1611
      7 O3         45.3550   -1.7940   36.3640 O.3       1 AVN        -0.2435
      8 N2         45.5240   -2.3000   35.1240 N.2       1 AVN        -0.1822
      9 C4         46.5110   -3.0600   35.0710 C.2       1 AVN         0.0161
     10 C5         47.1900   -3.0340   36.4170 C.3       1 AVN         0.0280
     11 H1         46.9403   -0.8398   38.2271 H         1 AVN         0.1057
     12 H2         47.4106   -2.1141   40.1750 H         1 AVN         0.2011
     13 H3         47.9843   -2.9297   38.8654 H         1 AVN         0.2011
     14 H4         46.5939   -3.4211   39.5969 H         1 AVN         0.2011
     15 H5         45.4337   -3.4214   37.5892 H         1 AVN         0.0771
     16 H6         46.8269   -3.6402   34.2053 H         1 AVN         0.0821
     17 H7         47.5402   -4.0318   36.7199 H         1 AVN         0.0474
     18 H8         48.0327   -2.3274   36.4385 H         1 AVN         0.0474
@<TRIPOS>BOND
     1    1    2 ar 
     2    1    3 ar 
     3    1    4 1  
     4    4    5 1  
     5    4    6 1  
     6    6    7 1  
     7    6   10 1  
     8    7    8 1  
     9    8    9 2  
    10    9   10 1  
    11    4   11 1  
    12    5   12 1  
    13    5   13 1  
    14    5   14 1  
    15    6   15 1  
    16    9   16 1  
    17   10   17 1  
    18   10   18 1  
@<TRIPOS>SUBSTRUCTURE
     1 AVN         1

