### 
### Created by X-TOOL on Mon Sep 10 21:13:01 2018
### 

@<TRIPOS>MOLECULE
3fnu_ligand
   86    90     1     0     0
SMALL
GAST_HUCK


@<TRIPOS>ATOM
      1 O8        -10.2780  -51.2260  -74.0490 O.2       1 006        -0.3941
      2 C12        -9.8100  -50.5900  -74.9820 C.2       1 006         0.2069
      3 C21       -10.6480  -49.5050  -75.6120 C.3       1 006         0.1556
      4 O2        -10.9510  -49.8420  -76.9670 O.3       1 006        -0.3054
      5 C45       -12.1010  -49.4320  -77.6170 C.ar      1 006         0.0966
      6 C46       -12.2600  -48.1120  -78.0720 C.ar      1 006        -0.0230
      7 C44       -11.2010  -47.0630  -77.8660 C.3       1 006        -0.0348
      8 C47       -13.4220  -47.7240  -78.7360 C.ar      1 006        -0.0759
      9 C40       -14.4320  -48.6510  -78.9570 C.ar      1 006        -0.0862
     10 C41       -14.2790  -49.9660  -78.5130 C.ar      1 006        -0.0759
     11 C42       -13.1190  -50.3620  -77.8460 C.ar      1 006        -0.0230
     12 C43       -12.9960  -51.7970  -77.3870 C.3       1 006        -0.0348
     13 N2         -8.5860  -50.7910  -75.4880 N.am      1 006        -0.2750
     14 C13        -7.6890  -51.8220  -74.9520 C.3       1 006         0.0945
     15 C15        -7.5060  -52.8560  -76.0630 C.3       1 006         0.0086
     16 C22        -8.6680  -53.8260  -76.1000 C.ar      1 006        -0.0406
     17 C23        -8.7340  -54.8810  -75.1810 C.ar      1 006        -0.0603
     18 C24        -9.8060  -55.7730  -75.2190 C.ar      1 006        -0.0686
     19 C25       -10.8070  -55.6080  -76.1780 C.ar      1 006        -0.0687
     20 C26       -10.7400  -54.5580  -77.0970 C.ar      1 006        -0.0686
     21 C27        -9.6700  -53.6650  -77.0590 C.ar      1 006        -0.0603
     22 C14        -6.3260  -51.2310  -74.5380 C.3       1 006         0.1683
     23 O1         -6.2370  -51.1770  -73.1030 O.3       1 006        -0.3689
     24 C16        -5.9670  -49.8820  -75.1390 C.2       1 006         0.2129
     25 O3         -6.7460  -48.9360  -75.0650 O.2       1 006        -0.3938
     26 N3         -4.7560  -49.8050  -75.7310 N.am      1 006        -0.2383
     27 C19        -3.8070  -50.9200  -75.8190 C.3       1 006         0.0831
     28 S1         -2.2200  -50.1990  -75.9760 S.3       1 006        -0.1252
     29 C18        -2.6900  -48.6150  -76.5610 C.3       1 006         0.0532
     30 C30        -1.9940  -47.5780  -75.6790 C.3       1 006        -0.0463
     31 C29        -2.2110  -48.5270  -78.0110 C.3       1 006        -0.0463
     32 C17        -4.2390  -48.5510  -76.3600 C.3       1 006         0.1486
     33 C20        -5.1130  -48.0910  -77.5420 C.2       1 006         0.2053
     34 O4         -5.9940  -48.8400  -77.9430 O.2       1 006        -0.3943
     35 N4         -5.0240  -46.8850  -78.1420 N.am      1 006        -0.2691
     36 C31        -4.0930  -45.7730  -77.9360 C.3       1 006         0.1007
     37 C32        -4.2370  -44.8150  -79.0500 C.ar      1 006        -0.0133
     38 C33        -4.2320  -45.1250  -80.4110 C.ar      1 006        -0.0646
     39 C34        -4.3830  -44.0690  -81.3160 C.ar      1 006        -0.0754
     40 C38        -4.5290  -42.7530  -80.8570 C.ar      1 006        -0.0755
     41 C37        -4.5340  -42.4610  -79.4890 C.ar      1 006        -0.0667
     42 C36        -4.3840  -43.5240  -78.6000 C.ar      1 006        -0.0361
     43 C39        -4.3670  -43.4430  -77.0910 C.3       1 006         0.0085
     44 C35        -4.3910  -44.9240  -76.6840 C.3       1 006         0.0951
     45 O7         -5.6530  -45.2570  -76.0960 O.3       1 006        -0.3857
     46 H1        -10.0918  -48.5563  -75.5889 H         1 006         0.0853
     47 H2        -11.5850  -49.3946  -75.0465 H         1 006         0.0853
     48 H3        -11.5387  -46.1108  -78.3010 H         1 006         0.0366
     49 H4        -10.2696  -47.3807  -78.3575 H         1 006         0.0366
     50 H5        -11.0206  -46.9306  -76.7890 H         1 006         0.0366
     51 H6        -13.5371  -46.7021  -79.0788 H         1 006         0.0471
     52 H7        -15.3377  -48.3543  -79.4734 H         1 006         0.0489
     53 H8        -15.0695  -50.6867  -78.6883 H         1 006         0.0471
     54 H9        -12.0286  -51.9391  -76.8832 H         1 006         0.0366
     55 H10       -13.0581  -52.4670  -78.2572 H         1 006         0.0366
     56 H11       -13.8118  -52.0292  -76.6866 H         1 006         0.0366
     57 H12        -8.2753  -50.2239  -76.2508 H         1 006         0.1859
     58 H13        -8.1527  -52.2948  -74.0737 H         1 006         0.0630
     59 H14        -6.5762  -53.4157  -75.8836 H         1 006         0.0451
     60 H15        -7.4405  -52.3365  -77.0304 H         1 006         0.0451
     61 H16        -7.9522  -55.0044  -74.4403 H         1 006         0.0557
     62 H17        -9.8614  -56.5894  -74.5080 H         1 006         0.0599
     63 H18       -11.6416  -56.2990  -76.2097 H         1 006         0.0559
     64 H19       -11.5202  -54.4375  -77.8399 H         1 006         0.0599
     65 H20        -9.6162  -52.8493  -77.7709 H         1 006         0.0557
     66 H21        -5.5614  -51.9385  -74.8914 H         1 006         0.0863
     67 H22        -6.9348  -50.6287  -72.7640 H         1 006         0.2134
     68 H23        -4.0312  -51.5432  -76.6972 H         1 006         0.0640
     69 H24        -3.8575  -51.5364  -74.9094 H         1 006         0.0640
     70 H25        -2.2660  -46.5672  -76.0172 H         1 006         0.0245
     71 H26        -0.9041  -47.7077  -75.7509 H         1 006         0.0245
     72 H27        -2.3112  -47.7129  -74.6344 H         1 006         0.0245
     73 H28        -2.4826  -47.5460  -78.4279 H         1 006         0.0245
     74 H29        -2.6876  -49.3219  -78.6035 H         1 006         0.0245
     75 H30        -1.1184  -48.6498  -78.0443 H         1 006         0.0245
     76 H31        -4.3800  -47.7651  -75.6034 H         1 006         0.0816
     77 H32        -5.7123  -46.7228  -78.8490 H         1 006         0.1881
     78 H33        -3.0682  -46.1696  -77.8857 H         1 006         0.0732
     79 H34        -4.1154  -46.1466  -80.7541 H         1 006         0.0538
     80 H35        -4.3871  -44.2703  -82.3811 H         1 006         0.0541
     81 H36        -4.6399  -41.9477  -81.5742 H         1 006         0.0541
     82 H37        -4.6504  -41.4438  -79.1328 H         1 006         0.0537
     83 H38        -5.2513  -42.9109  -76.7105 H         1 006         0.0439
     84 H39        -3.4555  -42.9450  -76.7289 H         1 006         0.0439
     85 H40        -3.6031  -45.1053  -75.9381 H         1 006         0.0659
     86 H41        -5.6540  -46.1744  -75.8494 H         1 006         0.2103
@<TRIPOS>BOND
     1    1    2 2  
     2    2    3 1  
     3    2   13 am 
     4    3    4 1  
     5    4    5 1  
     6    5    6 ar 
     7    5   11 ar 
     8    6    7 1  
     9    6    8 ar 
    10    8    9 ar 
    11    9   10 ar 
    12   10   11 ar 
    13   11   12 1  
    14   13   14 1  
    15   14   15 1  
    16   14   22 1  
    17   15   16 1  
    18   16   17 ar 
    19   16   21 ar 
    20   17   18 ar 
    21   18   19 ar 
    22   19   20 ar 
    23   20   21 ar 
    24   22   23 1  
    25   22   24 1  
    26   24   25 2  
    27   24   26 am 
    28   26   27 1  
    29   26   32 1  
    30   27   28 1  
    31   28   29 1  
    32   29   30 1  
    33   29   31 1  
    34   29   32 1  
    35   32   33 1  
    36   33   34 2  
    37   33   35 am 
    38   35   36 1  
    39   36   37 1  
    40   36   44 1  
    41   37   38 ar 
    42   37   42 ar 
    43   38   39 ar 
    44   39   40 ar 
    45   40   41 ar 
    46   41   42 ar 
    47   42   43 1  
    48   43   44 1  
    49   44   45 1  
    50    3   46 1  
    51    3   47 1  
    52    7   48 1  
    53    7   49 1  
    54    7   50 1  
    55    8   51 1  
    56    9   52 1  
    57   10   53 1  
    58   12   54 1  
    59   12   55 1  
    60   12   56 1  
    61   13   57 1  
    62   14   58 1  
    63   15   59 1  
    64   15   60 1  
    65   17   61 1  
    66   18   62 1  
    67   19   63 1  
    68   20   64 1  
    69   21   65 1  
    70   22   66 1  
    71   23   67 1  
    72   27   68 1  
    73   27   69 1  
    74   30   70 1  
    75   30   71 1  
    76   30   72 1  
    77   31   73 1  
    78   31   74 1  
    79   31   75 1  
    80   32   76 1  
    81   35   77 1  
    82   36   78 1  
    83   38   79 1  
    84   39   80 1  
    85   40   81 1  
    86   41   82 1  
    87   43   83 1  
    88   43   84 1  
    89   44   85 1  
    90   45   86 1  
@<TRIPOS>SUBSTRUCTURE
     1 006         1

