### 
### Created by X-TOOL on Mon Sep 10 21:13:01 2018
### 

@<TRIPOS>MOLECULE
3fpd_ligand
   76    80     1     0     0
SMALL
GAST_HUCK


@<TRIPOS>ATOM
      1 C2          1.8990  -29.1890   46.6310 C.ar      1 Q4A         0.1560
      2 C5          0.0320  -27.4210   47.5100 C.ar      1 Q4A         0.0267
      3 C4         -0.2820  -28.3580   46.5330 C.ar      1 Q4A         0.0078
      4 CAO         4.1570  -30.0370   46.7880 C.3       1 Q4A         0.0381
      5 CAP         4.2220  -30.9210   48.0360 C.3       1 Q4A         0.0082
      6 CAQ         3.2190  -32.0780   47.9980 C.3       1 Q4A        -0.0302
      7 NAR         3.2680  -32.8060   46.7210 N.4       1 Q4A         0.2346
      8 CAU         3.1900  -34.2520   46.9800 C.3       1 Q4A        -0.0430
      9 CAS         2.1260  -32.4060   45.8850 C.3       1 Q4A        -0.0110
     10 CAT         2.4050  -31.0640   45.2060 C.3       1 Q4A         0.0730
     11 NAN         2.8030  -30.0740   46.2170 N.pl3     1 Q4A        -0.2770
     12 N1          2.2270  -28.2860   47.5670 N.ar      1 Q4A        -0.2471
     13 N3          0.6610  -29.2180   46.1170 N.ar      1 Q4A        -0.3043
     14 CAC        -1.5760  -28.4240   46.0270 C.ar      1 Q4A        -0.0244
     15 CAD        -2.5560  -27.5640   46.5130 C.ar      1 Q4A         0.1276
     16 OAL        -3.8120  -27.5720   45.9890 O.3       1 Q4A        -0.3173
     17 CBI        -4.1880  -28.8640   45.5020 C.3       1 Q4A         0.0599
     18 CAE        -2.2460  -26.6430   47.5100 C.ar      1 Q4A         0.1272
     19 OAK        -3.2440  -25.8940   48.0530 O.3       1 Q4A        -0.3230
     20 CBJ        -2.7860  -24.6450   48.5800 C.3       1 Q4A         0.0572
     21 CAF        -0.9470  -26.5650   48.0030 C.ar      1 Q4A        -0.0226
     22 C6          1.3280  -27.3950   48.0120 C.ar      1 Q4A         0.1243
     23 NAM         1.6880  -26.4360   48.8610 N.pl3     1 Q4A        -0.2935
     24 CAV         3.0780  -26.3330   49.3300 C.3       1 Q4A         0.0528
     25 CBA         3.5670  -24.8860   49.2370 C.3       1 Q4A         0.0116
     26 CAZ         4.9520  -24.7390   49.8730 C.3       1 Q4A        -0.0283
     27 CAW         3.1450  -26.8070   50.7840 C.3       1 Q4A         0.0116
     28 CAX         4.5520  -26.5950   51.3450 C.3       1 Q4A        -0.0283
     29 NAY         4.8890  -25.1650   51.2790 N.4       1 Q4A         0.2473
     30 CBB         6.1780  -24.9280   51.9470 C.3       1 Q4A         0.0020
     31 CBC         6.0320  -25.2140   53.4440 C.ar      1 Q4A         0.0014
     32 CBD         5.6540  -24.1930   54.3110 C.ar      1 Q4A        -0.0553
     33 CBE         5.4690  -24.4630   55.6630 C.ar      1 Q4A        -0.0684
     34 CBF         5.6610  -25.7520   56.1510 C.ar      1 Q4A        -0.0687
     35 CBG         6.0420  -26.7740   55.2890 C.ar      1 Q4A        -0.0684
     36 CBH         6.2280  -26.5010   53.9370 C.ar      1 Q4A        -0.0553
     37 H1          4.8771  -30.4054   46.0425 H         1 Q4A         0.0528
     38 H2          4.4092  -29.0017   47.0611 H         1 Q4A         0.0528
     39 H3          4.0082  -30.2996   48.9181 H         1 Q4A         0.0337
     40 H4          5.2365  -31.3382   48.1185 H         1 Q4A         0.0337
     41 H5          2.2054  -31.6745   48.1383 H         1 Q4A         0.0815
     42 H6          3.4517  -32.7771   48.8148 H         1 Q4A         0.0815
     43 H7          4.1294  -32.5927   46.2430 H         1 Q4A         0.2031
     44 H8          3.2265  -34.7979   46.0257 H         1 Q4A         0.0778
     45 H9          2.2470  -34.4815   47.4978 H         1 Q4A         0.0778
     46 H10         4.0381  -34.5579   47.6101 H         1 Q4A         0.0778
     47 H11         1.2299  -32.3132   46.5162 H         1 Q4A         0.0835
     48 H12         1.9545  -33.1727   45.1151 H         1 Q4A         0.0835
     49 H13         1.4962  -30.7176   44.6922 H         1 Q4A         0.0579
     50 H14         3.2165  -31.1859   44.4735 H         1 Q4A         0.0579
     51 H15        -1.8207  -29.1445   45.2550 H         1 Q4A         0.0461
     52 H16        -5.2070  -28.8183   45.0902 H         1 Q4A         0.0579
     53 H17        -4.1585  -29.5900   46.3278 H         1 Q4A         0.0579
     54 H18        -3.4876  -29.1768   44.7136 H         1 Q4A         0.0579
     55 H19        -3.6374  -24.0908   49.0019 H         1 Q4A         0.0573
     56 H20        -2.3265  -24.0535   47.7744 H         1 Q4A         0.0573
     57 H21        -2.0421  -24.8305   49.3688 H         1 Q4A         0.0573
     58 H22        -0.6989  -25.8392   48.7690 H         1 Q4A         0.0541
     59 H23         0.9863  -25.7591   49.1930 H         1 Q4A         0.1902
     60 H24         3.7207  -26.9718   48.7063 H         1 Q4A         0.0571
     61 H25         2.8571  -24.2308   49.7630 H         1 Q4A         0.0340
     62 H26         3.6229  -24.5914   48.1787 H         1 Q4A         0.0340
     63 H27         5.2701  -23.6873   49.8217 H         1 Q4A         0.0815
     64 H28         5.6739  -25.3673   49.3308 H         1 Q4A         0.0815
     65 H29         2.8933  -27.8769   50.8293 H         1 Q4A         0.0340
     66 H30         2.4239  -26.2349   51.3862 H         1 Q4A         0.0340
     67 H31         5.2759  -27.1713   50.7501 H         1 Q4A         0.0815
     68 H32         4.5856  -26.9329   52.3913 H         1 Q4A         0.0815
     69 H33         4.1734  -24.6345   51.7507 H         1 Q4A         0.2048
     70 H34         6.4806  -23.8806   51.8008 H         1 Q4A         0.0980
     71 H35         6.9418  -25.5936   51.5185 H         1 Q4A         0.0980
     72 H36         5.5039  -23.1882   53.9330 H         1 Q4A         0.0558
     73 H37         5.1746  -23.6675   56.3380 H         1 Q4A         0.0599
     74 H38         5.5133  -25.9595   57.2047 H         1 Q4A         0.0559
     75 H39         6.1934  -27.7783   55.6679 H         1 Q4A         0.0599
     76 H40         6.5275  -27.2958   53.2634 H         1 Q4A         0.0558
@<TRIPOS>BOND
     1   11    1 1  
     2    1   12 ar 
     3    1   13 ar 
     4    3    2 ar 
     5    2   21 ar 
     6    2   22 ar 
     7   13    3 ar 
     8    3   14 ar 
     9    4    5 1  
    10    4   11 1  
    11    5    6 1  
    12    6    7 1  
    13    7    8 1  
    14    7    9 1  
    15    9   10 1  
    16   10   11 1  
    17   12   22 ar 
    18   14   15 ar 
    19   15   16 1  
    20   15   18 ar 
    21   16   17 1  
    22   18   19 1  
    23   18   21 ar 
    24   19   20 1  
    25   22   23 1  
    26   23   24 1  
    27   24   25 1  
    28   24   27 1  
    29   25   26 1  
    30   26   29 1  
    31   27   28 1  
    32   28   29 1  
    33   29   30 1  
    34   30   31 1  
    35   31   32 ar 
    36   31   36 ar 
    37   32   33 ar 
    38   33   34 ar 
    39   34   35 ar 
    40   35   36 ar 
    41    4   37 1  
    42    4   38 1  
    43    5   39 1  
    44    5   40 1  
    45    6   41 1  
    46    6   42 1  
    47    7   43 1  
    48    8   44 1  
    49    8   45 1  
    50    8   46 1  
    51    9   47 1  
    52    9   48 1  
    53   10   49 1  
    54   10   50 1  
    55   14   51 1  
    56   17   52 1  
    57   17   53 1  
    58   17   54 1  
    59   20   55 1  
    60   20   56 1  
    61   20   57 1  
    62   21   58 1  
    63   23   59 1  
    64   24   60 1  
    65   25   61 1  
    66   25   62 1  
    67   26   63 1  
    68   26   64 1  
    69   27   65 1  
    70   27   66 1  
    71   28   67 1  
    72   28   68 1  
    73   29   69 1  
    74   30   70 1  
    75   30   71 1  
    76   32   72 1  
    77   33   73 1  
    78   34   74 1  
    79   35   75 1  
    80   36   76 1  
@<TRIPOS>SUBSTRUCTURE
     1 Q4A         1

