### 
### Created by X-TOOL on Mon Sep 10 21:13:02 2018
### 

@<TRIPOS>MOLECULE
3fpm_ligand
   35    37     1     0     0
SMALL
GAST_HUCK


@<TRIPOS>ATOM
      1 C1        232.7380   76.9440  187.1310 C.3       1 793        -0.0375
      2 C2        232.0570   77.8620  186.1110 C.3       1 793         0.0665
      3 C3        231.3810   77.1050  184.9760 C.ar      1 793        -0.0242
      4 C4        229.9790   77.0030  184.8990 C.ar      1 793        -0.0588
      5 C5        229.3670   76.3040  183.8510 C.ar      1 793        -0.0685
      6 C6        230.1460   75.6990  182.8620 C.ar      1 793        -0.0687
      7 C11       232.1270   81.6970  184.1110 C.2       1 793         0.2767
      8 C12       231.4240   80.5540  184.6870 C.2       1 793         0.2775
      9 C13       235.1630   82.6740  183.7030 C.ar      1 793         0.0739
     10 C14       234.4520   83.8650  183.4950 C.ar      1 793        -0.0095
     11 C15       235.1200   84.9720  182.9800 C.ar      1 793         0.0147
     12 C16       237.1120   83.8260  182.8700 C.ar      1 793         0.0147
     13 C17       236.5320   82.6690  183.3790 C.ar      1 793        -0.0095
     14 C7        231.5400   75.7910  182.9210 C.ar      1 793        -0.0685
     15 C8        232.1540   76.4890  183.9700 C.ar      1 793        -0.0588
     16 N1        233.0240   78.8160  185.5670 N.2       1 793        -0.2715
     17 C9        232.7350   79.9590  184.9900 C.2       1 793         0.1831
     18 C10       233.3990   81.0330  184.4480 C.2       1 793         0.1909
     19 O1        231.6850   82.6960  183.6080 O.2       1 793        -0.3228
     20 O2        230.2450   80.3470  184.7860 O.2       1 793        -0.3199
     21 N2        234.6190   81.4720  184.2250 N.2       1 793        -0.2319
     22 N3        236.4350   84.9790  182.6640 N.ar      1 793        -0.2952
     23 H1        233.2037   77.5536  187.9194 H         1 793         0.0267
     24 H2        233.5103   76.3446  186.6267 H         1 793         0.0267
     25 H3        231.9890   76.2747  187.5794 H         1 793         0.0267
     26 H4        231.2781   78.4279  186.6429 H         1 793         0.0642
     27 H5        229.3656   77.4713  185.6603 H         1 793         0.0557
     28 H6        228.2863   76.2323  183.8073 H         1 793         0.0599
     29 H7        229.6710   75.1594  182.0506 H         1 793         0.0559
     30 H8        233.3959   83.9225  183.7323 H         1 793         0.0750
     31 H9        234.5528   85.8823  182.8229 H         1 793         0.0828
     32 H10       238.1675   83.8026  182.6241 H         1 793         0.0828
     33 H11       237.1272   81.7747  183.5242 H         1 793         0.0750
     34 H12       232.1465   75.3220  182.1546 H         1 793         0.0599
     35 H13       233.2352   76.5561  184.0085 H         1 793         0.0557
@<TRIPOS>BOND
     1    2    1 1  
     2    2    3 1  
     3   16    2 1  
     4    3    4 ar 
     5    3   15 ar 
     6    4    5 ar 
     7    5    6 ar 
     8   14    6 ar 
     9    7    8 1  
    10   18    7 1  
    11    7   19 2  
    12   17    8 1  
    13    8   20 2  
    14    9   10 ar 
    15    9   13 ar 
    16   21    9 1  
    17   10   11 ar 
    18   11   22 ar 
    19   13   12 ar 
    20   12   22 ar 
    21   15   14 ar 
    22   17   16 2  
    23   18   17 1  
    24   18   21 2  
    25    1   23 1  
    26    1   24 1  
    27    1   25 1  
    28    2   26 1  
    29    4   27 1  
    30    5   28 1  
    31    6   29 1  
    32   10   30 1  
    33   11   31 1  
    34   12   32 1  
    35   13   33 1  
    36   14   34 1  
    37   15   35 1  
@<TRIPOS>SUBSTRUCTURE
     1 793         1

