### 
### Created by X-TOOL on Mon Sep 10 21:13:01 2018
### 

@<TRIPOS>MOLECULE
3fqa_ligand
   16    16     1     0     0
SMALL
GAST_HUCK


@<TRIPOS>ATOM
      1 C1'         9.9040   25.4340  -30.7060 C.2       1 GAB         0.0599
      2 O1'        10.7560   25.4560  -29.8170 O.co2     1 GAB        -0.5608
      3 O2'         9.3240   26.6300  -30.6540 O.co2     1 GAB        -0.5608
      4 C1          9.5350   24.3720  -31.6530 C.ar      1 GAB        -0.0016
      5 C2         10.2610   23.0100  -31.6460 C.ar      1 GAB        -0.0307
      6 C3          9.7860   22.0260  -32.6700 C.ar      1 GAB         0.0387
      7 C4          8.7130   22.3450  -33.5860 C.ar      1 GAB        -0.0421
      8 C5          8.1030   23.5780  -33.5300 C.ar      1 GAB        -0.0701
      9 C6          8.5190   24.6010  -32.5600 C.ar      1 GAB        -0.0610
     10 N3         10.3720   20.8460  -32.7270 N.pl3     1 GAB        -0.3365
     11 H1         11.0589   22.7817  -30.9486 H         1 GAB         0.0547
     12 H2          8.3890   21.6130  -34.3169 H         1 GAB         0.0536
     13 H3          7.2957   23.7999  -34.2185 H         1 GAB         0.0590
     14 H4          8.0149   25.5607  -32.5564 H         1 GAB         0.0538
     15 H5         11.1361   20.6184  -32.0749 H         1 GAB         0.1718
     16 H6         10.0656   20.1519  -33.4236 H         1 GAB         0.1718
@<TRIPOS>BOND
     1    1    2 ar 
     2    1    3 ar 
     3    1    4 1  
     4    4    5 ar 
     5    4    9 ar 
     6    5    6 ar 
     7    6    7 ar 
     8    6   10 1  
     9    7    8 ar 
    10    8    9 ar 
    11    5   11 1  
    12    7   12 1  
    13    8   13 1  
    14    9   14 1  
    15   10   15 1  
    16   10   16 1  
@<TRIPOS>SUBSTRUCTURE
     1 GAB         1

