### 
### Created by X-TOOL on Mon Sep 10 21:13:01 2018
### 

@<TRIPOS>MOLECULE
3fqe_ligand
   50    52     1     0     0
SMALL
GAST_HUCK


@<TRIPOS>ATOM
      1 C2          3.5330    2.6840   13.5050 C.ar      1 P5C         0.1799
      2 C3          5.3050    1.7830   14.7320 C.ar      1 P5C         0.0213
      3 N1          2.7880    1.5910   13.8060 N.ar      1 P5C        -0.2318
      4 C4          4.5500    0.6520   15.0570 C.ar      1 P5C         0.1078
      5 C6          3.2540    0.5640   14.5730 C.ar      1 P5C         0.1536
      6 C8          5.1530   -0.4330   15.9140 C.2       1 P5C         0.1994
      7 C12         1.1870   -0.7550   14.5180 C.ar      1 P5C         0.0586
      8 C13         0.5200   -0.0250   13.5260 C.ar      1 P5C        -0.0447
      9 C14        -1.4960   -1.3030   13.8770 C.ar      1 P5C        -0.0719
     10 C15        -0.8390   -2.0390   14.8610 C.ar      1 P5C        -0.0555
     11 C16        -0.8150   -0.2850   13.2020 C.ar      1 P5C        -0.0777
     12 C17         0.4910   -1.7640   15.1820 C.ar      1 P5C        -0.0372
     13 C18        -1.5670   -3.1500   15.5790 C.3       1 P5C        -0.0337
     14 O10         4.5090   -1.4290   16.2270 O.2       1 P5C        -0.3927
     15 N9          6.4060   -0.2780   16.3260 N.am      1 P5C        -0.3023
     16 N11         2.4880   -0.5280   14.8710 N.pl3     1 P5C        -0.2537
     17 N5          4.7960    2.7720   13.9710 N.ar      1 P5C        -0.2650
     18 N7          3.0250    3.6840   12.7430 N.pl3     1 P5C        -0.2812
     19 C19         1.6230    3.7360   12.3470 C.3       1 P5C         0.0850
     20 C24         0.7330    4.3980   13.4230 C.3       1 P5C        -0.0004
     21 N25         1.1730    5.7590   13.7050 N.4       1 P5C         0.2224
     22 C23        -0.7270    4.4420   12.9710 C.3       1 P5C        -0.0076
     23 C22        -0.8880    5.1070   11.5950 C.3       1 P5C        -0.0478
     24 C21         0.0330    4.5180   10.5260 C.3       1 P5C        -0.0505
     25 C20         1.4930    4.4390   10.9860 C.3       1 P5C        -0.0241
     26 H1          6.3213    1.8662   15.0999 H         1 P5C         0.0905
     27 H2          1.0506    0.7589   12.9978 H         1 P5C         0.0482
     28 H3         -2.5306   -1.5186   13.6357 H         1 P5C         0.0463
     29 H4         -1.3164    0.2959   12.4363 H         1 P5C         0.0571
     30 H5          0.9873   -2.3401   15.9545 H         1 P5C         0.0474
     31 H6         -2.5964   -3.2201   15.1977 H         1 P5C         0.0389
     32 H7         -1.5893   -2.9365   16.6578 H         1 P5C         0.0389
     33 H8         -1.0457   -4.1028   15.4045 H         1 P5C         0.0389
     34 H9          6.8354   -0.9789   16.8955 H         1 P5C         0.1802
     35 H10         6.9201    0.5396   16.0667 H         1 P5C         0.1802
     36 H11         2.9442   -1.2659   15.4263 H         1 P5C         0.2181
     37 H12         3.6550    4.4370   12.4315 H         1 P5C         0.1882
     38 H13         1.2720    2.7007   12.2248 H         1 P5C         0.0619
     39 H14         0.8029    3.8032   14.3457 H         1 P5C         0.0873
     40 H15         0.5766    6.1660   14.4084 H         1 P5C         0.1998
     41 H16         1.1228    6.3098   12.8623 H         1 P5C         0.1998
     42 H17         2.1238    5.7423   14.0394 H         1 P5C         0.1998
     43 H18        -1.3098    5.0113   13.7101 H         1 P5C         0.0320
     44 H19        -1.1117    3.4130   12.9145 H         1 P5C         0.0320
     45 H20        -0.6633    6.1789   11.6970 H         1 P5C         0.0267
     46 H21        -1.9300    4.9805   11.2660 H         1 P5C         0.0267
     47 H22        -0.0198    5.1506    9.6277 H         1 P5C         0.0266
     48 H23        -0.3148    3.5036   10.2811 H         1 P5C         0.0266
     49 H24         2.0725    3.8779   10.2381 H         1 P5C         0.0290
     50 H25         1.8954    5.4591   11.0718 H         1 P5C         0.0290
@<TRIPOS>BOND
     1    3    1 ar 
     2    1   17 ar 
     3    1   18 1  
     4    4    2 ar 
     5    2   17 ar 
     6    5    3 ar 
     7    5    4 ar 
     8    4    6 1  
     9   16    5 1  
    10    6   14 2  
    11    6   15 am 
    12    8    7 ar 
    13    7   12 ar 
    14    7   16 1  
    15   11    8 ar 
    16    9   10 ar 
    17    9   11 ar 
    18   10   12 ar 
    19   10   13 1  
    20   18   19 1  
    21   19   20 1  
    22   19   25 1  
    23   20   21 1  
    24   20   22 1  
    25   22   23 1  
    26   23   24 1  
    27   24   25 1  
    28    2   26 1  
    29    8   27 1  
    30    9   28 1  
    31   11   29 1  
    32   12   30 1  
    33   13   31 1  
    34   13   32 1  
    35   13   33 1  
    36   15   34 1  
    37   15   35 1  
    38   16   36 1  
    39   18   37 1  
    40   19   38 1  
    41   20   39 1  
    42   21   40 1  
    43   21   41 1  
    44   21   42 1  
    45   22   43 1  
    46   22   44 1  
    47   23   45 1  
    48   23   46 1  
    49   24   47 1  
    50   24   48 1  
    51   25   49 1  
    52   25   50 1  
@<TRIPOS>SUBSTRUCTURE
     1 P5C         1

