### 
### Created by X-TOOL on Mon Sep 10 21:13:01 2018
### 

@<TRIPOS>MOLECULE
3fqh_ligand
   49    52     1     0     0
SMALL
GAST_HUCK


@<TRIPOS>ATOM
      1 O21        -7.4760   -5.9830   10.0950 O.2       1 057        -0.3891
      2 C20        -6.3320   -5.5830   10.3080 C.2       1 057         0.1971
      3 N22        -5.2660   -6.1510    9.7190 N.am      1 057        -0.2800
      4 C23        -5.3000   -7.2850    8.7720 C.3       1 057         0.0698
      5 C26        -6.1700   -8.4520    9.2410 C.3       1 057        -0.0373
      6 C27        -5.8510   -6.8400    7.4120 C.3       1 057        -0.0373
      7 C24        -3.8720   -7.8080    8.5770 C.3       1 057         0.0694
      8 O25        -3.7830   -8.9780    7.7340 O.3       1 057        -0.3925
      9 C15        -6.1710   -4.4170   11.2640 C.ar      1 057         0.0339
     10 C16        -7.3220   -3.9040   11.8780 C.ar      1 057        -0.0559
     11 C18        -7.2430   -2.8290   12.7660 C.ar      1 057        -0.0364
     12 C13        -6.0090   -2.2430   13.0620 C.ar      1 057         0.0753
     13 N11        -5.6610   -1.2140   13.8750 N.pl3     1 057        -0.2587
     14 C19        -6.5910   -0.3970   14.6990 C.3       1 057         0.0439
     15 C12        -4.3280   -1.0210   13.8240 C.2       1 057         0.0471
     16 C17        -4.9210   -3.8370   11.5570 C.ar      1 057        -0.0514
     17 C14        -4.8600   -2.7570   12.4470 C.ar      1 057        -0.0045
     18 C10        -3.8340   -1.9740   12.9510 C.2       1 057         0.0171
     19 C9         -2.4630   -2.0520   12.6570 C.2       1 057         0.0481
     20 N5         -1.6660   -0.9760   12.8130 N.pl3     1 057        -0.2655
     21 C8         -1.8280   -3.1940   12.2020 C.2       1 057        -0.0602
     22 C7         -0.4980   -2.6690   12.1010 C.ar      1 057        -0.0075
     23 C3          0.6540   -3.3310   11.6690 C.ar      1 057        -0.0596
     24 C2          1.8610   -2.6270   11.6320 C.ar      1 057        -0.0545
     25 C6         -0.4200   -1.3350   12.4750 C.ar      1 057         0.1304
     26 N4          0.7610   -0.6660   12.4210 N.ar      1 057        -0.2899
     27 C1          1.8890   -1.2890   12.0190 C.ar      1 057        -0.0093
     28 H1         -4.3679   -5.7718    9.9418 H         1 057         0.1849
     29 H2         -6.1455   -9.2534    8.4879 H         1 057         0.0255
     30 H3         -7.2057   -8.1065    9.3752 H         1 057         0.0255
     31 H4         -5.7846   -8.8356   10.1972 H         1 057         0.0255
     32 H5         -5.8672   -7.6984    6.7243 H         1 057         0.0255
     33 H6         -5.2084   -6.0497    6.9968 H         1 057         0.0255
     34 H7         -6.8727   -6.4528    7.5392 H         1 057         0.0255
     35 H8         -3.4589   -8.0614    9.5645 H         1 057         0.0583
     36 H9         -3.2700   -7.0077    8.1220 H         1 057         0.0583
     37 H10        -4.1266   -8.7730    6.8724 H         1 057         0.2095
     38 H11        -8.2868   -4.3478   11.6605 H         1 057         0.0581
     39 H12        -8.1453   -2.4462   13.2291 H         1 057         0.0559
     40 H13        -6.0195    0.3626   15.2526 H         1 057         0.0573
     41 H14        -7.1196   -1.0486   15.4103 H         1 057         0.0573
     42 H15        -7.3218    0.0995   14.0437 H         1 057         0.0573
     43 H16        -3.7552   -0.2669   14.3616 H         1 057         0.1030
     44 H17        -4.0170   -4.2220   11.0991 H         1 057         0.0609
     45 H18        -1.9622   -0.0435   13.1349 H         1 057         0.2257
     46 H19        -2.2189   -4.1874   11.9866 H         1 057         0.0233
     47 H20         0.6125   -4.3716   11.3680 H         1 057         0.0637
     48 H21         2.7696   -3.1191   11.3042 H         1 057         0.0589
     49 H22         2.8253   -0.7431   11.9971 H         1 057         0.0720
@<TRIPOS>BOND
     1    1    2 2  
     2    2    3 am 
     3    2    9 1  
     4    3    4 1  
     5    4    5 1  
     6    4    6 1  
     7    4    7 1  
     8    7    8 1  
     9    9   10 ar 
    10    9   16 ar 
    11   10   11 ar 
    12   11   12 ar 
    13   12   13 1  
    14   12   17 ar 
    15   13   14 1  
    16   13   15 1  
    17   15   18 2  
    18   16   17 ar 
    19   17   18 1  
    20   18   19 1  
    21   19   20 1  
    22   19   21 2  
    23   20   25 1  
    24   21   22 1  
    25   22   23 ar 
    26   22   25 ar 
    27   23   24 ar 
    28   24   27 ar 
    29   25   26 ar 
    30   26   27 ar 
    31    3   28 1  
    32    5   29 1  
    33    5   30 1  
    34    5   31 1  
    35    6   32 1  
    36    6   33 1  
    37    6   34 1  
    38    7   35 1  
    39    7   36 1  
    40    8   37 1  
    41   10   38 1  
    42   11   39 1  
    43   14   40 1  
    44   14   41 1  
    45   14   42 1  
    46   15   43 1  
    47   16   44 1  
    48   20   45 1  
    49   21   46 1  
    50   23   47 1  
    51   24   48 1  
    52   27   49 1  
@<TRIPOS>SUBSTRUCTURE
     1 057         1

