### 
### Created by X-TOOL on Mon Sep 10 21:13:01 2018
### 

@<TRIPOS>MOLECULE
3fqk_ligand
   54    57     1     0     0
SMALL
GAST_HUCK


@<TRIPOS>ATOM
      1 C1        -50.2710    8.7310    9.1190 C.3       1 79Z        -0.0417
      2 C2        -49.6810    8.8100   10.5370 C.3       1 79Z        -0.0149
      3 C3        -48.9570    8.0160    9.4410 C.3       1 79Z        -0.0417
      4 C4        -45.8720   15.3300   11.0380 C.ar      1 79Z         0.0156
      5 C5        -44.6290   15.3640   10.3860 C.ar      1 79Z        -0.0518
      6 C6        -43.8470   16.4900   10.4890 C.ar      1 79Z        -0.0267
      7 C7        -44.2750   17.5630   11.2610 C.ar      1 79Z         0.1336
      8 C8        -45.4860   17.5330   11.9310 C.ar      1 79Z        -0.0267
      9 C9        -46.2810   16.4050   11.8390 C.ar      1 79Z        -0.0518
     10 C10       -49.1330   10.1460   11.0150 C.ar      1 79Z        -0.0306
     11 C11       -49.5550   10.7340   12.2370 C.ar      1 79Z         0.0616
     12 C12       -49.0370   11.9630   12.6310 C.ar      1 79Z        -0.0185
     13 C13       -48.2210   10.8500   10.2210 C.ar      1 79Z        -0.0769
     14 C14       -47.7060   12.0880   10.6340 C.ar      1 79Z        -0.0105
     15 C15       -48.1210   12.6470   11.8520 C.ar      1 79Z         0.1076
     16 O16       -47.5020   13.8320   12.0340 O.3       1 79Z        -0.2558
     17 C17       -46.6980   14.1150   11.0030 C.2       1 79Z         0.1385
     18 C18       -46.7430   13.0640   10.0750 C.2       1 79Z         0.0616
     19 C19       -46.0340   12.9020    8.8040 C.2       1 79Z         0.1818
     20 O20       -45.2360   11.9890    8.7030 O.2       1 79Z        -0.4005
     21 N21       -46.2930   13.7200    7.7640 N.am      1 79Z        -0.2944
     22 C22       -45.6110   13.5910    6.4680 C.3       1 79Z         0.0183
     23 N23       -50.4380   10.1750   13.1800 N.am      1 79Z        -0.1814
     24 S24       -49.7620    9.3270   14.4520 S.o2      1 79Z         0.0584
     25 O25       -50.5680    8.1660   14.6160 O.2       1 79Z        -0.1501
     26 O26       -48.3820    9.1150   14.2150 O.2       1 79Z        -0.1501
     27 C27       -49.9110   10.4510   15.8670 C.3       1 79Z         0.0788
     28 F28       -43.4910   18.6420   11.3580 F         1 79Z        -0.1823
     29 C29       -51.8880   10.4030   13.1610 C.3       1 79Z         0.0771
     30 C30       -52.6020    9.8930   11.9150 C.3       1 79Z         0.0671
     31 O31       -53.6790   10.8030   11.6810 O.3       1 79Z        -0.3928
     32 H1        -50.2687    9.6207    8.4721 H         1 79Z         0.0287
     33 H2        -51.1844    8.1463    8.9352 H         1 79Z         0.0287
     34 H3        -50.1585    8.2808   11.3748 H         1 79Z         0.0420
     35 H4        -48.0107    8.3917    9.0246 H         1 79Z         0.0287
     36 H5        -48.9265    6.9174    9.4877 H         1 79Z         0.0287
     37 H6        -44.2898   14.5120    9.8079 H         1 79Z         0.0619
     38 H7        -42.8975   16.5407    9.9685 H         1 79Z         0.0607
     39 H8        -45.8075   18.3837   12.5209 H         1 79Z         0.0607
     40 H9        -47.2165   16.3525   12.3841 H         1 79Z         0.0619
     41 H10       -49.3588   12.3955   13.5714 H         1 79Z         0.0386
     42 H11       -47.9072   10.4321    9.2713 H         1 79Z         0.0448
     43 H12       -46.9752   14.4422    7.8786 H         1 79Z         0.1829
     44 H13       -45.9840   14.3631    5.7790 H         1 79Z         0.0482
     45 H14       -45.8112   12.5952    6.0458 H         1 79Z         0.0482
     46 H15       -44.5276   13.7183    6.6095 H         1 79Z         0.0482
     47 H16       -49.4868    9.9722   16.7618 H         1 79Z         0.0487
     48 H17       -50.9723   10.6809   16.0425 H         1 79Z         0.0487
     49 H18       -49.3643   11.3817   15.6552 H         1 79Z         0.0487
     50 H19       -52.0645   11.4861   13.2366 H         1 79Z         0.0575
     51 H20       -52.3246    9.8984   14.0355 H         1 79Z         0.0575
     52 H21       -52.9891    8.8774   12.0845 H         1 79Z         0.0579
     53 H22       -51.9145    9.8849   11.0563 H         1 79Z         0.0579
     54 H23       -54.1610   10.5297   10.9094 H         1 79Z         0.2095
@<TRIPOS>BOND
     1    2    1 1  
     2    3    1 1  
     3    2    3 1  
     4   10    2 1  
     5    4    5 ar 
     6    4    9 ar 
     7   17    4 1  
     8    5    6 ar 
     9    6    7 ar 
    10    8    7 ar 
    11    7   28 1  
    12    9    8 ar 
    13   11   10 ar 
    14   13   10 ar 
    15   12   11 ar 
    16   11   23 1  
    17   15   12 ar 
    18   14   13 ar 
    19   15   14 ar 
    20   14   18 1  
    21   16   15 1  
    22   16   17 1  
    23   17   18 2  
    24   18   19 1  
    25   19   20 2  
    26   19   21 am 
    27   21   22 1  
    28   23   24 am 
    29   23   29 1  
    30   24   25 2  
    31   24   26 2  
    32   24   27 1  
    33   29   30 1  
    34   30   31 1  
    35    1   32 1  
    36    1   33 1  
    37    2   34 1  
    38    3   35 1  
    39    3   36 1  
    40    5   37 1  
    41    6   38 1  
    42    8   39 1  
    43    9   40 1  
    44   12   41 1  
    45   13   42 1  
    46   21   43 1  
    47   22   44 1  
    48   22   45 1  
    49   22   46 1  
    50   27   47 1  
    51   27   48 1  
    52   27   49 1  
    53   29   50 1  
    54   29   51 1  
    55   30   52 1  
    56   30   53 1  
    57   31   54 1  
@<TRIPOS>SUBSTRUCTURE
     1 79Z         1

