### 
### Created by X-TOOL on Mon Sep 10 21:13:00 2018
### 

@<TRIPOS>MOLECULE
3fql_ligand
   54    57     1     0     0
SMALL
GAST_HUCK


@<TRIPOS>ATOM
      1 C1        -14.2680   -9.6220   12.1590 C.3       1 79Z        -0.0417
      2 C2        -14.4440   -9.7210   10.6420 C.3       1 79Z        -0.0149
      3 C3        -13.1480  -10.1830   11.2940 C.3       1 79Z        -0.0417
      4 C4        -18.4190  -16.0240    9.0740 C.ar      1 79Z         0.0156
      5 C5        -17.6810  -17.1960    9.1660 C.ar      1 79Z        -0.0518
      6 C6        -18.2820  -18.3960    8.8350 C.ar      1 79Z        -0.0267
      7 C7        -19.5960  -18.4120    8.3880 C.ar      1 79Z         0.1336
      8 C8        -20.3120  -17.2320    8.2490 C.ar      1 79Z        -0.0267
      9 C9        -19.7190  -16.0230    8.5820 C.ar      1 79Z        -0.0518
     10 C10       -15.4080  -10.7340   10.1300 C.ar      1 79Z        -0.0306
     11 C11       -16.4030  -10.3250    9.2180 C.ar      1 79Z         0.0616
     12 C12       -17.3260  -11.2420    8.7130 C.ar      1 79Z        -0.0185
     13 C13       -15.3580  -12.0760   10.5580 C.ar      1 79Z        -0.0769
     14 C14       -16.2900  -12.9650   10.0380 C.ar      1 79Z        -0.0105
     15 C15       -17.2530  -12.5480    9.1340 C.ar      1 79Z         0.1076
     16 O16       -18.1320  -13.5750    8.7270 O.3       1 79Z        -0.2558
     17 C17       -17.7650  -14.7460    9.3480 C.2       1 79Z         0.1385
     18 C18       -16.5990  -14.4110   10.2110 C.2       1 79Z         0.0616
     19 C19       -15.7860  -15.3060   11.0950 C.2       1 79Z         0.1818
     20 O20       -14.5900  -15.3970   10.8810 O.2       1 79Z        -0.4005
     21 N21       -16.3400  -16.0160   12.0780 N.am      1 79Z        -0.2944
     22 C22       -15.6070  -16.9150   12.9650 C.3       1 79Z         0.0183
     23 N23       -16.5250   -9.0050    8.6980 N.am      1 79Z        -0.1814
     24 S24       -15.9290   -8.7640    7.3020 S.o2      1 79Z         0.0584
     25 O25       -15.1660   -7.5600    7.2420 O.2       1 79Z        -0.1501
     26 O26       -15.0750   -9.8250    6.8270 O.2       1 79Z        -0.1501
     27 C27       -17.2130   -8.6880    6.2330 C.3       1 79Z         0.0788
     28 F28       -20.1480  -19.6000    8.0610 F         1 79Z        -0.1823
     29 C29       -17.2530   -7.9290    9.3200 C.3       1 79Z         0.0771
     30 C30       -17.5750   -8.2540   10.7640 C.3       1 79Z         0.0671
     31 O31       -18.0160   -7.0550   11.3900 O.3       1 79Z        -0.3928
     32 H1        -14.8367  -10.2888   12.8238 H         1 79Z         0.0287
     33 H2        -14.1541   -8.6378   12.6369 H         1 79Z         0.0287
     34 H3        -14.4612   -8.8204   10.0107 H         1 79Z         0.0420
     35 H4        -12.9064  -11.2553   11.3360 H         1 79Z         0.0287
     36 H5        -12.2238   -9.6043   11.1491 H         1 79Z         0.0287
     37 H6        -16.6478  -17.1706    9.4929 H         1 79Z         0.0619
     38 H7        -17.7278  -19.3234    8.9244 H         1 79Z         0.0607
     39 H8        -21.3315  -17.2546    7.8814 H         1 79Z         0.0607
     40 H9        -20.2609  -15.0921    8.4604 H         1 79Z         0.0619
     41 H10       -18.0843  -10.9306    8.0038 H         1 79Z         0.0386
     42 H11       -14.6129  -12.4052   11.2732 H         1 79Z         0.0448
     43 H12       -17.3262  -15.9267   12.2176 H         1 79Z         0.1829
     44 H13       -16.3048  -17.3716   13.6824 H         1 79Z         0.0482
     45 H14       -14.8398  -16.3464   13.5110 H         1 79Z         0.0482
     46 H15       -15.1243  -17.7042   12.3699 H         1 79Z         0.0482
     47 H16       -16.8330   -8.5157    5.2152 H         1 79Z         0.0487
     48 H17       -17.8805   -7.8621    6.5198 H         1 79Z         0.0487
     49 H18       -17.7699   -9.6362    6.2608 H         1 79Z         0.0487
     50 H19       -18.1917   -7.7650    8.7704 H         1 79Z         0.0575
     51 H20       -16.6428   -7.0144    9.2848 H         1 79Z         0.0575
     52 H21       -16.6760   -8.6329   11.2721 H         1 79Z         0.0579
     53 H22       -18.3692   -9.0138   10.8088 H         1 79Z         0.0579
     54 H23       -18.7897   -6.7319   10.9433 H         1 79Z         0.2095
@<TRIPOS>BOND
     1    2    1 1  
     2    3    1 1  
     3    2    3 1  
     4   10    2 1  
     5    4    5 ar 
     6    4    9 ar 
     7   17    4 1  
     8    5    6 ar 
     9    6    7 ar 
    10    8    7 ar 
    11    7   28 1  
    12    9    8 ar 
    13   11   10 ar 
    14   13   10 ar 
    15   12   11 ar 
    16   11   23 1  
    17   15   12 ar 
    18   14   13 ar 
    19   15   14 ar 
    20   14   18 1  
    21   16   15 1  
    22   16   17 1  
    23   17   18 2  
    24   18   19 1  
    25   19   20 2  
    26   19   21 am 
    27   21   22 1  
    28   23   24 am 
    29   23   29 1  
    30   24   25 2  
    31   24   26 2  
    32   24   27 1  
    33   29   30 1  
    34   30   31 1  
    35    1   32 1  
    36    1   33 1  
    37    2   34 1  
    38    3   35 1  
    39    3   36 1  
    40    5   37 1  
    41    6   38 1  
    42    8   39 1  
    43    9   40 1  
    44   12   41 1  
    45   13   42 1  
    46   21   43 1  
    47   22   44 1  
    48   22   45 1  
    49   22   46 1  
    50   27   47 1  
    51   27   48 1  
    52   27   49 1  
    53   29   50 1  
    54   29   51 1  
    55   30   52 1  
    56   30   53 1  
    57   31   54 1  
@<TRIPOS>SUBSTRUCTURE
     1 79Z         1

