### 
### Created by X-TOOL on Mon Sep 10 21:13:01 2018
### 

@<TRIPOS>MOLECULE
3fqs_ligand
   57    60     1     0     0
SMALL
GAST_HUCK


@<TRIPOS>ATOM
      1 N1          2.3230    4.8800   10.1750 N.am      1 585        -0.2201
      2 N2          2.7780    0.2080   14.5220 N.ar      1 585        -0.2368
      3 C3          2.1900    3.5960   10.7240 C.ar      1 585         0.1593
      4 C4          3.9150    0.7920   14.1530 C.ar      1 585         0.1700
      5 C5          1.2540    5.4280    9.5410 C.2       1 585         0.2582
      6 N6          3.0910    3.1620   11.5890 N.ar      1 585        -0.2758
      7 C7          2.7120   -0.5290   15.6230 C.ar      1 585         0.1889
      8 O8          0.1510    3.2330    9.4820 O.3       1 585        -0.3117
      9 C9         -0.0440    4.6500    9.4320 C.3       1 585         0.1659
     10 N10         4.0310    1.5900   13.0240 N.pl3     1 585        -0.2503
     11 C11         5.0510    0.6010   14.9350 C.ar      1 585         0.1903
     12 C12        -2.3270   -0.4880   14.3850 C.ar      1 585         0.1350
     13 C13         1.0940    2.8040   10.3670 C.ar      1 585         0.1279
     14 C14         3.0060    1.9600   12.1470 C.ar      1 585         0.1071
     15 C15        -2.0030   -1.6810   15.0590 C.ar      1 585         0.1025
     16 C16        -1.3660    0.5310   14.2540 C.ar      1 585         0.1025
     17 N17         3.7790   -0.7230   16.3820 N.ar      1 585        -0.2721
     18 C18         0.2540   -0.8560   15.4420 C.ar      1 585         0.0369
     19 C19        -0.7180   -1.8510   15.5750 C.ar      1 585        -0.0289
     20 C20        -0.0750    0.3440   14.7850 C.ar      1 585        -0.0289
     21 N21         1.5190   -1.1250   16.0040 N.pl3     1 585        -0.2568
     22 C22         4.9520   -0.1760   16.0800 C.ar      1 585         0.0345
     23 O23         1.3490    6.5430    9.0750 O.2       1 585        -0.3321
     24 C24         0.9710    1.5310   10.9260 C.ar      1 585        -0.0361
     25 F25         6.2000    1.2050   14.5850 F         1 585        -0.1858
     26 C26         1.9440    1.1070   11.8240 C.ar      1 585        -0.0355
     27 O27        -3.5940   -0.2900   13.8970 O.3       1 585        -0.3368
     28 O28        -1.7420    1.6720   13.5910 O.3       1 585        -0.3307
     29 O29        -2.9520   -2.6650   15.1940 O.3       1 585        -0.3307
     30 C30        -1.0060    5.0790   10.5480 C.3       1 585        -0.0252
     31 C31        -0.6990    4.9680    8.0800 C.3       1 585        -0.0252
     32 C32        -3.7820   -0.8050   12.5770 C.3       1 585         0.0517
     33 C33        -0.7190    2.6820   13.6160 C.3       1 585         0.0562
     34 C34        -2.4020   -3.8060   15.8710 C.3       1 585         0.0562
     35 H1          3.1855    5.3807   10.2487 H         1 585         0.2297
     36 H2          4.9724    1.9482   12.8086 H         1 585         0.2162
     37 H3         -0.4689   -2.7724   16.0888 H         1 585         0.0345
     38 H4          0.6679    1.1274   14.6872 H         1 585         0.0345
     39 H5          1.5605   -1.8225   16.7608 H         1 585         0.2136
     40 H6          5.8152   -0.3340   16.7164 H         1 585         0.0829
     41 H7          0.1373    0.8887   10.6663 H         1 585         0.0576
     42 H8          1.8807    0.1217   12.2714 H         1 585         0.0473
     43 H9         -1.9439    4.5108   10.4621 H         1 585         0.0246
     44 H10        -1.2189    6.1542   10.4554 H         1 585         0.0246
     45 H11        -0.5448    4.8795   11.5265 H         1 585         0.0246
     46 H12        -1.6421    4.4092    7.9890 H         1 585         0.0246
     47 H13        -0.0197    4.6758    7.2657 H         1 585         0.0246
     48 H14        -0.9045    6.0468    8.0168 H         1 585         0.0246
     49 H15        -4.8149   -0.6119   12.2518 H         1 585         0.0564
     50 H16        -3.5939   -1.8888   12.5760 H         1 585         0.0564
     51 H17        -3.0820   -0.3106   11.8874 H         1 585         0.0564
     52 H18        -1.0693    3.5722   13.0730 H         1 585         0.0572
     53 H19         0.1912    2.2940   13.1354 H         1 585         0.0572
     54 H20        -0.4963    2.9526   14.6587 H         1 585         0.0572
     55 H21        -3.1755   -4.5819   15.9695 H         1 585         0.0572
     56 H22        -2.0536   -3.5066   16.8705 H         1 585         0.0572
     57 H23        -1.5557   -4.2035   15.2915 H         1 585         0.0572
@<TRIPOS>BOND
     1    3    1 1  
     2    1    5 am 
     3    2    4 ar 
     4    7    2 ar 
     5    6    3 ar 
     6    3   13 ar 
     7    4   10 1  
     8    4   11 ar 
     9    5    9 1  
    10    5   23 2  
    11   14    6 ar 
    12    7   17 ar 
    13   21    7 1  
    14    8    9 1  
    15   13    8 1  
    16    9   30 1  
    17    9   31 1  
    18   10   14 1  
    19   22   11 ar 
    20   11   25 1  
    21   15   12 ar 
    22   16   12 ar 
    23   12   27 1  
    24   13   24 ar 
    25   14   26 ar 
    26   19   15 ar 
    27   15   29 1  
    28   20   16 ar 
    29   16   28 1  
    30   17   22 ar 
    31   18   19 ar 
    32   18   20 ar 
    33   18   21 1  
    34   24   26 ar 
    35   27   32 1  
    36   28   33 1  
    37   29   34 1  
    38    1   35 1  
    39   10   36 1  
    40   19   37 1  
    41   20   38 1  
    42   21   39 1  
    43   22   40 1  
    44   24   41 1  
    45   26   42 1  
    46   30   43 1  
    47   30   44 1  
    48   30   45 1  
    49   31   46 1  
    50   31   47 1  
    51   31   48 1  
    52   32   49 1  
    53   32   50 1  
    54   32   51 1  
    55   33   52 1  
    56   33   53 1  
    57   33   54 1  
    58   34   55 1  
    59   34   56 1  
    60   34   57 1  
@<TRIPOS>SUBSTRUCTURE
     1 585         1

