### 
### Created by X-TOOL on Mon Sep 10 21:13:01 2018
### 

@<TRIPOS>MOLECULE
3fr2_ligand
   37    40     1     0     0
SMALL
GAST_HUCK


@<TRIPOS>ATOM
      1 O1         17.6020    5.1640    1.0550 O.co2     1 8CA        -0.5641
      2 C7         18.0400    6.0880    1.7230 C.2       1 8CA         0.0576
      3 O2         17.4000    7.2540    1.6380 O.co2     1 8CA        -0.5641
      4 C1         19.1460    5.8400    2.7000 C.ar      1 8CA         0.0321
      5 C2         18.8430    6.0320    4.0380 C.ar      1 8CA        -0.0582
      6 C3         19.7700    5.8230    5.0530 C.ar      1 8CA        -0.0705
      7 C4         21.0780    5.4000    4.8290 C.ar      1 8CA        -0.0646
      8 C5         21.4790    5.1670    3.5260 C.ar      1 8CA         0.0013
      9 C8         22.7360    4.7430    2.8940 C.ar      1 8CA        -0.0018
     10 C13        24.0410    4.3600    3.5350 C.ar      1 8CA        -0.0675
     11 C12        25.1090    4.1730    2.4650 C.ar      1 8CA        -0.0745
     12 C11        24.6450    3.6030    1.1230 C.ar      1 8CA        -0.0727
     13 C10        23.4830    4.3450    0.4410 C.ar      1 8CA        -0.0394
     14 C9         22.4230    4.7350    1.4440 C.ar      1 8CA         0.0715
     15 N1         21.1190    5.1000    1.2200 N.pl3     1 8CA        -0.2456
     16 C6         20.5320    5.3720    2.4010 C.ar      1 8CA         0.0851
     17 C20        20.5110    5.2600   -0.1000 C.3       1 8CA         0.0820
     18 C19        20.1900    4.0500   -0.9260 C.ar      1 8CA        -0.0159
     19 C18        20.2980    2.7770   -0.4000 C.ar      1 8CA        -0.0579
     20 C17        19.9970    1.6790   -1.2080 C.ar      1 8CA        -0.0685
     21 C16        19.5660    1.8730   -2.5200 C.ar      1 8CA        -0.0687
     22 C15        19.4610    3.1610   -3.0410 C.ar      1 8CA        -0.0685
     23 C14        19.7700    4.2570   -2.2390 C.ar      1 8CA        -0.0579
     24 H1         17.8440    6.3580    4.3041 H         1 8CA         0.0607
     25 H2         19.4572    5.9991    6.0759 H         1 8CA         0.0527
     26 H3         21.7647    5.2569    5.6555 H         1 8CA         0.0602
     27 H4         24.1985    4.2354    4.6002 H         1 8CA         0.0578
     28 H5         26.1463    4.4310    2.6454 H         1 8CA         0.0519
     29 H6         25.1075    2.7287    0.6795 H         1 8CA         0.0571
     30 H7         23.4315    4.5599   -0.6202 H         1 8CA         0.0541
     31 H8         21.1999    5.8777   -0.6949 H         1 8CA         0.0745
     32 H9         19.5663    5.8036    0.0485 H         1 8CA         0.0745
     33 H10        20.6125    2.6326    0.6273 H         1 8CA         0.0557
     34 H11        20.0985    0.6739   -0.8149 H         1 8CA         0.0599
     35 H12        19.3117    1.0186   -3.1368 H         1 8CA         0.0559
     36 H13        19.1403    3.3094   -4.0658 H         1 8CA         0.0599
     37 H14        19.6845    5.2633   -2.6328 H         1 8CA         0.0557
@<TRIPOS>BOND
     1    1    2 ar 
     2    2    3 ar 
     3    2    4 1  
     4    4    5 ar 
     5    4   16 ar 
     6    5    6 ar 
     7    6    7 ar 
     8    7    8 ar 
     9    8    9 1  
    10    8   16 ar 
    11    9   10 ar 
    12    9   14 ar 
    13   10   11 ar 
    14   11   12 ar 
    15   12   13 ar 
    16   13   14 ar 
    17   14   15 1  
    18   15   16 1  
    19   15   17 1  
    20   17   18 1  
    21   18   19 ar 
    22   18   23 ar 
    23   19   20 ar 
    24   20   21 ar 
    25   21   22 ar 
    26   22   23 ar 
    27    5   24 1  
    28    6   25 1  
    29    7   26 1  
    30   10   27 1  
    31   11   28 1  
    32   12   29 1  
    33   13   30 1  
    34   17   31 1  
    35   17   32 1  
    36   19   33 1  
    37   20   34 1  
    38   21   35 1  
    39   22   36 1  
    40   23   37 1  
@<TRIPOS>SUBSTRUCTURE
     1 8CA         1

