### 
### Created by X-TOOL on Mon Sep 10 21:13:01 2018
### 

@<TRIPOS>MOLECULE
3fr4_ligand
   44    47     1     0     0
SMALL
GAST_HUCK


@<TRIPOS>ATOM
      1 F27        20.3950    4.6200   -4.4170 F         1 F8A        -0.2263
      2 C24        20.7030    4.9190   -3.1670 C.3       1 F8A         0.3706
      3 F25        21.9640    5.2030   -3.0900 F         1 F8A        -0.2263
      4 F26        19.9950    5.9550   -2.7770 F         1 F8A        -0.2263
      5 C19        20.4010    3.7500   -2.2880 C.ar      1 F8A         0.0515
      6 C20        19.9760    2.5550   -2.8580 C.ar      1 F8A        -0.0379
      7 C21        19.6820    1.4850   -2.0170 C.ar      1 F8A        -0.0392
      8 C22        19.7740    1.5780   -0.6120 C.ar      1 F8A        -0.0405
      9 C23        20.1640    2.7710    0.0000 C.ar      1 F8A        -0.0267
     10 C18        20.4800    3.8660   -0.8070 C.ar      1 F8A         0.0195
     11 C17        20.9260    5.1790   -0.2250 C.3       1 F8A         0.0988
     12 N9         21.4570    5.0260    1.1210 N.pl3     1 F8A        -0.2485
     13 C8         22.7140    4.5740    1.3980 C.2       1 F8A         0.0443
     14 C16        23.8180    4.1210    0.4600 C.3       1 F8A        -0.0000
     15 C15        24.8850    3.4450    1.3050 C.3       1 F8A        -0.0409
     16 C14        25.2600    4.3070    2.5090 C.3       1 F8A        -0.0488
     17 C13        24.1770    4.1370    3.5630 C.3       1 F8A        -0.0420
     18 C7         22.9100    4.5650    2.8620 C.2       1 F8A        -0.0473
     19 C1         20.7670    5.3270    2.2600 C.ar      1 F8A         0.0755
     20 C6         21.6440    5.0790    3.4170 C.ar      1 F8A        -0.0278
     21 C5         21.1880    5.3230    4.7020 C.ar      1 F8A        -0.0767
     22 C4         19.8870    5.8090    4.8690 C.ar      1 F8A        -0.0787
     23 C3         19.0280    6.0820    3.8130 C.ar      1 F8A        -0.0654
     24 C2         19.3660    5.8490    2.4760 C.ar      1 F8A         0.0239
     25 C10        18.2880    6.2340    1.4770 C.2       1 F8A         0.0566
     26 O12        17.7130    7.3010    1.6220 O.co2     1 F8A        -0.5638
     27 O11        17.8730    5.4740    0.4670 O.co2     1 F8A        -0.5638
     28 H1         19.8758    2.4586   -3.9331 H         1 F8A         0.0820
     29 H2         19.3707    0.5451   -2.4582 H         1 F8A         0.0648
     30 H3         19.5393    0.7139   -0.0011 H         1 F8A         0.0834
     31 H4         20.2203    2.8456    1.0800 H         1 F8A         0.0637
     32 H5         20.0655    5.8634   -0.1916 H         1 F8A         0.0839
     33 H6         21.7089    5.6055   -0.8693 H         1 F8A         0.0839
     34 H7         24.2466    4.9888   -0.0627 H         1 F8A         0.0443
     35 H8         23.4165    3.4103   -0.2774 H         1 F8A         0.0443
     36 H9         25.7808    3.2800    0.6883 H         1 F8A         0.0289
     37 H10        24.5017    2.4774    1.6612 H         1 F8A         0.0289
     38 H11        25.3246    5.3627    2.2069 H         1 F8A         0.0278
     39 H12        26.2295    3.9815    2.9139 H         1 F8A         0.0278
     40 H13        24.3764    4.7777    4.4346 H         1 F8A         0.0321
     41 H14        24.1086    3.0880    3.8869 H         1 F8A         0.0321
     42 H15        21.8256    5.1413    5.5596 H         1 F8A         0.0536
     43 H16        19.5301    5.9819    5.8778 H         1 F8A         0.0509
     44 H17        18.0505    6.4947    4.0349 H         1 F8A         0.0541
@<TRIPOS>BOND
     1    1    2 1  
     2    2    3 1  
     3    2    4 1  
     4    2    5 1  
     5    5    6 ar 
     6    5   10 ar 
     7    6    7 ar 
     8    7    8 ar 
     9    8    9 ar 
    10    9   10 ar 
    11   10   11 1  
    12   11   12 1  
    13   12   13 1  
    14   12   19 1  
    15   13   14 1  
    16   13   18 2  
    17   14   15 1  
    18   15   16 1  
    19   16   17 1  
    20   17   18 1  
    21   18   20 1  
    22   19   20 ar 
    23   19   24 ar 
    24   20   21 ar 
    25   21   22 ar 
    26   22   23 ar 
    27   23   24 ar 
    28   24   25 1  
    29   25   26 ar 
    30   25   27 ar 
    31    6   28 1  
    32    7   29 1  
    33    8   30 1  
    34    9   31 1  
    35   11   32 1  
    36   11   33 1  
    37   14   34 1  
    38   14   35 1  
    39   15   36 1  
    40   15   37 1  
    41   16   38 1  
    42   16   39 1  
    43   17   40 1  
    44   17   41 1  
    45   21   42 1  
    46   22   43 1  
    47   23   44 1  
@<TRIPOS>SUBSTRUCTURE
     1 F8A         1

