### 
### Created by X-TOOL on Mon Sep 10 21:13:01 2018
### 

@<TRIPOS>MOLECULE
3fr5_ligand
   48    51     1     0     0
SMALL
GAST_HUCK


@<TRIPOS>ATOM
      1 O27        16.9070    4.7650    2.8130 O.co2     1 I4A        -0.5638
      2 C25        17.5870    5.7870    2.7560 C.2       1 I4A         0.0566
      3 O26        17.2000    6.7600    1.9360 O.co2     1 I4A        -0.5638
      4 C4         18.8160    5.9430    3.5890 C.ar      1 I4A         0.0238
      5 C6         20.0840    5.2170    3.3170 C.ar      1 I4A         0.0746
      6 C7         21.2260    5.4290    4.2370 C.ar      1 I4A        -0.0278
      7 C9         22.3000    4.5840    3.6710 C.2       1 I4A        -0.0474
      8 C10        23.7130    4.3500    4.1200 C.3       1 I4A        -0.0421
      9 C12        24.6820    4.6820    2.9900 C.3       1 I4A        -0.0505
     10 C14        24.8500    3.6190    1.9050 C.3       1 I4A        -0.0504
     11 C13        23.5870    3.6330    1.0130 C.3       1 I4A        -0.0417
     12 C11        22.3440    2.9480    1.5820 C.3       1 I4A        -0.0002
     13 C8         21.6590    3.9210    2.4900 C.2       1 I4A         0.0434
     14 C3         21.0790    6.2990    5.3200 C.ar      1 I4A        -0.0767
     15 C2         19.8700    6.9620    5.5400 C.ar      1 I4A        -0.0787
     16 C1         18.7760    6.7830    4.6900 C.ar      1 I4A        -0.0654
     17 N5         20.3970    4.3160    2.3490 N.pl3     1 I4A        -0.2538
     18 C15        19.5810    3.8280    1.2600 C.3       1 I4A         0.0844
     19 C16        19.9060    4.4160   -0.0950 C.ar      1 I4A        -0.0093
     20 C17        19.6180    3.6300   -1.1970 C.ar      1 I4A        -0.0381
     21 C18        19.9060    4.0940   -2.4740 C.ar      1 I4A         0.0430
     22 C22        19.6230    3.2120   -3.6530 C.2       1 I4A         0.2008
     23 N24        20.2560    3.5060   -4.7760 N.am      1 I4A        -0.3001
     24 O23        18.8790    2.2320   -3.5540 O.2       1 I4A        -0.3849
     25 C19        20.4610    5.3610   -2.6760 C.ar      1 I4A        -0.0489
     26 C20        20.7220    6.1590   -1.5630 C.ar      1 I4A        -0.0628
     27 C21        20.4640    5.6840   -0.2710 C.ar      1 I4A        -0.0535
     28 H1         23.8344    3.2946    4.4054 H         1 I4A         0.0321
     29 H2         23.9307    4.9916    4.9866 H         1 I4A         0.0321
     30 H3         25.6702    4.8616    3.4384 H         1 I4A         0.0276
     31 H4         24.3269    5.6028    2.5042 H         1 I4A         0.0276
     32 H5         24.9666    2.6286    2.3692 H         1 I4A         0.0268
     33 H6         25.7378    3.8456    1.2964 H         1 I4A         0.0268
     34 H7         23.8405    3.1333    0.0664 H         1 I4A         0.0288
     35 H8         23.3288    4.6838    0.8153 H         1 I4A         0.0288
     36 H9         22.6371    2.0513    2.1476 H         1 I4A         0.0443
     37 H10        21.6677    2.6605    0.7635 H         1 I4A         0.0443
     38 H11        21.9110    6.4609    5.9957 H         1 I4A         0.0536
     39 H12        19.7784    7.6301    6.3887 H         1 I4A         0.0509
     40 H13        17.8596    7.3226    4.9001 H         1 I4A         0.0541
     41 H14        18.5307    4.0603    1.4898 H         1 I4A         0.0759
     42 H15        19.7104    2.7374    1.1987 H         1 I4A         0.0759
     43 H16        19.1680    2.6529   -1.0636 H         1 I4A         0.0608
     44 H17        20.1057    2.9516   -5.5946 H         1 I4A         0.1808
     45 H18        20.8851    4.2827   -4.8068 H         1 I4A         0.1808
     46 H19        20.6835    5.7152   -3.6760 H         1 I4A         0.0611
     47 H20        21.1278    7.1550   -1.6987 H         1 I4A         0.0611
     48 H21        20.6969    6.2993    0.5905 H         1 I4A         0.0593
@<TRIPOS>BOND
     1    1    2 ar 
     2    2    3 ar 
     3    2    4 1  
     4    4    5 ar 
     5    4   16 ar 
     6    5    6 ar 
     7    5   17 1  
     8    6    7 1  
     9    6   14 ar 
    10    7    8 1  
    11    7   13 2  
    12    8    9 1  
    13    9   10 1  
    14   10   11 1  
    15   11   12 1  
    16   12   13 1  
    17   13   17 1  
    18   14   15 ar 
    19   15   16 ar 
    20   17   18 1  
    21   18   19 1  
    22   19   20 ar 
    23   19   27 ar 
    24   20   21 ar 
    25   21   22 1  
    26   21   25 ar 
    27   22   23 am 
    28   22   24 2  
    29   25   26 ar 
    30   26   27 ar 
    31    8   28 1  
    32    8   29 1  
    33    9   30 1  
    34    9   31 1  
    35   10   32 1  
    36   10   33 1  
    37   11   34 1  
    38   11   35 1  
    39   12   36 1  
    40   12   37 1  
    41   14   38 1  
    42   15   39 1  
    43   16   40 1  
    44   18   41 1  
    45   18   42 1  
    46   20   43 1  
    47   23   44 1  
    48   23   45 1  
    49   25   46 1  
    50   26   47 1  
    51   27   48 1  
@<TRIPOS>SUBSTRUCTURE
     1 I4A         1

