### 
### Created by X-TOOL on Mon Sep 10 21:13:04 2018
### 

@<TRIPOS>MOLECULE
3frg_ligand
   43    45     1     0     0
SMALL
GAST_HUCK


@<TRIPOS>ATOM
      1 O23        50.3210   48.5390   64.3570 O.2       1 SK4        -0.1698
      2 S18        49.8820   48.1920   65.6740 S.o2      1 SK4        -0.0056
      3 O22        50.1050   49.2010   66.6770 O.2       1 SK4        -0.1698
      4 C21        50.6470   46.6940   66.1750 C.3       1 SK4         0.0594
      5 C12        48.1720   47.8010   65.6730 C.ar      1 SK4         0.0921
      6 C17        47.4370   47.9590   66.8300 C.ar      1 SK4        -0.0333
      7 C11        46.0920   47.6760   66.8570 C.ar      1 SK4        -0.0421
      8 C5         45.4740   47.2120   65.7030 C.ar      1 SK4         0.0357
      9 N10        44.1200   46.9460   65.7620 N.ar      1 SK4        -0.3150
     10 C7         43.4960   46.5240   64.6590 C.ar      1 SK4         0.0100
     11 C13        44.1680   46.2840   63.4720 C.ar      1 SK4         0.0973
     12 C8         43.3620   45.8630   62.2700 C.2       1 SK4         0.1973
     13 O14        43.8400   46.0620   61.1630 O.2       1 SK4        -0.3934
     14 N3         42.0550   45.4880   62.4640 N.am      1 SK4        -0.3025
     15 C2         46.2040   47.0490   64.5180 C.ar      1 SK4         0.0430
     16 C6         47.5800   47.3240   64.5180 C.ar      1 SK4        -0.0195
     17 C1         45.5330   46.5720   63.3630 C.ar      1 SK4         0.1132
     18 N4         46.3010   46.3350   62.1680 N.pl3     1 SK4        -0.2583
     19 C9         47.5840   45.6980   62.0060 C.ar      1 SK4         0.0576
     20 C15        48.4160   45.9150   60.9540 C.ar      1 SK4        -0.0098
     21 C19        49.6270   45.2680   60.8670 C.ar      1 SK4         0.0817
     22 O25        50.3940   45.5090   59.7870 O.3       1 SK4        -0.3241
     23 C26        49.9720   46.4110   58.7830 C.3       1 SK4         0.0591
     24 C24        50.0550   44.3820   61.8650 C.ar      1 SK4        -0.0442
     25 C20        49.2200   44.1390   62.9460 C.ar      1 SK4        -0.0793
     26 C16        47.9860   44.8020   62.9980 C.ar      1 SK4        -0.0484
     27 H1         50.4776   45.9221   65.4099 H         1 SK4         0.0468
     28 H2         50.2150   46.3635   67.1311 H         1 SK4         0.0468
     29 H3         51.7278   46.8574   66.2979 H         1 SK4         0.0468
     30 H4         47.9271   48.3113   67.7304 H         1 SK4         0.0674
     31 H5         45.5207   47.8133   67.7679 H         1 SK4         0.0619
     32 H6         42.4245   46.3635   64.6942 H         1 SK4         0.0846
     33 H7         41.4955   45.2038   61.6854 H         1 SK4         0.1802
     34 H8         41.6629   45.4992   63.3838 H         1 SK4         0.1802
     35 H9         48.1715   47.1645   63.6237 H         1 SK4         0.0687
     36 H10        45.8676   46.6719   61.2965 H         1 SK4         0.2199
     37 H11        48.1218   46.6069   60.1731 H         1 SK4         0.0459
     38 H12        50.7365   46.4652   57.9939 H         1 SK4         0.0577
     39 H13        49.8282   47.4087   59.2233 H         1 SK4         0.0577
     40 H14        49.0231   46.0608   58.3507 H         1 SK4         0.0577
     41 H15        51.0210   43.8954   61.7936 H         1 SK4         0.0452
     42 H16        49.5148   43.4528   63.7317 H         1 SK4         0.0562
     43 H17        47.3232   44.6130   63.8347 H         1 SK4         0.0450
@<TRIPOS>BOND
     1    1    2 2  
     2    2    3 2  
     3    2    4 1  
     4    2    5 1  
     5    5    6 ar 
     6    5   16 ar 
     7    6    7 ar 
     8    7    8 ar 
     9    8    9 ar 
    10    8   15 ar 
    11    9   10 ar 
    12   10   11 ar 
    13   11   12 1  
    14   11   17 ar 
    15   12   13 2  
    16   12   14 am 
    17   15   16 ar 
    18   15   17 ar 
    19   17   18 1  
    20   18   19 1  
    21   19   20 ar 
    22   19   26 ar 
    23   20   21 ar 
    24   21   22 1  
    25   21   24 ar 
    26   22   23 1  
    27   24   25 ar 
    28   25   26 ar 
    29    4   27 1  
    30    4   28 1  
    31    4   29 1  
    32    6   30 1  
    33    7   31 1  
    34   10   32 1  
    35   14   33 1  
    36   14   34 1  
    37   16   35 1  
    38   18   36 1  
    39   20   37 1  
    40   23   38 1  
    41   23   39 1  
    42   23   40 1  
    43   24   41 1  
    44   25   42 1  
    45   26   43 1  
@<TRIPOS>SUBSTRUCTURE
     1 SK4         1

