### 
### Created by X-TOOL on Mon Sep 10 21:13:00 2018
### 

@<TRIPOS>MOLECULE
3frz_ligand
   74    78     1     0     0
SMALL
GAST_HUCK


@<TRIPOS>ATOM
      1 O19        44.3910   15.1730   53.4050 O.2       1 AG0        -0.3901
      2 C17        43.3270   14.6420   53.3930 C.2       1 AG0         0.2210
      3 C18        43.0870   13.5250   52.4850 C.2       1 AG0         0.0511
      4 C13        41.8380   12.9230   52.5130 C.2       1 AG0         0.0929
      5 O20        41.5840   11.8920   51.6950 O.3       1 AG0        -0.3232
      6 C1         44.2620   13.0230   51.5630 C.3       1 AG0         0.0162
      7 C9         44.5410   13.8790   50.3340 C.2       1 AG0         0.0583
      8 N8         45.7290   14.0770   49.8250 N.2       1 AG0        -0.1923
      9 N10        43.5340   14.5690   49.6350 N.2       1 AG0        -0.3004
     10 C4         44.1590   15.1600   48.6940 C.2       1 AG0         0.2114
     11 N5         45.4790   14.8470   48.8200 N.pl3     1 AG0        -0.1156
     12 C6         46.3370   15.3880   47.9440 C.2       1 AG0         0.1298
     13 C7         45.8850   16.2230   46.9550 C.2       1 AG0         0.0095
     14 C12        47.7950   15.0410   48.0970 C.3       1 AG0         0.0213
     15 N3         43.6220   15.9730   47.7660 N.2       1 AG0        -0.2722
     16 C2         44.5030   16.4880   46.8930 C.2       1 AG0         0.0169
     17 C11        43.9820   17.4050   45.8200 C.3       1 AG0        -0.0113
     18 O16        42.3030   15.0680   54.1570 O.3       1 AG0        -0.2772
     19 C15        41.0500   14.4180   54.3730 C.3       1 AG0         0.1151
     20 C14        40.6630   13.3270   53.3690 C.3       1 AG0         0.0487
     21 C27        39.9540   15.4580   54.7220 C.3       1 AG0        -0.0051
     22 C23        38.6510   14.9170   55.3320 C.3       1 AG0        -0.0471
     23 C26        39.5430   16.3050   53.5470 C.3       1 AG0        -0.0471
     24 C25        38.1800   16.9360   53.9030 C.3       1 AG0        -0.0527
     25 C24        37.6030   15.9930   54.9470 C.3       1 AG0        -0.0527
     26 C21        41.3930   13.5900   55.6550 C.3       1 AG0        -0.0056
     27 C22        41.9230   14.4070   56.8880 C.3       1 AG0        -0.0123
     28 C29        42.2090   13.4780   58.0000 C.ar      1 AG0        -0.0375
     29 C30        43.4390   12.7680   58.1400 C.ar      1 AG0        -0.0394
     30 C28        41.2750   13.2220   58.9650 C.ar      1 AG0        -0.0394
     31 C33        41.4860   12.3590   59.9760 C.ar      1 AG0         0.0112
     32 C34        40.3700   12.1700   60.9790 C.3       1 AG0        -0.0103
     33 C35        40.6310   12.9700   62.2710 C.3       1 AG0        -0.0535
     34 N32        42.6520   11.6790   60.1470 N.ar      1 AG0        -0.3092
     35 C31        43.5830   11.9150   59.2220 C.ar      1 AG0         0.0112
     36 C36        44.8850   11.1630   59.3880 C.3       1 AG0        -0.0103
     37 C37        44.9860   10.0280   58.3810 C.3       1 AG0        -0.0535
     38 H1         41.6897   12.1712   50.7931 H         1 AG0         0.2572
     39 H2         44.0139   12.0078   51.2199 H         1 AG0         0.0499
     40 H3         45.1792   12.9912   52.1695 H         1 AG0         0.0499
     41 H4         46.5740   16.6681   46.2387 H         1 AG0         0.0469
     42 H5         48.3774   15.5519   47.3161 H         1 AG0         0.0519
     43 H6         47.9253   13.9532   47.9989 H         1 AG0         0.0519
     44 H7         48.1470   15.3646   49.0876 H         1 AG0         0.0519
     45 H8         42.8905   17.5004   45.9174 H         1 AG0         0.0460
     46 H9         44.2269   16.9892   44.8315 H         1 AG0         0.0460
     47 H10        44.4476   18.3959   45.9266 H         1 AG0         0.0460
     48 H11        40.3020   12.4459   53.9198 H         1 AG0         0.0532
     49 H12        39.8610   13.7072   52.7192 H         1 AG0         0.0532
     50 H13        40.4066   16.1237   55.4717 H         1 AG0         0.0334
     51 H14        38.7365   14.8235   56.4247 H         1 AG0         0.0269
     52 H15        38.3895   13.9399   54.8997 H         1 AG0         0.0269
     53 H16        39.4470   15.6810   52.6462 H         1 AG0         0.0269
     54 H17        40.2896   17.0930   53.3694 H         1 AG0         0.0269
     55 H18        37.5286   16.9860   53.0180 H         1 AG0         0.0265
     56 H19        38.3126   17.9459   54.3183 H         1 AG0         0.0265
     57 H20        37.3262   16.5680   55.8429 H         1 AG0         0.0265
     58 H21        36.7092   15.4999   54.5371 H         1 AG0         0.0265
     59 H22        42.1646   12.8548   55.3830 H         1 AG0         0.0323
     60 H23        40.4795   13.0638   55.9689 H         1 AG0         0.0323
     61 H24        41.1599   15.1339   57.2031 H         1 AG0         0.0449
     62 H25        42.8436   14.9399   56.6079 H         1 AG0         0.0449
     63 H26        44.2390   12.8928   57.4192 H         1 AG0         0.0528
     64 H27        40.3224   13.7368   58.9136 H         1 AG0         0.0528
     65 H28        40.2915   11.1018   61.2296 H         1 AG0         0.0449
     66 H29        39.4252   12.5120   60.5314 H         1 AG0         0.0449
     67 H30        39.8017   12.8093   62.9756 H         1 AG0         0.0254
     68 H31        40.7056   14.0408   62.0305 H         1 AG0         0.0254
     69 H32        41.5719   12.6306   62.7287 H         1 AG0         0.0254
     70 H33        44.9343   10.7477   60.4054 H         1 AG0         0.0449
     71 H34        45.7244   11.8571   59.2342 H         1 AG0         0.0449
     72 H35        45.9392    9.4972   58.5212 H         1 AG0         0.0254
     73 H36        44.9410   10.4376   57.3611 H         1 AG0         0.0254
     74 H37        44.1509    9.3282   58.5323 H         1 AG0         0.0254
@<TRIPOS>BOND
     1    1    2 2  
     2    2    3 1  
     3    2   18 1  
     4    3    4 2  
     5    3    6 1  
     6    4    5 1  
     7    4   20 1  
     8    6    7 1  
     9    7    8 2  
    10    7    9 1  
    11    8   11 1  
    12    9   10 2  
    13   10   11 1  
    14   10   15 1  
    15   11   12 1  
    16   12   13 2  
    17   12   14 1  
    18   13   16 1  
    19   15   16 2  
    20   16   17 1  
    21   18   19 1  
    22   19   20 1  
    23   19   21 1  
    24   19   26 1  
    25   21   22 1  
    26   21   23 1  
    27   22   25 1  
    28   23   24 1  
    29   24   25 1  
    30   26   27 1  
    31   27   28 1  
    32   28   29 ar 
    33   28   30 ar 
    34   29   35 ar 
    35   30   31 ar 
    36   31   32 1  
    37   31   34 ar 
    38   32   33 1  
    39   34   35 ar 
    40   35   36 1  
    41   36   37 1  
    42    5   38 1  
    43    6   39 1  
    44    6   40 1  
    45   13   41 1  
    46   14   42 1  
    47   14   43 1  
    48   14   44 1  
    49   17   45 1  
    50   17   46 1  
    51   17   47 1  
    52   20   48 1  
    53   20   49 1  
    54   21   50 1  
    55   22   51 1  
    56   22   52 1  
    57   23   53 1  
    58   23   54 1  
    59   24   55 1  
    60   24   56 1  
    61   25   57 1  
    62   25   58 1  
    63   26   59 1  
    64   26   60 1  
    65   27   61 1  
    66   27   62 1  
    67   29   63 1  
    68   30   64 1  
    69   32   65 1  
    70   32   66 1  
    71   33   67 1  
    72   33   68 1  
    73   33   69 1  
    74   36   70 1  
    75   36   71 1  
    76   37   72 1  
    77   37   73 1  
    78   37   74 1  
@<TRIPOS>SUBSTRUCTURE
     1 AG0         1

