### 
### Created by X-TOOL on Mon Sep 10 21:13:01 2018
### 

@<TRIPOS>MOLECULE
3ft5_ligand
   23    24     1     0     0
SMALL
GAST_HUCK


@<TRIPOS>ATOM
      1 N11        29.0690   11.4690   23.7360 N.pl3     1 MO8        -0.3098
      2 C9         30.1370   10.8790   24.3180 C.ar      1 MO8         0.1630
      3 N8         29.9220   10.1880   25.4460 N.ar      1 MO8        -0.2729
      4 C7         30.8930    9.5420   26.1130 C.ar      1 MO8         0.0222
      5 C12        30.5720    8.7680   27.3700 C.3       1 MO8        -0.0171
      6 C2         32.2570    9.6400   25.5740 C.ar      1 MO8         0.0065
      7 N10        31.3640   10.9910   23.7480 N.ar      1 MO8        -0.2726
      8 C3         32.4450   10.4130   24.3420 C.ar      1 MO8         0.0260
      9 C4         33.8150   10.5850   23.7260 C.3       1 MO8         0.0039
     10 C5         34.5670    9.2840   23.5280 C.3       1 MO8         0.0074
     11 S6         34.2010    8.1650   24.8260 S.3       1 MO8        -0.1473
     12 C1         33.4290    8.9570   26.2130 C.3       1 MO8         0.0269
     13 H1         28.1368   11.3858   24.1661 H         1 MO8         0.1804
     14 H2         29.1875   12.0017   22.8625 H         1 MO8         0.1804
     15 H3         31.4923    8.3137   27.7659 H         1 MO8         0.0425
     16 H4         29.8433    7.9774   27.1378 H         1 MO8         0.0425
     17 H5         30.1468    9.4493   28.1216 H         1 MO8         0.0425
     18 H6         34.4119   11.2333   24.3844 H         1 MO8         0.0468
     19 H7         33.6956   11.0687   22.7453 H         1 MO8         0.0468
     20 H8         35.6479    9.4876   23.5188 H         1 MO8         0.0404
     21 H9         34.2701    8.8358   22.5683 H         1 MO8         0.0404
     22 H10        33.1021    8.2206   26.9619 H         1 MO8         0.0506
     23 H11        34.1061    9.6842   26.6850 H         1 MO8         0.0506
@<TRIPOS>BOND
     1    1    2 1  
     2    2    3 ar 
     3    2    7 ar 
     4    3    4 ar 
     5    4    5 1  
     6    4    6 ar 
     7    6    8 ar 
     8    6   12 1  
     9    7    8 ar 
    10    8    9 1  
    11    9   10 1  
    12   10   11 1  
    13   11   12 1  
    14    1   13 1  
    15    1   14 1  
    16    5   15 1  
    17    5   16 1  
    18    5   17 1  
    19    9   18 1  
    20    9   19 1  
    21   10   20 1  
    22   10   21 1  
    23   12   22 1  
    24   12   23 1  
@<TRIPOS>SUBSTRUCTURE
     1 MO8         1

