### 
### Created by X-TOOL on Mon Sep 10 21:13:02 2018
### 

@<TRIPOS>MOLECULE
3ft8_ligand
   45    48     1     0     0
SMALL
GAST_HUCK


@<TRIPOS>ATOM
      1 F23         8.3260   10.2340   22.3600 F         1 MOJ        -0.1889
      2 C14         7.1430   10.3840   22.9920 C.ar      1 MOJ         0.1265
      3 C13         6.8600   11.5880   23.6500 C.ar      1 MOJ        -0.0249
      4 C12         5.6620   11.8060   24.3170 C.ar      1 MOJ        -0.0091
      5 C17         5.4690   13.1210   25.0240 C.ar      1 MOJ         0.0051
      6 C22         6.4780   13.5900   25.8690 C.ar      1 MOJ         0.0168
      7 N21         6.3380   14.7650   26.4970 N.ar      1 MOJ        -0.2977
      8 C20         5.2340   15.5240   26.3250 C.ar      1 MOJ         0.0097
      9 C19         4.2030   15.1320   25.4920 C.ar      1 MOJ        -0.0350
     10 C18         4.3300   13.8980   24.8410 C.ar      1 MOJ        -0.0369
     11 C15         6.2090    9.3620   22.9690 C.ar      1 MOJ        -0.0336
     12 C16         4.9790    9.5180   23.6320 C.ar      1 MOJ        -0.0589
     13 C11         4.6640   10.7000   24.3170 C.ar      1 MOJ        -0.0282
     14 C9          3.3520   10.8200   25.0090 C.3       1 MOJ         0.0163
     15 C8          3.2900    9.6380   25.9780 C.3       1 MOJ         0.0070
     16 C7          1.9180    9.4860   26.6280 C.2       1 MOJ         0.0515
     17 N24         1.8130    8.7360   27.6370 N.2       1 MOJ        -0.1870
     18 O25         2.9330    8.1470   28.2360 O.3       1 MOJ        -0.2741
     19 C2          0.6880   10.1230   26.0110 C.ar      1 MOJ         0.0377
     20 C10         2.1850   10.7750   24.0050 C.3       1 MOJ         0.0132
     21 C3          0.8350   10.7550   24.6940 C.ar      1 MOJ         0.0367
     22 N4         -0.2430   11.3250   24.1240 N.ar      1 MOJ        -0.2629
     23 C5         -1.4580   11.2810   24.7170 C.ar      1 MOJ         0.1711
     24 N27        -2.5010   11.8300   24.0650 N.pl3     1 MOJ        -0.3058
     25 N6         -1.6590   10.7360   25.9440 N.ar      1 MOJ        -0.2634
     26 C1         -0.6500   10.1520   26.6400 C.ar      1 MOJ         0.0313
     27 C26        -0.9440    9.5570   27.9910 C.3       1 MOJ        -0.0129
     28 H1          7.6028   12.3774   23.6379 H         1 MOJ         0.0599
     29 H2          7.3764   13.0016   26.0168 H         1 MOJ         0.0821
     30 H3          5.1544   16.4664   26.8548 H         1 MOJ         0.0811
     31 H4          3.3286   15.7562   25.3478 H         1 MOJ         0.0706
     32 H5          3.5365   13.5469   24.1913 H         1 MOJ         0.0730
     33 H6          6.4262    8.4413   22.4396 H         1 MOJ         0.0597
     34 H7          4.2593    8.7076   23.6131 H         1 MOJ         0.0550
     35 H8          3.3060   11.7671   25.5665 H         1 MOJ         0.0513
     36 H9          4.0397    9.7902   26.7684 H         1 MOJ         0.0457
     37 H10         3.5222    8.7160   25.4249 H         1 MOJ         0.0457
     38 H11         2.6548    7.6210   28.9765 H         1 MOJ         0.2702
     39 H12         2.2819    9.8681   23.3901 H         1 MOJ         0.0510
     40 H13         2.2394   11.6636   23.3590 H         1 MOJ         0.0510
     41 H14        -2.3640   12.2473   23.1334 H         1 MOJ         0.1831
     42 H15        -3.4355   11.8325   24.4981 H         1 MOJ         0.1831
     43 H16        -2.0062    9.7070   28.2344 H         1 MOJ         0.0447
     44 H17        -0.3205   10.0491   28.7520 H         1 MOJ         0.0447
     45 H18        -0.7203    8.4801   27.9740 H         1 MOJ         0.0447
@<TRIPOS>BOND
     1    1    2 1  
     2    2    3 ar 
     3    2   11 ar 
     4    3    4 ar 
     5    4    5 1  
     6    4   13 ar 
     7    5    6 ar 
     8    5   10 ar 
     9    6    7 ar 
    10    7    8 ar 
    11    8    9 ar 
    12    9   10 ar 
    13   11   12 ar 
    14   12   13 ar 
    15   13   14 1  
    16   14   15 1  
    17   14   20 1  
    18   15   16 1  
    19   16   17 2  
    20   16   19 1  
    21   17   18 1  
    22   19   21 ar 
    23   19   26 ar 
    24   20   21 1  
    25   21   22 ar 
    26   22   23 ar 
    27   23   24 1  
    28   23   25 ar 
    29   25   26 ar 
    30   26   27 1  
    31    3   28 1  
    32    6   29 1  
    33    8   30 1  
    34    9   31 1  
    35   10   32 1  
    36   11   33 1  
    37   12   34 1  
    38   14   35 1  
    39   15   36 1  
    40   15   37 1  
    41   18   38 1  
    42   20   39 1  
    43   20   40 1  
    44   24   41 1  
    45   24   42 1  
    46   27   43 1  
    47   27   44 1  
    48   27   45 1  
@<TRIPOS>SUBSTRUCTURE
     1 MOJ         1

