### 
### Created by X-TOOL on Mon Sep 10 21:13:00 2018
### 

@<TRIPOS>MOLECULE
3fts_ligand
   29    30     1     0     0
SMALL
GAST_HUCK


@<TRIPOS>ATOM
      1 C1        -22.5090    2.8030   -4.5660 C.ar      1 STL         0.0782
      2 C2        -22.4130    1.8130   -5.4950 C.ar      1 STL        -0.0066
      3 C3        -22.9940    0.5960   -5.2880 C.ar      1 STL         0.0782
      4 C4        -23.7010    0.3480   -4.1300 C.ar      1 STL        -0.0400
      5 C5        -23.7860    1.3180   -3.1550 C.ar      1 STL        -0.0478
      6 C6        -23.2220    2.5610   -3.4090 C.ar      1 STL        -0.0400
      7 C7        -24.6220    1.1530   -1.9400 C.2       1 STL        -0.0650
      8 C8        -25.5990    0.2160   -1.9040 C.2       1 STL        -0.0614
      9 C9        -26.5510    0.1850   -0.7630 C.ar      1 STL        -0.0332
     10 C10       -26.2020    0.6590    0.4950 C.ar      1 STL        -0.0606
     11 C11       -27.1540    0.6840    1.5280 C.ar      1 STL        -0.0298
     12 C12       -28.4700    0.2960    1.2850 C.ar      1 STL         0.0914
     13 C13       -28.8250   -0.1360    0.0060 C.ar      1 STL        -0.0298
     14 C14       -27.8720   -0.1770   -1.0040 C.ar      1 STL        -0.0606
     15 O1        -29.4030    0.3230    2.2850 O.3       1 STL        -0.3305
     16 O2        -22.8440   -0.3550   -6.2480 O.3       1 STL        -0.3363
     17 O3        -21.8820    3.9990   -4.8410 O.3       1 STL        -0.3363
     18 H1        -21.8665    1.9942   -6.4135 H         1 STL         0.0461
     19 H2        -24.1894   -0.6091   -3.9870 H         1 STL         0.0441
     20 H3        -23.3440    3.3576   -2.6840 H         1 STL         0.0441
     21 H4        -24.4489    1.7887   -1.0729 H         1 STL         0.0564
     22 H5        -25.6869   -0.5126   -2.7086 H         1 STL         0.0617
     23 H6        -25.1933    1.0103    0.6802 H         1 STL         0.0608
     24 H7        -26.8627    1.0073    2.5208 H         1 STL         0.0554
     25 H8        -29.8451   -0.4397   -0.1993 H         1 STL         0.0554
     26 H9        -28.1633   -0.4969   -1.9979 H         1 STL         0.0608
     27 H10       -29.7408   -0.5538    2.4252 H         1 STL         0.2500
     28 H11       -22.3978   -1.1082   -5.8791 H         1 STL         0.2476
     29 H12       -21.4539    3.9436   -5.6872 H         1 STL         0.2476
@<TRIPOS>BOND
     1    1    2 ar 
     2    1    6 ar 
     3    1   17 1  
     4    2    3 ar 
     5    3    4 ar 
     6    3   16 1  
     7    4    5 ar 
     8    5    6 ar 
     9    5    7 1  
    10    7    8 2  
    11    8    9 1  
    12    9   10 ar 
    13    9   14 ar 
    14   10   11 ar 
    15   11   12 ar 
    16   12   13 ar 
    17   12   15 1  
    18   13   14 ar 
    19    2   18 1  
    20    4   19 1  
    21    6   20 1  
    22    7   21 1  
    23    8   22 1  
    24   10   23 1  
    25   11   24 1  
    26   13   25 1  
    27   14   26 1  
    28   15   27 1  
    29   16   28 1  
    30   17   29 1  
@<TRIPOS>SUBSTRUCTURE
     1 STL         1

