### 
### Created by X-TOOL on Mon Sep 10 21:13:00 2018
### 

@<TRIPOS>MOLECULE
3ftu_ligand
   31    32     1     0     0
SMALL
GAST_HUCK


@<TRIPOS>ATOM
      1 C2         22.4510   -2.8540   -4.4560 C.ar      1 RE2         0.0725
      2 C3         22.1970   -1.7950   -5.3160 C.ar      1 RE2        -0.0129
      3 C4         22.7080   -0.5380   -5.0300 C.ar      1 RE2         0.0725
      4 C8         25.2740    0.1880   -1.6330 C.3       1 RE2        -0.0149
      5 C7         24.5630   -1.1840   -1.7440 C.3       1 RE2        -0.0157
      6 C5         23.4660   -0.3490   -3.8850 C.ar      1 RE2        -0.0434
      7 C6         23.7110   -1.3940   -3.0030 C.ar      1 RE2        -0.0587
      8 C1         23.1920   -2.6480   -3.2970 C.ar      1 RE2        -0.0434
      9 O17        22.4690    0.5210   -5.8800 O.3       1 RE2        -0.3376
     10 O16        21.9240   -4.0800   -4.7300 O.3       1 RE2        -0.3376
     11 C9         26.3430    0.0110   -0.5700 C.ar      1 RE2        -0.0518
     12 C14        26.0100   -0.2870    0.7480 C.ar      1 RE2        -0.0686
     13 C13        27.0200   -0.4690    1.7060 C.ar      1 RE2        -0.0398
     14 C12        28.3740   -0.3470    1.3620 C.ar      1 RE2         0.0805
     15 O15        29.3840   -0.5230    2.3020 O.3       1 RE2        -0.3376
     16 C11        28.6920   -0.0350    0.0490 C.ar      1 RE2        -0.0398
     17 C10        27.6790    0.1520   -0.9140 C.ar      1 RE2        -0.0686
     18 H1         21.6012   -1.9498   -6.2083 H         1 RE2         0.0407
     19 H2         24.5588    0.9675   -1.3317 H         1 RE2         0.0427
     20 H3         25.7314    0.4621   -2.5951 H         1 RE2         0.0427
     21 H4         23.9057   -1.2954   -0.8691 H         1 RE2         0.0443
     22 H5         25.3353   -1.9671   -1.7245 H         1 RE2         0.0443
     23 H6         23.8752    0.6324   -3.6739 H         1 RE2         0.0390
     24 H7         23.3659   -3.4740   -2.6170 H         1 RE2         0.0390
     25 H8         23.2958    0.8585   -6.2039 H         1 RE2         0.2477
     26 H9         21.4520   -4.0437   -5.5536 H         1 RE2         0.2477
     27 H10        24.9688   -0.3788    1.0354 H         1 RE2         0.0530
     28 H11        26.7488   -0.7077    2.7280 H         1 RE2         0.0525
     29 H12        29.2801    0.1134    2.9997 H         1 RE2         0.2458
     30 H13        29.7317    0.0664   -0.2407 H         1 RE2         0.0525
     31 H14        27.9471    0.4083   -1.9326 H         1 RE2         0.0530
@<TRIPOS>BOND
     1    2    1 ar 
     2    1    8 ar 
     3    1   10 1  
     4    3    2 ar 
     5    6    3 ar 
     6    3    9 1  
     7    5    4 1  
     8    4   11 1  
     9    7    5 1  
    10    6    7 ar 
    11    7    8 ar 
    12   11   12 ar 
    13   11   17 ar 
    14   12   13 ar 
    15   13   14 ar 
    16   14   15 1  
    17   14   16 ar 
    18   16   17 ar 
    19    2   18 1  
    20    4   19 1  
    21    4   20 1  
    22    5   21 1  
    23    5   22 1  
    24    6   23 1  
    25    8   24 1  
    26    9   25 1  
    27   10   26 1  
    28   12   27 1  
    29   13   28 1  
    30   15   29 1  
    31   16   30 1  
    32   17   31 1  
@<TRIPOS>SUBSTRUCTURE
     1 RE2         1

