### 
### Created by X-TOOL on Mon Sep 10 21:13:00 2018
### 

@<TRIPOS>MOLECULE
3ftv_ligand
   26    27     1     0     0
SMALL
GAST_HUCK


@<TRIPOS>ATOM
      1 N1        -23.6130   -1.3160    4.8490 N.ar      1 11X        -0.3043
      2 C10       -27.8360   -0.3320    0.9130 C.ar      1 11X        -0.0444
      3 C11       -29.1370   -0.4950    0.4140 C.ar      1 11X        -0.0737
      4 C9        -26.7610   -0.4520    0.0430 C.ar      1 11X         0.0396
      5 C14       -26.9890   -0.7130   -1.3100 C.ar      1 11X        -0.0444
      6 C12       -29.3680   -0.7520   -0.9330 C.ar      1 11X        -0.0751
      7 C13       -28.2890   -0.8490   -1.8130 C.ar      1 11X        -0.0737
      8 C2        -24.1380   -0.4430    4.0100 C.ar      1 11X         0.0144
      9 C4        -24.4010   -2.1070    2.3370 C.ar      1 11X        -0.0385
     10 C5        -23.8500   -3.0100    3.2460 C.ar      1 11X        -0.0404
     11 C6        -23.4500   -2.5780    4.5040 C.ar      1 11X         0.0042
     12 C7        -25.1660    0.2690    1.7930 C.3       1 11X         0.0637
     13 C3        -24.5580   -0.7900    2.7370 C.ar      1 11X         0.0063
     14 N8        -25.5030   -0.3210    0.4740 N.pl3     1 11X        -0.3105
     15 H1        -27.6726   -0.1155    1.9625 H         1 11X         0.0515
     16 H2        -29.9792   -0.4191    1.0922 H         1 11X         0.0583
     17 H3        -26.1448   -0.8121   -1.9827 H         1 11X         0.0515
     18 H4        -30.3812   -0.8764   -1.2978 H         1 11X         0.0505
     19 H5        -28.4546   -1.0268   -2.8694 H         1 11X         0.0583
     20 H6        -24.2447    0.5871    4.3303 H         1 11X         0.0766
     21 H7        -24.6982   -2.4269    1.3448 H         1 11X         0.0679
     22 H8        -23.7336   -4.0518    2.9699 H         1 11X         0.0693
     23 H9        -23.0042   -3.2778    5.2015 H         1 11X         0.0767
     24 H10       -24.4382    1.0809    1.6478 H         1 11X         0.0691
     25 H11       -26.0811    0.6741    2.2496 H         1 11X         0.0691
     26 H12       -24.7363   -0.6426   -0.1340 H         1 11X         0.1783
@<TRIPOS>BOND
     1    8    1 ar 
     2    1   11 ar 
     3    2    3 ar 
     4    4    2 ar 
     5    3    6 ar 
     6    4    5 ar 
     7   14    4 1  
     8    5    7 ar 
     9    7    6 ar 
    10   13    8 ar 
    11    9   10 ar 
    12   13    9 ar 
    13   10   11 ar 
    14   12   13 1  
    15   12   14 1  
    16    2   15 1  
    17    3   16 1  
    18    5   17 1  
    19    6   18 1  
    20    7   19 1  
    21    8   20 1  
    22    9   21 1  
    23   10   22 1  
    24   11   23 1  
    25   12   24 1  
    26   12   25 1  
    27   14   26 1  
@<TRIPOS>SUBSTRUCTURE
     1 11X         1

