### 
### Created by X-TOOL on Mon Sep 10 21:13:00 2018
### 

@<TRIPOS>MOLECULE
3ftw_ligand
   26    27     1     0     0
SMALL
GAST_HUCK


@<TRIPOS>ATOM
      1 N1         15.5980   -1.3120    4.7780 N.ar      1 11X        -0.3043
      2 C10        11.3320   -0.1800    0.9180 C.ar      1 11X        -0.0444
      3 C11        10.0330   -0.3170    0.4390 C.ar      1 11X        -0.0737
      4 C9         12.3840   -0.3470    0.0330 C.ar      1 11X         0.0396
      5 C14        12.1210   -0.6350   -1.3210 C.ar      1 11X        -0.0444
      6 C12         9.7670   -0.6080   -0.8940 C.ar      1 11X        -0.0751
      7 C13        10.8060   -0.7510   -1.8000 C.ar      1 11X        -0.0737
      8 C2         15.0650   -0.3920    3.9850 C.ar      1 11X         0.0144
      9 C4         14.7790   -2.0020    2.2660 C.ar      1 11X        -0.0385
     10 C5         15.3490   -2.9390    3.1380 C.ar      1 11X        -0.0404
     11 C6         15.7620   -2.5660    4.3920 C.ar      1 11X         0.0042
     12 C7         13.9880    0.3790    1.7870 C.3       1 11X         0.0637
     13 C3         14.6340   -0.6900    2.7040 C.ar      1 11X         0.0063
     14 N8         13.6380   -0.2180    0.4680 N.pl3     1 11X        -0.3105
     15 H1         11.5165    0.0523    1.9606 H         1 11X         0.0515
     16 H2          9.2035   -0.1931    1.1258 H         1 11X         0.0583
     17 H3         12.9500   -0.7697   -2.0064 H         1 11X         0.0515
     18 H4          8.7418   -0.7237   -1.2265 H         1 11X         0.0505
     19 H5         10.6093   -0.9467   -2.8479 H         1 11X         0.0583
     20 H6         14.9640    0.6233    4.3511 H         1 11X         0.0766
     21 H7         14.4582   -2.2932    1.2723 H         1 11X         0.0679
     22 H8         15.4648   -3.9684    2.8188 H         1 11X         0.0693
     23 H9         16.2170   -3.2902    5.0580 H         1 11X         0.0767
     24 H10        14.6987    1.2047    1.6349 H         1 11X         0.0691
     25 H11        13.0753    0.7642    2.2651 H         1 11X         0.0691
     26 H12        14.4026   -0.5476   -0.1383 H         1 11X         0.1783
@<TRIPOS>BOND
     1    8    1 ar 
     2    1   11 ar 
     3    2    3 ar 
     4    4    2 ar 
     5    3    6 ar 
     6    4    5 ar 
     7   14    4 1  
     8    5    7 ar 
     9    7    6 ar 
    10   13    8 ar 
    11    9   10 ar 
    12   13    9 ar 
    13   10   11 ar 
    14   12   13 1  
    15   12   14 1  
    16    2   15 1  
    17    3   16 1  
    18    5   17 1  
    19    6   18 1  
    20    7   19 1  
    21    8   20 1  
    22    9   21 1  
    23   10   22 1  
    24   11   23 1  
    25   12   24 1  
    26   12   25 1  
    27   14   26 1  
@<TRIPOS>SUBSTRUCTURE
     1 11X         1

