### 
### Created by X-TOOL on Mon Sep 10 21:13:01 2018
### 

@<TRIPOS>MOLECULE
3fty_ligand
   27    28     1     0     0
SMALL
GAST_HUCK


@<TRIPOS>ATOM
      1 N1         23.8930    1.7210    1.1220 N.pl3     1 3IP        -0.3248
      2 C2         23.7380    1.4650    2.4410 C.ar      1 3IP         0.1404
      3 N3         22.9250    2.2560    3.1830 N.ar      1 3IP        -0.2969
      4 C4         22.7220    2.0690    4.4920 C.ar      1 3IP        -0.0168
      5 C5         23.3660    1.0310    5.1340 C.ar      1 3IP        -0.0579
      6 C6         24.1990    0.2040    4.3920 C.ar      1 3IP        -0.0250
      7 C7         24.4110    0.4010    3.0310 C.ar      1 3IP         0.1400
      8 O8         25.2760   -0.4310    2.3280 O.3       1 3IP        -0.3030
      9 C9         25.3510   -0.4470    0.8890 C.3       1 3IP         0.1033
     10 C10        26.6530   -0.0240    0.2150 C.ar      1 3IP        -0.0130
     11 C11        27.8790   -0.0240    0.8770 C.ar      1 3IP        -0.0578
     12 C12        29.0440    0.3650    0.1980 C.ar      1 3IP        -0.0685
     13 C13        29.0150    0.7410   -1.1460 C.ar      1 3IP        -0.0687
     14 C14        27.7930    0.7250   -1.8140 C.ar      1 3IP        -0.0685
     15 C15        26.6260    0.3480   -1.1390 C.ar      1 3IP        -0.0578
     16 H1         24.5088    1.1250    0.5506 H         1 3IP         0.1735
     17 H2         23.3952    2.5119    0.6889 H         1 3IP         0.1735
     18 H3         22.0585    2.7260    5.0426 H         1 3IP         0.0677
     19 H4         23.2245    0.8646    6.1958 H         1 3IP         0.0566
     20 H5         24.6992   -0.6199    4.8881 H         1 3IP         0.0611
     21 H6         24.5621    0.2231    0.5169 H         1 3IP         0.0776
     22 H7         25.1398   -1.4770    0.5659 H         1 3IP         0.0776
     23 H8         27.9330   -0.3246    1.9171 H         1 3IP         0.0557
     24 H9         29.9886    0.3737    0.7297 H         1 3IP         0.0599
     25 H10        29.9229    1.0386   -1.6581 H         1 3IP         0.0559
     26 H11        27.7454    1.0054   -2.8600 H         1 3IP         0.0599
     27 H12        25.6822    0.3431   -1.6723 H         1 3IP         0.0557
@<TRIPOS>BOND
     1    1    2 1  
     2    2    3 ar 
     3    2    7 ar 
     4    3    4 ar 
     5    4    5 ar 
     6    5    6 ar 
     7    6    7 ar 
     8    7    8 1  
     9    8    9 1  
    10    9   10 1  
    11   10   11 ar 
    12   10   15 ar 
    13   11   12 ar 
    14   12   13 ar 
    15   13   14 ar 
    16   14   15 ar 
    17    1   16 1  
    18    1   17 1  
    19    4   18 1  
    20    5   19 1  
    21    6   20 1  
    22    9   21 1  
    23    9   22 1  
    24   11   23 1  
    25   12   24 1  
    26   13   25 1  
    27   14   26 1  
    28   15   27 1  
@<TRIPOS>SUBSTRUCTURE
     1 3IP         1

