### 
### Created by X-TOOL on Mon Sep 10 21:13:03 2018
### 

@<TRIPOS>MOLECULE
3ftz_ligand
   27    28     1     0     0
SMALL
GAST_HUCK


@<TRIPOS>ATOM
      1 N1         24.3580    1.6590    0.9140 N.pl3     1 848        -0.3402
      2 C2         23.9950    1.5070    2.2030 C.ar      1 848         0.0658
      3 C3         23.1290    2.4260    2.7870 C.ar      1 848        -0.0529
      4 C7         24.4800    0.4330    2.9370 C.ar      1 848         0.1116
      5 C6         24.0750    0.3150    4.2630 C.ar      1 848        -0.0442
      6 C5         23.2270    1.2390    4.8560 C.ar      1 848        -0.0841
      7 C4         22.7400    2.2990    4.1120 C.ar      1 848        -0.0850
      8 O8         25.3560   -0.4980    2.4090 O.3       1 848        -0.3099
      9 C9         25.4960   -0.7850    1.0100 C.3       1 848         0.1074
     10 C10        26.7120   -0.1700    0.3280 C.ar      1 848         0.0148
     11 C15        27.9110    0.0360    1.0020 C.ar      1 848        -0.0379
     12 C14        29.0040    0.5880    0.3170 C.ar      1 848        -0.0404
     13 C13        28.8950    0.9110   -1.0350 C.ar      1 848         0.0042
     14 N12        27.7300    0.6880   -1.6710 N.ar      1 848        -0.3043
     15 C11        26.6570    0.1680   -1.0300 C.ar      1 848         0.0151
     16 H1         23.9989    2.4554    0.3683 H         1 848         0.1685
     17 H2         24.9945    0.9788    0.4746 H         1 848         0.1685
     18 H3         22.7526    3.2540    2.1973 H         1 848         0.0480
     19 H4         24.4326   -0.5234    4.8498 H         1 848         0.0502
     20 H5         22.9472    1.1310    5.8977 H         1 848         0.0477
     21 H6         22.0643    3.0196    4.5583 H         1 848         0.0489
     22 H7         24.5968   -0.4132    0.4970 H         1 848         0.0789
     23 H8         25.5595   -1.8770    0.8936 H         1 848         0.0789
     24 H9         28.0005   -0.2281    2.0495 H         1 848         0.0679
     25 H10        29.9366    0.7640    0.8408 H         1 848         0.0693
     26 H11        29.7381    1.3364   -1.5672 H         1 848         0.0767
     27 H12        25.7360    0.0099   -1.5793 H         1 848         0.0766
@<TRIPOS>BOND
     1    1    2 1  
     2    2    3 ar 
     3    2    4 ar 
     4    3    7 ar 
     5    4    5 ar 
     6    4    8 1  
     7    5    6 ar 
     8    6    7 ar 
     9    8    9 1  
    10    9   10 1  
    11   10   11 ar 
    12   10   15 ar 
    13   11   12 ar 
    14   12   13 ar 
    15   13   14 ar 
    16   14   15 ar 
    17    1   16 1  
    18    1   17 1  
    19    3   18 1  
    20    5   19 1  
    21    6   20 1  
    22    7   21 1  
    23    9   22 1  
    24    9   23 1  
    25   11   24 1  
    26   12   25 1  
    27   13   26 1  
    28   15   27 1  
@<TRIPOS>SUBSTRUCTURE
     1 848         1

