### 
### Created by X-TOOL on Mon Sep 10 21:13:00 2018
### 

@<TRIPOS>MOLECULE
3fu0_ligand
   23    24     1     0     0
SMALL
GAST_HUCK


@<TRIPOS>ATOM
      1 F15        29.6910   -0.7530    1.3560 F         1 22F        -0.1791
      2 C12        28.5660   -0.6370    0.6190 C.ar      1 22F         0.1378
      3 C11        28.5360   -0.0180   -0.6350 C.ar      1 22F        -0.0221
      4 C10        27.3520    0.0850   -1.3830 C.ar      1 22F        -0.0449
      5 C13        27.3950   -1.1530    1.1220 C.ar      1 22F        -0.0221
      6 C14        26.2330   -1.0510    0.3660 C.ar      1 22F        -0.0449
      7 C9         26.1810   -0.4690   -0.8880 C.ar      1 22F         0.0321
      8 C7         24.8210   -0.4170   -1.5570 C.2       1 22F         0.1676
      9 O8         24.0040    0.2620   -0.9700 O.2       1 22F        -0.3635
     10 C1         24.2950   -1.1060   -2.8090 C.ar      1 22F         0.0531
     11 C6         23.9340   -2.4480   -2.8180 C.ar      1 22F        -0.0158
     12 C5         23.4180   -3.0300   -3.9750 C.ar      1 22F         0.0169
     13 N4         23.2340   -2.3150   -5.0910 N.ar      1 22F        -0.2917
     14 C3         23.5400   -1.0170   -5.1120 C.ar      1 22F         0.0169
     15 C2         24.0580   -0.3890   -3.9770 C.ar      1 22F        -0.0158
     16 H1         29.4528    0.3939   -1.0410 H         1 22F         0.0617
     17 H2         27.3533    0.5938   -2.3402 H         1 22F         0.0660
     18 H3         27.3782   -1.6324    2.0941 H         1 22F         0.0617
     19 H4         25.3154   -1.4502    0.7827 H         1 22F         0.0660
     20 H5         24.0542   -3.0450   -1.9212 H         1 22F         0.0762
     21 H6         23.1607   -4.0830   -3.9705 H         1 22F         0.0837
     22 H7         23.3852   -0.4438   -6.0189 H         1 22F         0.0837
     23 H8         24.2784    0.6719   -4.0069 H         1 22F         0.0762
@<TRIPOS>BOND
     1    1    2 1  
     2    2    3 ar 
     3    2    5 ar 
     4    3    4 ar 
     5    4    7 ar 
     6    5    6 ar 
     7    6    7 ar 
     8    7    8 1  
     9    8    9 2  
    10    8   10 1  
    11   10   11 ar 
    12   10   15 ar 
    13   11   12 ar 
    14   12   13 ar 
    15   13   14 ar 
    16   14   15 ar 
    17    3   16 1  
    18    4   17 1  
    19    5   18 1  
    20    6   19 1  
    21   11   20 1  
    22   12   21 1  
    23   14   22 1  
    24   15   23 1  
@<TRIPOS>SUBSTRUCTURE
     1 22F         1

