### 
### Created by X-TOOL on Mon Sep 10 21:13:00 2018
### 

@<TRIPOS>MOLECULE
3fu3_ligand
   21    22     1     0     0
SMALL
GAST_HUCK


@<TRIPOS>ATOM
      1 O7         -9.5380   21.5230   10.8300 O.3       1 92G        -0.3337
      2 C5         -9.7540   23.9700   13.5300 C.ar      1 92G        -0.0658
      3 C6         -9.2780   23.2740   12.4260 C.ar      1 92G        -0.0344
      4 C1        -10.0040   22.2050   11.9120 C.ar      1 92G         0.0866
      5 C3        -11.6820   22.5300   13.6090 C.ar      1 92G        -0.0658
      6 C2        -11.2060   21.8330   12.5040 C.ar      1 92G        -0.0344
      7 C4        -10.9560   23.5980   14.1220 C.ar      1 92G        -0.0356
      8 C8        -11.4650   24.3450   15.3060 C.2       1 92G        -0.0036
      9 C10       -12.3320   24.5540   17.4020 C.2       1 92G         0.1774
     10 C12       -11.5240   25.7530   15.3370 C.2       1 92G         0.0044
     11 S11       -12.1890   26.2530   16.9200 S.3       1 92G         0.0134
     12 N9        -11.9100   23.7030   16.4420 N.2       1 92G        -0.3161
     13 N13       -12.8110   24.1520   18.6040 N.pl3     1 92G        -0.2981
     14 H1         -8.6897   21.1477   11.0349 H         1 92G         0.2481
     15 H2         -9.1881   24.8035   13.9302 H         1 92G         0.0574
     16 H3         -8.3407   23.5641   11.9652 H         1 92G         0.0541
     17 H4        -12.6193   22.2403   14.0702 H         1 92G         0.0574
     18 H5        -11.7720   20.9995   12.1040 H         1 92G         0.0541
     19 H6        -11.2171   26.4219   14.5343 H         1 92G         0.0619
     20 H7        -12.8695   23.1478   18.8253 H         1 92G         0.1863
     21 H8        -13.1166   24.8506   19.2964 H         1 92G         0.1863
@<TRIPOS>BOND
     1    4    1 1  
     2    2    3 ar 
     3    7    2 ar 
     4    3    4 ar 
     5    6    4 ar 
     6    5    6 ar 
     7    7    5 ar 
     8    8    7 1  
     9    8   10 2  
    10   12    8 1  
    11    9   11 1  
    12    9   12 2  
    13    9   13 1  
    14   10   11 1  
    15    1   14 1  
    16    2   15 1  
    17    3   16 1  
    18    5   17 1  
    19    6   18 1  
    20   10   19 1  
    21   13   20 1  
    22   13   21 1  
@<TRIPOS>SUBSTRUCTURE
     1 92G         1

