### 
### Created by X-TOOL on Mon Sep 10 21:13:01 2018
### 

@<TRIPOS>MOLECULE
3fu5_ligand
   22    23     1     0     0
SMALL
GAST_HUCK


@<TRIPOS>ATOM
      1 N18        34.3770    1.4710    1.6840 N.4       1 492         0.2338
      2 C17        34.2750    2.3060    0.4980 C.3       1 492         0.0123
      3 C8         33.0110    1.9750   -0.2540 C.2       1 492         0.0610
      4 S7         31.6320    1.4920    0.7720 S.3       1 492        -0.0296
      5 C6         30.6100    1.2580   -0.6670 C.2       1 492         0.0334
      6 C10        31.3010    1.5490   -1.8430 C.2       1 492        -0.0797
      7 C9         32.6370    1.9430   -1.6030 C.2       1 492        -0.0694
      8 C1         29.1780    0.8230   -0.5700 C.2       1 492         0.0319
      9 S2         27.9840    0.9590   -1.8720 S.3       1 492        -0.0476
     10 C3         26.6880    0.2600   -0.8360 C.2       1 492        -0.0132
     11 C4         27.2530   -0.0370    0.4070 C.2       1 492        -0.0823
     12 C5         28.6110    0.2650    0.5660 C.2       1 492        -0.0763
     13 H1         35.2237    1.6970    2.1822 H         1 492         0.2011
     14 H2         34.3964    0.5008    1.4112 H         1 492         0.2011
     15 H3         33.5817    1.6364    2.2808 H         1 492         0.2011
     16 H4         35.1441    2.1250   -0.1516 H         1 492         0.1020
     17 H5         34.2550    3.3643    0.7974 H         1 492         0.1020
     18 H6         30.8600    1.4803   -2.8363 H         1 492         0.0407
     19 H7         33.3241    2.2023   -2.4071 H         1 492         0.0316
     20 H8         25.6509    0.0979   -1.1258 H         1 492         0.0680
     21 H9         26.6673   -0.4806    1.2108 H         1 492         0.0407
     22 H10        29.1642    0.0809    1.4858 H         1 492         0.0370
@<TRIPOS>BOND
     1    1    2 1  
     2    2    3 1  
     3    3    4 1  
     4    3    7 2  
     5    4    5 1  
     6    5    6 2  
     7    5    8 1  
     8    6    7 1  
     9    8    9 1  
    10    8   12 2  
    11    9   10 1  
    12   10   11 2  
    13   11   12 1  
    14    1   13 1  
    15    1   14 1  
    16    1   15 1  
    17    2   16 1  
    18    2   17 1  
    19    6   18 1  
    20    7   19 1  
    21   10   20 1  
    22   11   21 1  
    23   12   22 1  
@<TRIPOS>SUBSTRUCTURE
     1 492         1

