### 
### Created by X-TOOL on Mon Sep 10 21:13:00 2018
### 

@<TRIPOS>MOLECULE
3fu6_ligand
   25    26     1     0     0
SMALL
GAST_HUCK


@<TRIPOS>ATOM
      1 C1         25.8510    0.5640    1.3510 C.ar      1 80G        -0.0175
      2 C2         25.5350    1.0840    0.1010 C.ar      1 80G        -0.0612
      3 C3         26.4660    1.0340   -0.9290 C.ar      1 80G        -0.0556
      4 C4         27.7140    0.4620   -0.7100 C.ar      1 80G         0.0008
      5 C5         28.0310   -0.0580    0.5400 C.ar      1 80G        -0.0556
      6 C6         27.0990   -0.0080    1.5700 C.ar      1 80G        -0.0612
      7 C7         24.8520    0.6180    2.4550 C.2       1 80G         0.0305
      8 C9         22.9170    1.4920    3.9530 C.2       1 80G        -0.0073
      9 C10        23.4830    0.2700    4.3210 C.2       1 80G        -0.0762
     10 C11        24.5290   -0.2150    3.5210 C.2       1 80G        -0.0706
     11 C12        28.7270    0.4070   -1.8300 C.3       1 80G        -0.0018
     12 N13        29.7880    1.3610   -1.5700 N.4       1 80G         0.2309
     13 S8         23.7870    2.0420    2.4920 S.3       1 80G        -0.0410
     14 H1         24.5614    1.5288   -0.0701 H         1 80G         0.0593
     15 H2         26.2194    1.4408   -1.9030 H         1 80G         0.0559
     16 H3         29.0048   -0.5023    0.7112 H         1 80G         0.0559
     17 H4         27.3453   -0.4150    2.5440 H         1 80G         0.0593
     18 H5         22.1030    2.0098    4.4583 H         1 80G         0.0728
     19 H6         23.1286   -0.2822    5.1901 H         1 80G         0.0419
     20 H7         25.0404   -1.1563    3.7167 H         1 80G         0.0423
     21 H8         28.2351    0.6562   -2.7818 H         1 80G         0.0980
     22 H9         29.1516   -0.6059   -1.8909 H         1 80G         0.0980
     23 H10        30.4635    1.3241   -2.3172 H         1 80G         0.2008
     24 H11        30.2389    1.1327   -0.6979 H         1 80G         0.2008
     25 H12        29.3990    2.2893   -1.5143 H         1 80G         0.2008
@<TRIPOS>BOND
     1    1    2 ar 
     2    1    6 ar 
     3    7    1 1  
     4    2    3 ar 
     5    3    4 ar 
     6    5    4 ar 
     7    4   11 1  
     8    6    5 ar 
     9    7   10 2  
    10   13    7 1  
    11    8    9 2  
    12    8   13 1  
    13    9   10 1  
    14   11   12 1  
    15    2   14 1  
    16    3   15 1  
    17    5   16 1  
    18    6   17 1  
    19    8   18 1  
    20    9   19 1  
    21   10   20 1  
    22   11   21 1  
    23   11   22 1  
    24   12   23 1  
    25   12   24 1  
    26   12   25 1  
@<TRIPOS>SUBSTRUCTURE
     1 80G         1

