### 
### Created by X-TOOL on Mon Sep 10 21:13:00 2018
### 

@<TRIPOS>MOLECULE
3fud_ligand
   28    29     1     0     0
SMALL
GAST_HUCK


@<TRIPOS>ATOM
      1 C14        -4.3410   18.7510  -24.0810 C.3       1 692        -0.0434
      2 N13        -4.9740   19.1900  -22.8420 N.4       1 692         0.2373
      3 C12        -5.2120   18.2670  -21.7340 C.3       1 692         0.0008
      4 C2         -4.0390   18.2720  -20.7650 C.ar      1 692         0.0096
      5 C3         -2.7490   18.3940  -21.2980 C.ar      1 692        -0.0558
      6 C4         -1.6210   18.4070  -20.4850 C.ar      1 692        -0.0699
      7 C5         -1.7830   18.2900  -19.1120 C.ar      1 692        -0.0699
      8 C6         -3.0550   18.1650  -18.5610 C.ar      1 692        -0.0614
      9 C1         -4.1920   18.1550  -19.3740 C.ar      1 692        -0.0031
     10 C7         -5.5040   18.0090  -18.6680 C.2       1 692         0.0315
     11 C11        -6.8410   18.3310  -18.8860 C.2       1 692        -0.0707
     12 C10        -7.6950   17.9520  -17.8270 C.2       1 692        -0.0764
     13 C9         -7.1320   17.3140  -16.7170 C.2       1 692        -0.0075
     14 S8         -5.3870   17.2110  -17.0840 S.3       1 692        -0.0410
     15 H1         -4.2607   19.6021  -24.7733 H         1 692         0.0777
     16 H2         -4.9488   17.9589  -24.5427 H         1 692         0.0777
     17 H3         -3.3362   18.3611  -23.8613 H         1 692         0.0777
     18 H4         -5.8746   19.5621  -23.0998 H         1 692         0.2025
     19 H5         -4.3969   19.9306  -22.4754 H         1 692         0.2025
     20 H6         -5.3454   17.2508  -22.1334 H         1 692         0.0985
     21 H7         -6.1230   18.5732  -21.1989 H         1 692         0.0985
     22 H8         -2.6272   18.4805  -22.3717 H         1 692         0.0552
     23 H9         -0.6317   18.5069  -20.9167 H         1 692         0.0585
     24 H10        -0.9136   18.2960  -18.4645 H         1 692         0.0557
     25 H11        -3.1655   18.0741  -17.4865 H         1 692         0.0587
     26 H12        -7.1948   18.8282  -19.7880 H         1 692         0.0421
     27 H13        -8.7646   18.1514  -17.8735 H         1 692         0.0418
     28 H14        -7.6450   16.9581  -15.8247 H         1 692         0.0727
@<TRIPOS>BOND
     1    1    2 1  
     2    2    3 1  
     3    3    4 1  
     4    4    5 ar 
     5    4    9 ar 
     6    5    6 ar 
     7    6    7 ar 
     8    7    8 ar 
     9    8    9 ar 
    10    9   10 1  
    11   10   11 2  
    12   10   14 1  
    13   11   12 1  
    14   12   13 2  
    15   13   14 1  
    16    1   15 1  
    17    1   16 1  
    18    1   17 1  
    19    2   18 1  
    20    2   19 1  
    21    3   20 1  
    22    3   21 1  
    23    5   22 1  
    24    6   23 1  
    25    7   24 1  
    26    8   25 1  
    27   11   26 1  
    28   12   27 1  
    29   13   28 1  
@<TRIPOS>SUBSTRUCTURE
     1 692         1

