### 
### Created by X-TOOL on Mon Sep 10 21:13:00 2018
### 

@<TRIPOS>MOLECULE
3fue_ligand
   16    17     1     0     0
SMALL
GAST_HUCK


@<TRIPOS>ATOM
      1 C8         22.4820   -3.0260   -5.5770 C.2       1 11S         0.0215
      2 C9         22.8700   -3.2290   -4.2550 C.2       1 11S        -0.0638
      3 C1         24.3200    0.0370   -4.8090 C.ar      1 11S        -0.0427
      4 C2         24.9350    0.3370   -3.6040 C.ar      1 11S        -0.0625
      5 C3         24.8990   -0.5280   -2.5340 C.ar      1 11S         0.0226
      6 C4         24.2210   -1.7530   -2.6250 C.ar      1 11S        -0.0612
      7 C5         23.6020   -2.0660   -3.8510 C.ar      1 11S        -0.0272
      8 C6         23.6500   -1.1810   -4.9230 C.ar      1 11S         0.0638
      9 CL10       25.7670    0.1420   -1.1100 Cl        1 11S        -0.0819
     10 N7         22.9650   -1.7820   -5.9480 N.pl3     1 11S        -0.2797
     11 H1         21.9095   -3.7126   -6.1989 H         1 11S         0.0933
     12 H2         22.6573   -4.1053   -3.6445 H         1 11S         0.0286
     13 H3         24.3586    0.7307   -5.6411 H         1 11S         0.0545
     14 H4         25.4595    1.2801   -3.5011 H         1 11S         0.0536
     15 H5         24.1752   -2.4337   -1.7826 H         1 11S         0.0543
     16 H6         22.8270   -1.3608   -6.8777 H         1 11S         0.2269
@<TRIPOS>BOND
     1    2    1 2  
     2    1   10 1  
     3    7    2 1  
     4    4    3 ar 
     5    3    8 ar 
     6    5    4 ar 
     7    6    5 ar 
     8    5    9 1  
     9    6    7 ar 
    10    7    8 ar 
    11    8   10 1  
    12    1   11 1  
    13    2   12 1  
    14    3   13 1  
    15    4   14 1  
    16    6   15 1  
    17   10   16 1  
@<TRIPOS>SUBSTRUCTURE
     1 11S         1

