### 
### Created by X-TOOL on Mon Sep 10 21:13:00 2018
### 

@<TRIPOS>MOLECULE
3fuf_ligand
   16    17     1     0     0
SMALL
GAST_HUCK


@<TRIPOS>ATOM
      1 C1         14.2750   -0.0260    4.3190 C.ar      1 14O        -0.0438
      2 C2         13.8010    0.2660    3.0390 C.ar      1 14O        -0.0421
      3 C3         14.0930   -0.5400    1.9480 C.ar      1 14O         0.1141
      4 C4         14.8910   -1.6760    2.1150 C.ar      1 14O        -0.0427
      5 C5         15.3830   -1.9530    3.4010 C.ar      1 14O        -0.0301
      6 C6         15.0730   -1.1400    4.4880 C.ar      1 14O         0.0603
      7 C8         16.3640   -2.8250    5.1840 C.2       1 14O         0.0205
      8 C9         16.2050   -3.0490    3.8130 C.2       1 14O        -0.0654
      9 F10        13.5790   -0.1670    0.7650 F         1 14O        -0.1940
     10 N7         15.7000   -1.6830    5.5640 N.pl3     1 14O        -0.2815
     11 H1         14.0223    0.6076    5.1615 H         1 14O         0.0539
     12 H2         13.1873    1.1476    2.8932 H         1 14O         0.0526
     13 H3         15.1229   -2.3234    1.2771 H         1 14O         0.0511
     14 H4         16.9336   -3.4651    5.8561 H         1 14O         0.0930
     15 H5         16.6081   -3.8592    3.2072 H         1 14O         0.0281
     16 H6         15.6807   -1.2977    6.5190 H         1 14O         0.2260
@<TRIPOS>BOND
     1    1    2 ar 
     2    1    6 ar 
     3    2    3 ar 
     4    3    4 ar 
     5    3    9 1  
     6    4    5 ar 
     7    5    6 ar 
     8    5    8 1  
     9    6   10 1  
    10    8    7 2  
    11    7   10 1  
    12    1   11 1  
    13    2   12 1  
    14    4   13 1  
    15    7   14 1  
    16    8   15 1  
    17   10   16 1  
@<TRIPOS>SUBSTRUCTURE
     1 14O         1

