### 
### Created by X-TOOL on Mon Sep 10 21:13:00 2018
### 

@<TRIPOS>MOLECULE
3fuh_ligand
   17    18     1     0     0
SMALL
GAST_HUCK


@<TRIPOS>ATOM
      1 O10        27.0100   86.7500    0.3160 O.3       1 5H1        -0.3418
      2 C5         26.1960   86.8480   -0.7710 C.ar      1 5H1         0.0695
      3 C6         26.3050   87.9610   -1.6140 C.ar      1 5H1        -0.0456
      4 C7         25.4650   88.0660   -2.7250 C.ar      1 5H1        -0.0486
      5 C8         24.5400   87.0550   -2.9880 C.ar      1 5H1         0.0544
      6 N1         23.6070   86.8500   -3.9570 N.pl3     1 5H1        -0.2845
      7 C4         25.2550   85.8390   -1.0310 C.ar      1 5H1        -0.0495
      8 C9         24.4270   85.9560   -2.1450 C.ar      1 5H1        -0.0378
      9 C3         23.4190   85.0500   -2.5970 C.2       1 5H1        -0.0680
     10 C2         22.9370   85.6760   -3.7400 C.2       1 5H1         0.0189
     11 H1         26.8631   87.4939    0.8883 H         1 5H1         0.2443
     12 H2         27.0353   88.7346   -1.4060 H         1 5H1         0.0481
     13 H3         25.5313   88.9279   -3.3791 H         1 5H1         0.0528
     14 H4         23.4294   87.4895   -4.7447 H         1 5H1         0.2246
     15 H5         25.1739   84.9807   -0.3739 H         1 5H1         0.0430
     16 H6         23.1064   84.1047   -2.1558 H         1 5H1         0.0273
     17 H7         22.1401   85.2882   -4.3728 H         1 5H1         0.0926
@<TRIPOS>BOND
     1    1    2 1  
     2    2    3 ar 
     3    2    7 ar 
     4    3    4 ar 
     5    4    5 ar 
     6    5    6 1  
     7    5    8 ar 
     8    6   10 1  
     9    7    8 ar 
    10    8    9 1  
    11    9   10 2  
    12    1   11 1  
    13    3   12 1  
    14    4   13 1  
    15    6   14 1  
    16    7   15 1  
    17    9   16 1  
    18   10   17 1  
@<TRIPOS>SUBSTRUCTURE
     1 5H1         1

