### 
### Created by X-TOOL on Mon Sep 10 21:13:00 2018
### 

@<TRIPOS>MOLECULE
3fui_ligand
   44    46     1     0     0
SMALL
GAST_HUCK


@<TRIPOS>ATOM
      1 C1S         4.8220   -2.2950   -1.0420 C.3       1 812        -0.0331
      2 N1T         5.7930   -1.6680   -1.9290 N.4       1 812         0.2310
      3 C1R         5.4830   -3.5610   -0.5080 C.3       1 812        -0.0074
      4 C1Q         6.9640   -3.3400   -0.7850 C.3       1 812        -0.0024
      5 C1P         6.9990   -2.4690   -2.0290 C.3       1 812         0.0054
      6 C1O         8.3120   -1.7020   -2.2240 C.3       1 812         0.1100
      7 O1N         8.6590   -0.7850   -1.1960 O.3       1 812        -0.3209
      8 C1K         9.9770   -0.6380   -0.7700 C.ar      1 812         0.0779
      9 C1J        11.0440   -0.8880   -1.6430 C.ar      1 812        -0.0443
     10 C1I        12.3510   -0.7670   -1.1790 C.ar      1 812        -0.0525
     11 C1H        12.6150   -0.3970    0.1560 C.ar      1 812         0.0286
     12 C1M        11.5380   -0.1390    1.0060 C.ar      1 812        -0.0525
     13 C1L        10.2270   -0.2510    0.5530 C.ar      1 812        -0.0443
     14 N1         13.9100   -0.2820    0.5850 N.pl3     1 812        -0.3176
     15 C1G        14.2820    0.2420    1.8950 C.3       1 812         0.0556
     16 C1C        14.7580   -0.8630    2.8540 C.ar      1 812        -0.0221
     17 C1D        15.1470   -0.5440    4.1590 C.ar      1 812        -0.0585
     18 C1E        15.5790   -1.5280    5.0390 C.ar      1 812        -0.0685
     19 C1F        15.6360   -2.8400    4.6190 C.ar      1 812        -0.0687
     20 C1A        15.2540   -3.1770    3.3250 C.ar      1 812        -0.0685
     21 C1B        14.8240   -2.2010    2.4390 C.ar      1 812        -0.0585
     22 H1          3.9071   -2.5487   -1.5976 H         1 812         0.0814
     23 H2          4.5713   -1.6176   -0.2124 H         1 812         0.0814
     24 H3          6.0309   -0.7579   -1.5668 H         1 812         0.2017
     25 H4          5.3861   -1.5689   -2.8459 H         1 812         0.2017
     26 H5          5.1132   -4.4504   -1.0391 H         1 812         0.0319
     27 H6          5.2985   -3.6748    0.5704 H         1 812         0.0319
     28 H7          7.4714   -4.2986   -0.9685 H         1 812         0.0322
     29 H8          7.4444   -2.8269    0.0611 H         1 812         0.0322
     30 H9          6.8982   -3.1209   -2.9092 H         1 812         0.0877
     31 H10         8.2352   -1.1381   -3.1653 H         1 812         0.0665
     32 H11         9.1237   -2.4401   -2.3039 H         1 812         0.0665
     33 H12        10.8534   -1.1733   -2.6713 H         1 812         0.0511
     34 H13        13.1774   -0.9599   -1.8534 H         1 812         0.0490
     35 H14        11.7256    0.1526    2.0331 H         1 812         0.0490
     36 H15         9.4010   -0.0393    1.2223 H         1 812         0.0511
     37 H16        14.6624   -0.5816   -0.0514 H         1 812         0.1748
     38 H17        13.4073    0.7412    2.3374 H         1 812         0.0671
     39 H18        15.0946    0.9721    1.7659 H         1 812         0.0671
     40 H19        15.1108    0.4879    4.4890 H         1 812         0.0557
     41 H20        15.8696   -1.2660    6.0499 H         1 812         0.0599
     42 H21        15.9795   -3.6109    5.2993 H         1 812         0.0559
     43 H22        15.2928   -4.2123    3.0061 H         1 812         0.0599
     44 H23        14.5397   -2.4714    1.4285 H         1 812         0.0557
@<TRIPOS>BOND
     1    1    2 1  
     2    1    3 1  
     3    2    5 1  
     4    3    4 1  
     5    4    5 1  
     6    5    6 1  
     7    6    7 1  
     8    7    8 1  
     9    8    9 ar 
    10    8   13 ar 
    11    9   10 ar 
    12   10   11 ar 
    13   11   12 ar 
    14   11   14 1  
    15   12   13 ar 
    16   14   15 1  
    17   15   16 1  
    18   16   17 ar 
    19   16   21 ar 
    20   17   18 ar 
    21   18   19 ar 
    22   19   20 ar 
    23   20   21 ar 
    24    1   22 1  
    25    1   23 1  
    26    2   24 1  
    27    2   25 1  
    28    3   26 1  
    29    3   27 1  
    30    4   28 1  
    31    4   29 1  
    32    5   30 1  
    33    6   31 1  
    34    6   32 1  
    35    9   33 1  
    36   10   34 1  
    37   12   35 1  
    38   13   36 1  
    39   14   37 1  
    40   15   38 1  
    41   15   39 1  
    42   17   40 1  
    43   18   41 1  
    44   19   42 1  
    45   20   43 1  
    46   21   44 1  
@<TRIPOS>SUBSTRUCTURE
     1 812         1

