### 
### Created by X-TOOL on Mon Sep 10 21:12:59 2018
### 

@<TRIPOS>MOLECULE
3fuj_ligand
   31    33     1     0     0
SMALL
GAST_HUCK


@<TRIPOS>ATOM
      1 C17       -31.0550   -2.9130   -0.4530 C.2       1 00G         0.0145
      2 C16       -32.4660   -3.3690   -0.0690 C.2       1 00G        -0.0873
      3 C15       -33.4640   -2.7030   -1.0070 C.2       1 00G        -0.0873
      4 C14       -32.6800   -1.7590   -1.9200 C.2       1 00G         0.0145
      5 N13       -31.2950   -1.9290   -1.5020 N.pl3     1 00G        -0.2800
      6 C12       -30.2440   -1.1550   -2.1650 C.3       1 00G         0.0806
      7 C11       -28.8440   -1.3330   -1.5640 C.3       1 00G         0.0957
      8 O10       -28.5850   -0.2660   -0.6360 O.3       1 00G        -0.3238
      9 C3        -27.5370   -0.1810    0.2710 C.ar      1 00G         0.0731
     10 C2        -27.6720    0.8050    1.2410 C.ar      1 00G        -0.0453
     11 C4        -26.4050   -0.9950    0.2790 C.ar      1 00G        -0.0492
     12 C5        -25.4130   -0.8020    1.2720 C.ar      1 00G        -0.0378
     13 C9        -24.1840   -1.4980    1.4890 C.2       1 00G        -0.0680
     14 C8        -23.6470   -0.8750    2.6210 C.2       1 00G         0.0189
     15 N7        -24.4830    0.1380    3.0340 N.pl3     1 00G        -0.2845
     16 C6        -25.5610    0.1910    2.2270 C.ar      1 00G         0.0544
     17 C1        -26.6810    0.9880    2.2010 C.ar      1 00G        -0.0486
     18 H1        -30.1024   -3.2439   -0.0418 H         1 00G         0.0796
     19 H2        -32.7141   -4.0549    0.7397 H         1 00G         0.0273
     20 H3        -34.5402   -2.8688   -1.0245 H         1 00G         0.0273
     21 H4        -33.0681   -1.1090   -2.7028 H         1 00G         0.0796
     22 H5        -30.5112   -0.0898   -2.1025 H         1 00G         0.0649
     23 H6        -30.2057   -1.4622   -3.2205 H         1 00G         0.0649
     24 H7        -28.0936   -1.3106   -2.3680 H         1 00G         0.0638
     25 H8        -28.7898   -2.2979   -1.0386 H         1 00G         0.0638
     26 H9        -28.5540    1.4351    1.2500 H         1 00G         0.0481
     27 H10       -26.2847   -1.7701   -0.4693 H         1 00G         0.0430
     28 H11       -23.7644   -2.3194    0.9100 H         1 00G         0.0273
     29 H12       -22.7097   -1.1498    3.1025 H         1 00G         0.0926
     30 H13       -24.3109    0.7600    3.8367 H         1 00G         0.2246
     31 H14       -26.7941    1.7722    2.9408 H         1 00G         0.0528
@<TRIPOS>BOND
     1    1    2 2  
     2    1    5 1  
     3    2    3 1  
     4    3    4 2  
     5    4    5 1  
     6    5    6 1  
     7    6    7 1  
     8    7    8 1  
     9    8    9 1  
    10    9   10 ar 
    11    9   11 ar 
    12   10   17 ar 
    13   11   12 ar 
    14   12   13 1  
    15   12   16 ar 
    16   13   14 2  
    17   14   15 1  
    18   15   16 1  
    19   16   17 ar 
    20    1   18 1  
    21    2   19 1  
    22    3   20 1  
    23    4   21 1  
    24    6   22 1  
    25    6   23 1  
    26    7   24 1  
    27    7   25 1  
    28   10   26 1  
    29   11   27 1  
    30   13   28 1  
    31   14   29 1  
    32   15   30 1  
    33   17   31 1  
@<TRIPOS>SUBSTRUCTURE
     1 00G         1

