### 
### Created by X-TOOL on Mon Sep 10 21:13:00 2018
### 

@<TRIPOS>MOLECULE
3fuk_ligand
   41    43     1     0     0
SMALL
GAST_HUCK


@<TRIPOS>ATOM
      1 O21       -36.3690   -3.7590    2.5380 O.co2     1 58Z        -0.5687
      2 C19       -35.2230   -4.1670    2.2180 C.2       1 58Z         0.0382
      3 O20       -34.2970   -4.1950    3.0580 O.co2     1 58Z        -0.5687
      4 C16       -34.9630   -4.6440    0.7980 C.3       1 58Z         0.0214
      5 C15       -33.5030   -4.9300    0.4550 C.3       1 58Z         0.0020
      6 C14       -32.6090   -3.6810    0.3700 C.3       1 58Z        -0.0300
      7 C17       -35.4290   -3.6440   -0.2550 C.3       1 58Z         0.0020
      8 C18       -34.5970   -2.3800   -0.4460 C.3       1 58Z        -0.0300
      9 N13       -33.1890   -2.7230   -0.5620 N.4       1 58Z         0.2373
     10 C12       -32.3930   -2.0500   -1.5960 C.3       1 58Z        -0.0038
     11 C11       -30.9030   -2.1940   -1.2620 C.3       1 58Z         0.1076
     12 O10       -30.0730   -1.1100   -1.7170 O.3       1 58Z        -0.3214
     13 C3        -29.1020   -0.6670   -0.8350 C.ar      1 58Z         0.0733
     14 C2        -29.4110    0.3420    0.0840 C.ar      1 58Z        -0.0453
     15 C4        -27.8150   -1.2230   -0.8090 C.ar      1 58Z        -0.0492
     16 C5        -26.8650   -0.7640    0.1190 C.ar      1 58Z        -0.0378
     17 C7        -25.5160   -1.2000    0.3110 C.2       1 58Z        -0.0680
     18 C8        -25.0580   -0.4070    1.3500 C.2       1 58Z         0.0189
     19 N9        -26.0600    0.4320    1.7530 N.pl3     1 58Z        -0.2845
     20 C6        -27.1860    0.2330    1.0140 C.ar      1 58Z         0.0544
     21 C1        -28.4620    0.7970    1.0020 C.ar      1 58Z        -0.0486
     22 H1        -35.5315   -5.5772    0.6718 H         1 58Z         0.0470
     23 H2        -33.4729   -5.4404   -0.5189 H         1 58Z         0.0337
     24 H3        -33.0921   -5.5939    1.2298 H         1 58Z         0.0337
     25 H4        -31.6077   -3.9715    0.0194 H         1 58Z         0.0815
     26 H5        -32.5295   -3.2200    1.3656 H         1 58Z         0.0815
     27 H6        -36.4472   -3.3296    0.0176 H         1 58Z         0.0337
     28 H7        -35.4539   -4.1705   -1.2205 H         1 58Z         0.0337
     29 H8        -34.7398   -1.7159    0.4192 H         1 58Z         0.0815
     30 H9        -34.9227   -1.8646   -1.3616 H         1 58Z         0.0815
     31 H10       -33.4042   -3.4706   -1.2030 H         1 58Z         0.2034
     32 H11       -32.6606   -0.9836   -1.6298 H         1 58Z         0.0841
     33 H12       -32.5965   -2.5103   -2.5741 H         1 58Z         0.0841
     34 H13       -30.5371   -3.1222   -1.7251 H         1 58Z         0.0663
     35 H14       -30.8031   -2.2654   -0.1689 H         1 58Z         0.0663
     36 H15       -30.4036    0.7777    0.0833 H         1 58Z         0.0481
     37 H16       -27.5521   -2.0095   -1.5071 H         1 58Z         0.0430
     38 H17       -24.9759   -1.9739   -0.2324 H         1 58Z         0.0273
     39 H18       -24.0576   -0.4455    1.7785 H         1 58Z         0.0926
     40 H19       -25.9743    1.1216    2.5133 H         1 58Z         0.2246
     41 H20       -28.7157    1.5848    1.7020 H         1 58Z         0.0528
@<TRIPOS>BOND
     1    1    2 ar 
     2    2    3 ar 
     3    2    4 1  
     4    4    5 1  
     5    4    7 1  
     6    5    6 1  
     7    6    9 1  
     8    7    8 1  
     9    8    9 1  
    10    9   10 1  
    11   10   11 1  
    12   11   12 1  
    13   12   13 1  
    14   13   14 ar 
    15   13   15 ar 
    16   14   21 ar 
    17   15   16 ar 
    18   16   17 1  
    19   16   20 ar 
    20   17   18 2  
    21   18   19 1  
    22   19   20 1  
    23   20   21 ar 
    24    4   22 1  
    25    5   23 1  
    26    5   24 1  
    27    6   25 1  
    28    6   26 1  
    29    7   27 1  
    30    7   28 1  
    31    8   29 1  
    32    8   30 1  
    33    9   31 1  
    34   10   32 1  
    35   10   33 1  
    36   11   34 1  
    37   11   35 1  
    38   14   36 1  
    39   15   37 1  
    40   17   38 1  
    41   18   39 1  
    42   19   40 1  
    43   21   41 1  
@<TRIPOS>SUBSTRUCTURE
     1 58Z         1

