### 
### Created by X-TOOL on Mon Sep 10 21:13:03 2018
### 

@<TRIPOS>MOLECULE
3ful_ligand
   43    45     1     0     0
SMALL
GAST_HUCK


@<TRIPOS>ATOM
      1 O8        -24.8920    1.1990    2.6490 O.2       1 52D        -0.3672
      2 C7        -25.1170    0.0300    2.4050 C.2       1 52D         0.1624
      3 C9        -24.3440   -1.0220    3.1900 C.ar      1 52D         0.0519
      4 C14       -23.9790   -2.2550    2.6650 C.ar      1 52D        -0.0159
      5 C13       -23.2920   -3.1470    3.4920 C.ar      1 52D         0.0169
      6 N12       -22.9570   -2.8330    4.7470 N.ar      1 52D        -0.2918
      7 C11       -23.2810   -1.6610    5.2760 C.ar      1 52D         0.0169
      8 C10       -23.9650   -0.7440    4.5060 C.ar      1 52D        -0.0159
      9 C6        -26.1770   -0.1650    1.3510 C.ar      1 52D         0.0250
     10 C1        -27.4930    0.2860    1.5550 C.ar      1 52D        -0.0515
     11 C5        -25.8220   -0.7300    0.1470 C.ar      1 52D        -0.0515
     12 C4        -26.7890   -0.8820   -0.8280 C.ar      1 52D        -0.0266
     13 C3        -28.1040   -0.4720   -0.6240 C.ar      1 52D         0.0973
     14 C2        -28.4690    0.1230    0.5760 C.ar      1 52D        -0.0266
     15 O15       -28.9800   -0.6730   -1.6680 O.3       1 52D        -0.3090
     16 C16       -30.3870   -0.6820   -1.5040 C.3       1 52D         0.1115
     17 C17       -31.0370   -1.7890   -2.2990 C.3       1 52D        -0.0032
     18 N23       -32.1620   -2.2520   -1.4770 N.4       1 52D         0.2372
     19 C19       -33.5270   -1.8830   -1.7950 C.3       1 52D        -0.0316
     20 C22       -31.9960   -3.1430   -0.3390 C.3       1 52D        -0.0316
     21 C21       -33.3940   -3.7170   -0.1240 C.3       1 52D        -0.0077
     22 C20       -34.3420   -2.9070   -0.9910 C.3       1 52D        -0.0077
     23 H1        -24.2206   -2.5180    1.6415 H         1 52D         0.0761
     24 H2        -23.0227   -4.1228    3.1042 H         1 52D         0.0837
     25 H3        -23.0119   -1.4270    6.2997 H         1 52D         0.0837
     26 H4        -24.2158    0.2199    4.9337 H         1 52D         0.0761
     27 H5        -27.7519    0.7688    2.4904 H         1 52D         0.0643
     28 H6        -24.8020   -1.0499   -0.0329 H         1 52D         0.0643
     29 H7        -26.5171   -1.3319   -1.7760 H         1 52D         0.0558
     30 H8        -29.4877    0.4521    0.7462 H         1 52D         0.0558
     31 H9        -30.7911    0.2836   -1.8420 H         1 52D         0.0670
     32 H10       -30.6204   -0.8245   -0.4385 H         1 52D         0.0670
     33 H11       -30.3239   -2.6085   -2.4716 H         1 52D         0.0841
     34 H12       -31.3982   -1.4076   -3.2655 H         1 52D         0.0841
     35 H13       -32.0574   -1.4448   -0.8824 H         1 52D         0.2034
     36 H14       -33.7235   -1.9765   -2.8732 H         1 52D         0.0814
     37 H15       -33.7474   -0.8556   -1.4698 H         1 52D         0.0814
     38 H16       -31.6590   -2.5875    0.5486 H         1 52D         0.0814
     39 H17       -31.2748   -3.9415   -0.5675 H         1 52D         0.0814
     40 H18       -33.6805   -3.6286    0.9343 H         1 52D         0.0319
     41 H19       -33.4185   -4.7752   -0.4234 H         1 52D         0.0319
     42 H20       -34.8761   -3.5774   -1.6804 H         1 52D         0.0319
     43 H21       -35.0686   -2.3822   -0.3533 H         1 52D         0.0319
@<TRIPOS>BOND
     1    1    2 2  
     2    2    3 1  
     3    2    9 1  
     4    3    4 ar 
     5    3    8 ar 
     6    4    5 ar 
     7    5    6 ar 
     8    6    7 ar 
     9    7    8 ar 
    10    9   10 ar 
    11    9   11 ar 
    12   10   14 ar 
    13   11   12 ar 
    14   12   13 ar 
    15   13   14 ar 
    16   13   15 1  
    17   15   16 1  
    18   16   17 1  
    19   17   18 1  
    20   18   19 1  
    21   18   20 1  
    22   19   22 1  
    23   20   21 1  
    24   21   22 1  
    25    4   23 1  
    26    5   24 1  
    27    7   25 1  
    28    8   26 1  
    29   10   27 1  
    30   11   28 1  
    31   12   29 1  
    32   14   30 1  
    33   16   31 1  
    34   16   32 1  
    35   17   33 1  
    36   17   34 1  
    37   18   35 1  
    38   19   36 1  
    39   19   37 1  
    40   20   38 1  
    41   20   39 1  
    42   21   40 1  
    43   21   41 1  
    44   22   42 1  
    45   22   43 1  
@<TRIPOS>SUBSTRUCTURE
     1 52D         1

