### 
### Created by X-TOOL on Mon Sep 10 21:13:00 2018
### 

@<TRIPOS>MOLECULE
3fum_ligand
   45    47     1     0     0
SMALL
GAST_HUCK


@<TRIPOS>ATOM
      1 C1        -27.1110   -0.3150   -1.5110 C.ar      1 80A        -0.0639
      2 C2        -28.1710   -0.1470   -0.6170 C.ar      1 80A        -0.0389
      3 C3        -27.9010    0.5350    0.5600 C.ar      1 80A         0.0847
      4 C4        -26.6120    1.0170    0.8040 C.ar      1 80A        -0.0389
      5 C5        -25.5680    0.8570   -0.0960 C.ar      1 80A        -0.0639
      6 C6        -25.8240    0.2040   -1.2730 C.ar      1 80A        -0.0120
      7 C7        -24.6990   -0.0210   -2.2340 C.3       1 80A         0.1245
      8 O8        -25.1410   -1.1170   -3.0620 O.3       1 80A        -0.3666
      9 C9        -24.1390    1.0830   -3.0920 C.ar      1 80A         0.0146
     10 C14       -23.7850    0.8120   -4.4140 C.ar      1 80A        -0.0283
     11 C13       -23.2530    1.7700   -5.2400 C.ar      1 80A         0.0033
     12 N12       -23.0390    2.9810   -4.7410 N.ar      1 80A        -0.3066
     13 C11       -23.3370    3.2930   -3.4720 C.ar      1 80A         0.0033
     14 C10       -23.8820    2.3530   -2.6040 C.ar      1 80A        -0.0283
     15 O15       -28.8360    0.7540    1.5350 O.3       1 80A        -0.3169
     16 C16       -30.1870    0.9140    1.2060 C.3       1 80A         0.1087
     17 C17       -30.8960    1.8310    2.1880 C.3       1 80A        -0.0037
     18 N23       -32.0240    2.3380    1.4070 N.4       1 80A         0.2371
     19 C19       -33.3710    1.9340    1.7270 C.3       1 80A        -0.0316
     20 C20       -34.2220    2.7990    0.7780 C.3       1 80A        -0.0077
     21 C21       -33.3240    3.7760    0.0550 C.3       1 80A        -0.0077
     22 C22       -31.8980    3.2600    0.2810 C.3       1 80A        -0.0316
     23 H1        -27.2866   -0.8682   -2.4265 H         1 80A         0.0536
     24 H2        -29.1607   -0.5326   -0.8336 H         1 80A         0.0526
     25 H3        -26.4198    1.5376    1.7352 H         1 80A         0.0526
     26 H4        -24.5777    1.2379    0.1259 H         1 80A         0.0536
     27 H5        -23.8489   -0.3654   -1.6268 H         1 80A         0.0924
     28 H6        -24.4699   -1.3184   -3.7036 H         1 80A         0.2162
     29 H7        -23.9353   -0.1891   -4.8017 H         1 80A         0.0655
     30 H8        -23.0139    1.5436   -6.2728 H         1 80A         0.0803
     31 H9        -23.1493    4.2991   -3.1148 H         1 80A         0.0803
     32 H10       -24.0997    2.6077   -1.5731 H         1 80A         0.0655
     33 H11       -30.6769   -0.0708    1.2194 H         1 80A         0.0665
     34 H12       -30.2602    1.3462    0.1971 H         1 80A         0.0665
     35 H13       -30.2373    2.6511    2.5098 H         1 80A         0.0841
     36 H14       -31.2443    1.2730    3.0696 H         1 80A         0.0841
     37 H15       -31.9209    1.5556    0.7798 H         1 80A         0.2034
     38 H16       -33.6095    2.1484    2.7792 H         1 80A         0.0814
     39 H17       -33.5211    0.8626    1.5280 H         1 80A         0.0814
     40 H18       -34.9742    3.3521    1.3597 H         1 80A         0.0319
     41 H19       -34.7275    2.1528    0.0453 H         1 80A         0.0319
     42 H20       -33.4386    4.7868    0.4735 H         1 80A         0.0319
     43 H21       -33.5610    3.7948   -1.0190 H         1 80A         0.0319
     44 H22       -31.5267    2.7363   -0.6122 H         1 80A         0.0814
     45 H23       -31.2183    4.0884    0.5294 H         1 80A         0.0814
@<TRIPOS>BOND
     1    1    2 ar 
     2    1    6 ar 
     3    2    3 ar 
     4    3    4 ar 
     5    3   15 1  
     6    4    5 ar 
     7    5    6 ar 
     8    6    7 1  
     9    7    8 1  
    10    7    9 1  
    11    9   10 ar 
    12    9   14 ar 
    13   10   11 ar 
    14   11   12 ar 
    15   12   13 ar 
    16   13   14 ar 
    17   15   16 1  
    18   16   17 1  
    19   17   18 1  
    20   18   19 1  
    21   18   22 1  
    22   19   20 1  
    23   20   21 1  
    24   21   22 1  
    25    1   23 1  
    26    2   24 1  
    27    4   25 1  
    28    5   26 1  
    29    7   27 1  
    30    8   28 1  
    31   10   29 1  
    32   11   30 1  
    33   13   31 1  
    34   14   32 1  
    35   16   33 1  
    36   16   34 1  
    37   17   35 1  
    38   17   36 1  
    39   18   37 1  
    40   19   38 1  
    41   19   39 1  
    42   20   40 1  
    43   20   41 1  
    44   21   42 1  
    45   21   43 1  
    46   22   44 1  
    47   22   45 1  
@<TRIPOS>SUBSTRUCTURE
     1 80A         1

