### 
### Created by X-TOOL on Mon Sep 10 21:13:00 2018
### 

@<TRIPOS>MOLECULE
3fun_ligand
   48    51     1     0     0
SMALL
GAST_HUCK


@<TRIPOS>ATOM
      1 O8        -24.8150    1.2580    0.4690 O.2       1 798        -0.3752
      2 C7        -25.3660    0.3200    0.9820 C.2       1 798         0.1492
      3 C9        -24.7520   -0.4750    2.1000 C.ar      1 798         0.0282
      4 C10       -24.4280    0.1240    3.3110 C.ar      1 798        -0.0471
      5 C11       -23.8680   -0.6440    4.3400 C.ar      1 798        -0.0542
      6 C12       -23.6240   -2.0120    4.1680 C.ar      1 798        -0.0285
      7 C15       -23.0210   -2.8450    5.2720 C.2       1 798        -0.0276
      8 C16       -23.2500   -2.4650    6.6000 C.2       1 798         0.0069
      9 S17       -22.4250   -3.6310    7.6440 S.3       1 798        -0.0394
     10 C18       -21.7050   -4.6270    6.3220 C.2       1 798        -0.0056
     11 C19       -22.1670   -3.9940    5.1250 C.2       1 798        -0.0682
     12 C13       -23.9620   -2.5950    2.9560 C.ar      1 798        -0.0542
     13 C14       -24.5100   -1.8300    1.9210 C.ar      1 798        -0.0471
     14 C6        -26.7030   -0.0400    0.4580 C.ar      1 798         0.0221
     15 C5        -26.8180   -0.4920   -0.8570 C.ar      1 798        -0.0519
     16 C4        -28.0930   -0.8340   -1.3700 C.ar      1 798        -0.0267
     17 C3        -29.1820   -0.7090   -0.5180 C.ar      1 798         0.0972
     18 C2        -29.0340   -0.2400    0.7770 C.ar      1 798        -0.0267
     19 C1        -27.7900    0.0900    1.2920 C.ar      1 798        -0.0519
     20 O20       -30.4610   -1.0410   -0.9150 O.3       1 798        -0.3087
     21 C21       -30.6530   -1.8840   -2.0300 C.3       1 798         0.1142
     22 C22       -32.0010   -2.5500   -1.8810 C.3       1 798         0.0061
     23 N23       -33.1190   -1.6510   -1.6530 N.4       1 798         0.2311
     24 C24       -34.2390   -2.4760   -1.1780 C.3       1 798        -0.0331
     25 C25       -33.5980   -3.6710   -0.4860 C.3       1 798        -0.0074
     26 C26       -32.0880   -3.5050   -0.6940 C.3       1 798        -0.0024
     27 H1        -24.6080    1.1826    3.4591 H         1 798         0.0659
     28 H2        -23.6198   -0.1721    5.2838 H         1 798         0.0603
     29 H3        -23.8316   -1.6058    6.9309 H         1 798         0.0781
     30 H4        -21.0675   -5.5051    6.4141 H         1 798         0.0723
     31 H5        -21.8837   -4.3668    4.1418 H         1 798         0.0413
     32 H6        -23.7995   -3.6566    2.8088 H         1 798         0.0603
     33 H7        -24.7473   -2.2986    0.9727 H         1 798         0.0659
     34 H8        -25.9369   -0.5809   -1.4821 H         1 798         0.0643
     35 H9        -28.2141   -1.1805   -2.3900 H         1 798         0.0557
     36 H10       -29.9121   -0.1284    1.4027 H         1 798         0.0557
     37 H11       -27.6777    0.4372    2.3127 H         1 798         0.0643
     38 H12       -29.8609   -2.6465   -2.0630 H         1 798         0.0673
     39 H13       -30.6295   -1.2905   -2.9559 H         1 798         0.0673
     40 H14       -32.1808   -3.1113   -2.8098 H         1 798         0.0877
     41 H15       -33.3705   -1.1858   -2.5111 H         1 798         0.2017
     42 H16       -32.8751   -0.9637   -0.9572 H         1 798         0.2017
     43 H17       -34.8580   -2.8083   -2.0244 H         1 798         0.0814
     44 H18       -34.8607   -1.9092   -0.4693 H         1 798         0.0814
     45 H19       -33.9473   -4.6104   -0.9394 H         1 798         0.0319
     46 H20       -33.8405   -3.6693    0.5869 H         1 798         0.0319
     47 H21       -31.6128   -3.0700    0.1976 H         1 798         0.0322
     48 H22       -31.6140   -4.4695   -0.9285 H         1 798         0.0322
@<TRIPOS>BOND
     1    1    2 2  
     2    2    3 1  
     3    2   14 1  
     4    3    4 ar 
     5    3   13 ar 
     6    4    5 ar 
     7    5    6 ar 
     8    6    7 1  
     9    6   12 ar 
    10    7    8 2  
    11    7   11 1  
    12    8    9 1  
    13    9   10 1  
    14   10   11 2  
    15   12   13 ar 
    16   14   15 ar 
    17   14   19 ar 
    18   15   16 ar 
    19   16   17 ar 
    20   17   18 ar 
    21   17   20 1  
    22   18   19 ar 
    23   20   21 1  
    24   21   22 1  
    25   22   23 1  
    26   22   26 1  
    27   23   24 1  
    28   24   25 1  
    29   25   26 1  
    30    4   27 1  
    31    5   28 1  
    32    8   29 1  
    33   10   30 1  
    34   11   31 1  
    35   12   32 1  
    36   13   33 1  
    37   15   34 1  
    38   16   35 1  
    39   18   36 1  
    40   19   37 1  
    41   21   38 1  
    42   21   39 1  
    43   22   40 1  
    44   23   41 1  
    45   23   42 1  
    46   24   43 1  
    47   24   44 1  
    48   25   45 1  
    49   25   46 1  
    50   26   47 1  
    51   26   48 1  
@<TRIPOS>SUBSTRUCTURE
     1 798         1

