### 
### Created by X-TOOL on Mon Sep 10 21:13:00 2018
### 

@<TRIPOS>MOLECULE
3fup_ligand
   43    45     1     0     0
SMALL
GAST_HUCK


@<TRIPOS>ATOM
      1 C1        -57.4340    9.4780    0.5310 C.3       1 MI1         0.0666
      2 C2        -56.3220    8.4320    0.4380 C.3       1 MI1         0.0578
      3 C4        -55.8400    8.7950    2.9180 C.3       1 MI1         0.0343
      4 C5        -56.8560    9.9570    3.0180 C.3       1 MI1        -0.0277
      5 C6        -57.1750   10.5680    1.6340 C.3       1 MI1        -0.0164
      6 N3        -56.1520    7.9000    1.7880 N.am      1 MI1        -0.2692
      7 O21       -56.5060    5.8990    0.9780 O.2       1 MI1        -0.3945
      8 C20       -56.2650    6.6170    1.9400 C.2       1 MI1         0.2046
      9 C22       -56.0830    6.1110    3.3000 C.3       1 MI1         0.1612
     10 C23       -56.5170    4.9590    3.5980 C.1       1 MI1         0.1115
     11 N24       -56.6770    3.8260    3.8130 N.1       1 MI1        -0.3008
     12 C7        -56.1490   11.6450    1.2840 C.3       1 MI1        -0.0601
     13 N8        -57.5700   10.1590   -0.7640 N.pl3     1 MI1        -0.2856
     14 C9        -56.4410   10.2590   -1.7270 C.3       1 MI1         0.0221
     15 C10       -58.8020   10.6870   -1.0900 C.ar      1 MI1         0.1212
     16 C15       -59.8920   10.6100   -0.2150 C.ar      1 MI1         0.0435
     17 C16       -60.1110   10.0400    1.0990 C.2       1 MI1        -0.0545
     18 C11       -61.4560   10.3500    1.3320 C.2       1 MI1         0.0249
     19 N12       -62.0250   11.0510    0.2990 N.pl3     1 MI1        -0.2665
     20 C14       -61.1230   11.2650   -0.6710 C.ar      1 MI1         0.1355
     21 N17       -61.1610   11.8620   -1.8740 N.ar      1 MI1        -0.2772
     22 C18       -60.0950   11.9030   -2.6540 C.ar      1 MI1         0.0500
     23 N19       -58.9600   11.3430   -2.2770 N.ar      1 MI1        -0.2730
     24 H1        -58.3746    8.9596    0.7686 H         1 MI1         0.0587
     25 H2        -55.3879    8.8977    0.0909 H         1 MI1         0.0546
     26 H3        -56.6108    7.6284   -0.2554 H         1 MI1         0.0546
     27 H4        -55.8678    8.2145    3.8519 H         1 MI1         0.0522
     28 H5        -54.8323    9.2125    2.7756 H         1 MI1         0.0522
     29 H6        -56.4357   10.7417    3.6642 H         1 MI1         0.0288
     30 H7        -57.7880    9.5767    3.4616 H         1 MI1         0.0288
     31 H8        -58.1331   11.0969    1.7447 H         1 MI1         0.0322
     32 H9        -56.5771    6.8243    3.9761 H         1 MI1         0.0800
     33 H10       -55.0010    6.1069    3.4983 H         1 MI1         0.0800
     34 H11       -56.3868   12.0714    0.2983 H         1 MI1         0.0233
     35 H12       -55.1438   11.1991    1.2578 H         1 MI1         0.0233
     36 H13       -56.1779   12.4398    2.0439 H         1 MI1         0.0233
     37 H14       -56.7700   10.8073   -2.6220 H         1 MI1         0.0492
     38 H15       -56.1144    9.2490   -2.0153 H         1 MI1         0.0492
     39 H16       -55.6037   10.7947   -1.2560 H         1 MI1         0.0492
     40 H17       -59.4099    9.5076    1.7401 H         1 MI1         0.0311
     41 H18       -61.9928   10.0654    2.2358 H         1 MI1         0.0922
     42 H19       -63.0047   11.3678    0.2720 H         1 MI1         0.2318
     43 H20       -60.1529   12.4021   -3.6145 H         1 MI1         0.0975
@<TRIPOS>BOND
     1    2    1 1  
     2    1    5 1  
     3    1   13 1  
     4    6    2 1  
     5    3    4 1  
     6    3    6 1  
     7    4    5 1  
     8    5   12 1  
     9    6    8 am 
    10    8    7 2  
    11    8    9 1  
    12    9   10 1  
    13   10   11 3  
    14   13   14 1  
    15   13   15 1  
    16   15   16 ar 
    17   15   23 ar 
    18   16   17 1  
    19   16   20 ar 
    20   17   18 2  
    21   18   19 1  
    22   19   20 1  
    23   20   21 ar 
    24   21   22 ar 
    25   22   23 ar 
    26    1   24 1  
    27    2   25 1  
    28    2   26 1  
    29    3   27 1  
    30    3   28 1  
    31    4   29 1  
    32    4   30 1  
    33    5   31 1  
    34    9   32 1  
    35    9   33 1  
    36   12   34 1  
    37   12   35 1  
    38   12   36 1  
    39   14   37 1  
    40   14   38 1  
    41   14   39 1  
    42   17   40 1  
    43   18   41 1  
    44   19   42 1  
    45   22   43 1  
@<TRIPOS>SUBSTRUCTURE
     1 MI1         1

