### 
### Created by X-TOOL on Mon Sep 10 21:13:00 2018
### 

@<TRIPOS>MOLECULE
3fur_ligand
   43    46     1     0     0
SMALL
GAST_HUCK


@<TRIPOS>ATOM
      1 CL32        2.1080    5.0210   27.2770 Cl        1 Z12        -0.0686
      2 C31         3.7200    4.9400   28.0550 C.ar      1 Z12         0.0679
      3 C30         3.6880    4.9240   29.4520 C.ar      1 Z12        -0.0320
      4 C28         4.8650    4.8410   30.1890 C.ar      1 Z12         0.0410
      5 CL29        4.7320    4.8240   31.9820 Cl        1 Z12        -0.0707
      6 C27         6.0920    4.7980   29.5130 C.ar      1 Z12        -0.0458
      7 C26         6.1210    4.8310   28.1070 C.ar      1 Z12        -0.0336
      8 C25         4.9390    4.8990   27.3460 C.ar      1 Z12         0.1277
      9 S20         5.0330    4.8850   25.7120 S.o2      1 Z12         0.0881
     10 O21         4.2050    3.8090   25.2180 O.2       1 Z12        -0.1450
     11 O22         6.4030    4.6910   25.3230 O.2       1 Z12        -0.1450
     12 N23         4.4560    6.2160   25.0500 N.am      1 Z12        -0.1929
     13 C13         4.9750    7.4640   25.1130 C.ar      1 Z12         0.0536
     14 C14         4.1680    8.4970   24.6460 C.ar      1 Z12        -0.0380
     15 C15         4.6280    9.7950   24.6660 C.ar      1 Z12         0.0591
     16 CL16        3.5620   11.0820   24.0410 Cl        1 Z12        -0.0815
     17 C17         5.8880   10.0820   25.1740 C.ar      1 Z12         0.1294
     18 C18         6.6860    9.0610   25.6370 C.ar      1 Z12         0.0591
     19 CL19        8.2940    9.4900   26.2750 Cl        1 Z12        -0.0815
     20 C12         6.2420    7.7410   25.6070 C.ar      1 Z12        -0.0380
     21 O11         6.3780   11.3610   25.2170 O.3       1 Z12        -0.2596
     22 C8          6.3470   12.1650   26.3470 C.ar      1 Z12         0.1426
     23 C7          6.1810   11.6570   27.6440 C.ar      1 Z12        -0.0053
     24 C6          6.1820   12.5630   28.7240 C.ar      1 Z12        -0.0030
     25 C1          6.0270   12.1070   30.0290 C.ar      1 Z12        -0.0518
     26 C9          6.5120   13.5400   26.1820 C.ar      1 Z12         0.0482
     27 N10         6.5030   14.3810   27.2240 N.ar      1 Z12        -0.2973
     28 C5          6.3420   13.9330   28.4850 C.ar      1 Z12         0.0400
     29 C4          6.3440   14.8480   29.5370 C.ar      1 Z12        -0.0435
     30 C3          6.1800   14.3840   30.8330 C.ar      1 Z12        -0.0594
     31 C2          6.0270   13.0150   31.0820 C.ar      1 Z12        -0.0599
     32 H1          2.7356    4.9768   29.9670 H         1 Z12         0.0630
     33 H2          7.0181    4.7393   30.0733 H         1 Z12         0.0625
     34 H3          7.0772    4.8034   27.5971 H         1 Z12         0.0637
     35 H4          3.6101    6.1165   24.5260 H         1 Z12         0.2123
     36 H5          3.1763    8.2798   24.2661 H         1 Z12         0.0467
     37 H6          6.8784    6.9399   25.9652 H         1 Z12         0.0467
     38 H7          6.0550   10.5935   27.8117 H         1 Z12         0.0652
     39 H8          5.9066   11.0476   30.2243 H         1 Z12         0.0622
     40 H9          6.6512   13.9386   25.1836 H         1 Z12         0.0845
     41 H10         6.4720   15.9070   29.3443 H         1 Z12         0.0636
     42 H11         6.1702   15.0859   31.6590 H         1 Z12         0.0621
     43 H12         5.9081   12.6614   32.0998 H         1 Z12         0.0631
@<TRIPOS>BOND
     1    1    2 1  
     2    2    3 ar 
     3    2    8 ar 
     4    3    4 ar 
     5    4    5 1  
     6    4    6 ar 
     7    6    7 ar 
     8    7    8 ar 
     9    8    9 1  
    10    9   10 2  
    11    9   11 2  
    12    9   12 am 
    13   12   13 1  
    14   13   14 ar 
    15   13   20 ar 
    16   14   15 ar 
    17   15   16 1  
    18   15   17 ar 
    19   17   18 ar 
    20   17   21 1  
    21   18   19 1  
    22   18   20 ar 
    23   21   22 1  
    24   22   23 ar 
    25   22   26 ar 
    26   23   24 ar 
    27   24   25 ar 
    28   24   28 ar 
    29   25   31 ar 
    30   26   27 ar 
    31   27   28 ar 
    32   28   29 ar 
    33   29   30 ar 
    34   30   31 ar 
    35    3   32 1  
    36    6   33 1  
    37    7   34 1  
    38   12   35 1  
    39   14   36 1  
    40   20   37 1  
    41   23   38 1  
    42   25   39 1  
    43   26   40 1  
    44   29   41 1  
    45   30   42 1  
    46   31   43 1  
@<TRIPOS>SUBSTRUCTURE
     1 Z12         1

