### 
### Created by X-TOOL on Mon Sep 10 21:13:03 2018
### 

@<TRIPOS>MOLECULE
3fuz_ligand
   18    17     1     0     0
SMALL
GAST_HUCK


@<TRIPOS>ATOM
      1 N           5.9510  -13.8910   18.3860 N.4       1 GLU         0.2328
      2 CA          5.6120  -15.2470   18.9120 C.3       1 GLU         0.0298
      3 C           4.1220  -15.5160   18.7440 C.2       1 GLU         0.0845
      4 O           3.5650  -16.5210   19.2020 O.co2     1 GLU        -0.5643
      5 CB          5.9990  -15.3600   20.3780 C.3       1 GLU         0.0139
      6 CG          7.4870  -15.5830   20.6030 C.3       1 GLU         0.0069
      7 CD          7.9830  -16.9740   20.1480 C.2       1 GLU         0.0351
      8 OE1         9.2110  -17.1600   19.9680 O.co2     1 GLU        -0.5690
      9 OE2         7.1550  -17.8910   19.9640 O.co2     1 GLU        -0.5690
     10 OXT         3.4580  -14.7010   18.1390 O.co2     1 GLU        -0.5643
     11 H1          6.9381  -13.7229   18.5017 H         1 GLU         0.2010
     12 H2          5.4296  -13.1936   18.8938 H         1 GLU         0.2010
     13 H3          5.7142  -13.8413   17.4075 H         1 GLU         0.2010
     14 H4          6.1748  -15.9987   18.3392 H         1 GLU         0.1025
     15 H5          5.4508  -16.2064   20.8175 H         1 GLU         0.0356
     16 H6          5.7066  -14.4297   20.8869 H         1 GLU         0.0356
     17 H7          7.6958  -15.4744   21.6775 H         1 GLU         0.0433
     18 H8          8.0417  -14.8162   20.0423 H         1 GLU         0.0433
@<TRIPOS>BOND
     1    1    2 1  
     2    2    3 1  
     3    2    5 1  
     4    3    4 ar 
     5    3   10 ar 
     6    5    6 1  
     7    6    7 1  
     8    7    8 ar 
     9    7    9 ar 
    10    1   11 1  
    11    1   12 1  
    12    1   13 1  
    13    2   14 1  
    14    5   15 1  
    15    5   16 1  
    16    6   17 1  
    17    6   18 1  
@<TRIPOS>SUBSTRUCTURE
     1 GLU         1

