### 
### Created by X-TOOL on Mon Sep 10 21:12:59 2018
### 

@<TRIPOS>MOLECULE
3fv3_ligand
  110   109     1     0     0
SMALL
GAST_HUCK


@<TRIPOS>ATOM
      1 CA         19.7600   26.2340   50.9010 C.3       1 IVA         0.0397
      2 CB         18.9760   27.5100   50.6440 C.3       1 IVA        -0.0298
      3 CG1        19.0280   28.4530   51.8400 C.3       1 IVA        -0.0606
      4 CG2        19.5120   28.2220   49.4100 C.3       1 IVA        -0.0606
      5 C          19.1570   25.4240   52.0360 C.2       1 IVA         0.1785
      6 O          17.9540   25.1870   52.1040 O.2       1 IVA        -0.3969
      7 N          20.0210   24.9720   52.9420 N.am      1 VAL        -0.2654
      8 CA         19.5820   24.2000   54.0970 C.3       1 VAL         0.1332
      9 C          20.1040   24.8530   55.3580 C.2       1 VAL         0.2042
     10 O          21.0570   25.6200   55.2890 O.2       1 VAL        -0.3944
     11 CB         20.0690   22.7380   54.0290 C.3       1 VAL        -0.0063
     12 CG1        19.3840   21.9600   52.8880 C.3       1 VAL        -0.0584
     13 CG2        21.5950   22.5810   53.8890 C.3       1 VAL        -0.0584
     14 N          19.4800   24.5320   56.4900 N.am      1 VAL        -0.2635
     15 CA         20.0030   24.9520   57.8040 C.3       1 VAL         0.1331
     16 C          19.8630   23.7750   58.7200 C.2       1 VAL         0.2022
     17 O          18.7400   23.4350   59.0470 O.2       1 VAL        -0.3945
     18 CB         19.2460   26.1720   58.3500 C.3       1 VAL        -0.0063
     19 CG1        19.8000   26.5750   59.7280 C.3       1 VAL        -0.0584
     20 CG2        19.3030   27.3880   57.4230 C.3       1 VAL        -0.0584
     21 N          20.9830   23.1460   59.0660 N.am      1 STA        -0.2793
     22 CA         21.0020   21.8870   59.8200 C.3       1 STA         0.0703
     23 CB         21.5040   20.7230   58.9200 C.3       1 STA        -0.0250
     24 CG         20.7400   20.6280   57.5820 C.3       1 STA        -0.0446
     25 CD1        21.5210   19.6890   56.6320 C.3       1 STA        -0.0626
     26 CD2        19.3140   20.1350   57.7970 C.3       1 STA        -0.0626
     27 CH         21.9380   21.9840   61.0320 C.3       1 STA         0.0947
     28 OH         23.2480   22.3490   60.5950 O.3       1 STA        -0.3872
     29 CM         21.4990   23.0360   62.0600 C.3       1 STA         0.0655
     30 C          20.3390   22.5230   62.8910 C.2       1 STA         0.1808
     31 O          19.1920   22.6630   62.4840 O.2       1 STA        -0.3968
     32 N          20.6500   21.9560   64.0750 N.am      1 ALA        -0.2658
     33 CA         19.6440   21.6910   65.0860 C.3       1 ALA         0.1280
     34 C          19.7110   22.7970   66.0980 C.2       1 ALA         0.2017
     35 O          20.7140   22.9340   66.8030 O.2       1 ALA        -0.3945
     36 CB         19.8780   20.3110   65.7080 C.3       1 ALA        -0.0244
     37 N          18.6760   23.6310   66.0920 N.am      1 STA        -0.2794
     38 CA         18.7630   24.9500   66.7130 C.3       1 STA         0.0697
     39 CB         18.3720   26.0450   65.7250 C.3       1 STA        -0.0250
     40 CG         19.1370   26.0660   64.3910 C.3       1 STA        -0.0446
     41 CD1        18.6600   27.2980   63.6220 C.3       1 STA        -0.0626
     42 CD2        20.6550   26.1590   64.5000 C.3       1 STA        -0.0626
     43 CH         17.8480   24.9520   67.9500 C.3       1 STA         0.0894
     44 OH         18.2640   23.9220   68.8730 O.3       1 STA        -0.3878
     45 CM         17.8060   26.2750   68.7120 C.3       1 STA         0.0284
     46 C          16.8100   26.0900   69.8590 C.2       1 STA         0.0373
     47 O          17.2310   26.2320   71.0310 O.co2     1 STA        -0.5689
     48 OXT        15.6050   25.7800   69.6160 O.co2     1 STA        -0.5689
     49 H1         20.7954   26.4980   51.1622 H         1 IVA         0.0505
     50 H2         19.7570   25.6232   49.9862 H         1 IVA         0.0505
     51 H3         17.9258   27.2373   50.4634 H         1 IVA         0.0320
     52 H4         18.4506   29.3620   51.6156 H         1 IVA         0.0234
     53 H5         20.0735   28.7247   52.0476 H         1 IVA         0.0234
     54 H6         18.5973   27.9531   52.7201 H         1 IVA         0.0234
     55 H7         19.4738   27.5401   48.5477 H         1 IVA         0.0234
     56 H8         20.5528   28.5304   49.5877 H         1 IVA         0.0234
     57 H9         18.8967   29.1099   49.2028 H         1 IVA         0.0234
     58 H10        20.9951   25.1670   52.8271 H         1 VAL         0.1883
     59 H11        18.4823   24.2005   54.1218 H         1 VAL         0.0802
     60 H12        19.7789   22.2650   54.9788 H         1 VAL         0.0343
     61 H13        19.7576   20.9255   52.8738 H         1 VAL         0.0234
     62 H14        19.6098   22.4446   51.9266 H         1 VAL         0.0234
     63 H15        18.2959   21.9547   53.0494 H         1 VAL         0.0234
     64 H16        22.0961   23.1323   54.6983 H         1 VAL         0.0234
     65 H17        21.9174   22.9831   52.9172 H         1 VAL         0.0234
     66 H18        21.8613   21.5156   53.9516 H         1 VAL         0.0234
     67 H19        18.6380   23.9942   56.4483 H         1 VAL         0.1883
     68 H20        21.0663   25.2160   57.7062 H         1 VAL         0.0802
     69 H21        18.1908   25.8842   58.4673 H         1 VAL         0.0343
     70 H22        19.2476   27.4488   60.1040 H         1 VAL         0.0234
     71 H23        20.8665   26.8277   59.6348 H         1 VAL         0.0234
     72 H24        19.6818   25.7366   60.4302 H         1 VAL         0.0234
     73 H25        18.9094   27.1133   56.4333 H         1 VAL         0.0234
     74 H26        20.3456   27.7240   57.3225 H         1 VAL         0.0234
     75 H27        18.6950   28.2009   57.8467 H         1 VAL         0.0234
     76 H28        21.8569   23.5519   58.7986 H         1 STA         0.1856
     77 H29        19.9815   21.6667   60.1665 H         1 STA         0.0583
     78 H30        21.3758   19.7766   59.4657 H         1 STA         0.0291
     79 H31        22.5712   20.8805   58.7047 H         1 STA         0.0291
     80 H32        20.6935   21.6295   57.1293 H         1 STA         0.0296
     81 H33        20.9877   19.6115   55.6730 H         1 STA         0.0232
     82 H34        21.6024   18.6912   57.0879 H         1 STA         0.0232
     83 H35        22.5280   20.0967   56.4596 H         1 STA         0.0232
     84 H36        18.7868   20.8222   58.4750 H         1 STA         0.0232
     85 H37        19.3369   19.1285   58.2402 H         1 STA         0.0232
     86 H38        18.7891   20.0985   56.8310 H         1 STA         0.0232
     87 H39        21.9724   21.0002   61.5228 H         1 STA         0.0642
     88 H40        23.8262   22.4086   61.3465 H         1 STA         0.2101
     89 H41        21.1883   23.9494   61.5316 H         1 STA         0.0529
     90 H42        22.3448   23.2664   62.7244 H         1 STA         0.0529
     91 H43        21.6016   21.7113   64.2611 H         1 ALA         0.1882
     92 H44        18.6480   21.6968   64.6193 H         1 ALA         0.0797
     93 H45        19.1112   20.1188   66.4728 H         1 ALA         0.0277
     94 H46        20.8746   20.2825   66.1727 H         1 ALA         0.0277
     95 H47        19.8162   19.5407   64.9252 H         1 ALA         0.0277
     96 H48        17.8219   23.3501   65.6542 H         1 STA         0.1855
     97 H49        19.7996   25.1281   67.0351 H         1 STA         0.0583
     98 H50        18.5332   27.0147   66.2187 H         1 STA         0.0291
     99 H51        17.3030   25.9233   65.4960 H         1 STA         0.0291
    100 H52        18.8861   25.1519   63.8330 H         1 STA         0.0296
    101 H53        19.1839   27.3530   62.6563 H         1 STA         0.0232
    102 H54        18.8765   28.2030   64.2086 H         1 STA         0.0232
    103 H55        17.5764   27.2246   63.4476 H         1 STA         0.0232
    104 H56        21.0373   25.2862   65.0496 H         1 STA         0.0232
    105 H57        20.9284   27.0791   65.0373 H         1 STA         0.0232
    106 H58        21.0945   26.1787   63.4918 H         1 STA         0.0232
    107 H59        16.8274   24.7287   67.6057 H         1 STA         0.0635
    108 H60        19.1594   24.0852   69.1453 H         1 STA         0.2100
    109 H61        17.4722   27.0852   68.0470 H         1 STA         0.0456
    110 H62        18.8028   26.5149   69.1105 H         1 STA         0.0456
@<TRIPOS>BOND
     1    1    2 1  
     2    1    5 1  
     3    2    3 1  
     4    2    4 1  
     5    5    6 2  
     6    5    7 am 
     7    7    8 1  
     8    8    9 1  
     9    8   11 1  
    10    9   10 2  
    11    9   14 am 
    12   11   12 1  
    13   11   13 1  
    14   14   15 1  
    15   15   16 1  
    16   15   18 1  
    17   16   17 2  
    18   16   21 am 
    19   18   19 1  
    20   18   20 1  
    21   21   22 1  
    22   22   23 1  
    23   22   27 1  
    24   23   24 1  
    25   24   25 1  
    26   24   26 1  
    27   27   28 1  
    28   27   29 1  
    29   29   30 1  
    30   30   31 2  
    31   30   32 am 
    32   32   33 1  
    33   33   34 1  
    34   33   36 1  
    35   34   35 2  
    36   34   37 am 
    37   37   38 1  
    38   38   39 1  
    39   38   43 1  
    40   39   40 1  
    41   40   41 1  
    42   40   42 1  
    43   43   44 1  
    44   43   45 1  
    45   45   46 1  
    46   46   47 ar 
    47   46   48 ar 
    48    1   49 1  
    49    1   50 1  
    50    2   51 1  
    51    3   52 1  
    52    3   53 1  
    53    3   54 1  
    54    4   55 1  
    55    4   56 1  
    56    4   57 1  
    57    7   58 1  
    58    8   59 1  
    59   11   60 1  
    60   12   61 1  
    61   12   62 1  
    62   12   63 1  
    63   13   64 1  
    64   13   65 1  
    65   13   66 1  
    66   14   67 1  
    67   15   68 1  
    68   18   69 1  
    69   19   70 1  
    70   19   71 1  
    71   19   72 1  
    72   20   73 1  
    73   20   74 1  
    74   20   75 1  
    75   21   76 1  
    76   22   77 1  
    77   23   78 1  
    78   23   79 1  
    79   24   80 1  
    80   25   81 1  
    81   25   82 1  
    82   25   83 1  
    83   26   84 1  
    84   26   85 1  
    85   26   86 1  
    86   27   87 1  
    87   28   88 1  
    88   29   89 1  
    89   29   90 1  
    90   32   91 1  
    91   33   92 1  
    92   36   93 1  
    93   36   94 1  
    94   36   95 1  
    95   37   96 1  
    96   38   97 1  
    97   39   98 1  
    98   39   99 1  
    99   40  100 1  
   100   41  101 1  
   101   41  102 1  
   102   41  103 1  
   103   42  104 1  
   104   42  105 1  
   105   42  106 1  
   106   43  107 1  
   107   44  108 1  
   108   45  109 1  
   109   45  110 1  
@<TRIPOS>SUBSTRUCTURE
     1 IVA         1

