### 
### Created by X-TOOL on Mon Sep 10 21:13:04 2018
### 

@<TRIPOS>MOLECULE
3fv7_ligand
   48    49     1     0     0
SMALL
GAST_HUCK


@<TRIPOS>ATOM
      1 C1        107.1830   32.7590   27.1710 C.2       1 MXS        -0.0279
      2 C2        106.4370   31.4620   27.1960 C.2       1 MXS        -0.0273
      3 C3        105.1910   31.3880   28.0080 C.2       1 MXS         0.0888
      4 C4        104.2760   30.2960   28.2320 C.2       1 MXS        -0.0060
      5 C5        103.2970   30.7160   29.0610 C.2       1 MXS         0.0777
      6 C6        103.5160   32.2150   29.4630 C.3       1 MXS         0.1521
      7 C7        105.4630   33.8310   28.7150 C.2       1 MXS         0.0804
      8 C8        106.6950   33.9550   27.9280 C.2       1 MXS        -0.0177
      9 C9        102.0290   29.9080   29.6360 C.3       1 MXS         0.1042
     10 C10       102.6690   33.4110   31.7520 C.3       1 MXS         0.0561
     11 C11       103.4000   34.7670   31.9380 C.2       1 MXS         0.0867
     12 C12       101.1380   33.4170   32.2000 C.3       1 MXS         0.0853
     13 C13       100.4030   34.7550   31.8070 C.3       1 MXS        -0.0377
     14 C14       101.0610   33.2140   33.7540 C.3       1 MXS        -0.0377
     15 C15       109.1880   32.0920   25.6400 C.2       1 MXS         0.2401
     16 C16       109.2620   30.0030   24.3060 C.3       1 MXS         0.0638
     17 N1        104.7920   32.5420   28.7030 N.pl3     1 MXS        -0.1685
     18 N2        102.7290   33.0200   30.3030 N.4       1 MXS         0.2878
     19 O6        108.6060   31.1760   24.7320 O.3       1 MXS        -0.2857
     20 O1        101.2080   29.9700   28.4350 O.3       1 MXS        -0.3734
     21 O2        103.9260   35.3930   31.0390 O.co2     1 MXS        -0.5642
     22 O3        103.4840   35.4070   33.3010 O.co2     1 MXS        -0.5642
     23 O4         98.9020   31.9120   32.0120 O.co2     1 MXS        -0.5003
     24 O5        101.0860   30.6210   31.4770 O.co2     1 MXS        -0.5003
     25 N3        108.3480   32.8110   26.4330 N.2       1 MXS        -0.3483
     26 O7        110.4080   32.2400   25.7390 O.2       1 MXS        -0.3898
     27 S1        100.2170   32.0610   31.3640 S.o2      1 MXS        -0.2584
     28 H         106.7949   30.5976   26.6367 H         1 MXS         0.0377
     29 H         104.3609   29.2975   27.8032 H         1 MXS         0.0367
     30 H         102.9538   32.8953   30.1027 H         1 MXS         0.1547
     31 H         105.0672   34.6713   29.2854 H         1 MXS         0.1298
     32 H         107.2428   34.8968   27.8952 H         1 MXS         0.0478
     33 H         101.5778   30.3138   30.5415 H         1 MXS         0.0836
     34 H         102.2362   28.9087   30.0189 H         1 MXS         0.0836
     35 H         103.1844   32.7019   32.3998 H         1 MXS         0.1047
     36 H         100.4245   34.8752   30.7239 H         1 MXS         0.0252
     37 H          99.3688   34.7138   32.1488 H         1 MXS         0.0252
     38 H         100.9092   35.5979   32.2776 H         1 MXS         0.0252
     39 H         100.0180   33.2312   34.0701 H         1 MXS         0.0252
     40 H         101.5057   32.2540   34.0162 H         1 MXS         0.0252
     41 H         101.6060   34.0163   34.2514 H         1 MXS         0.0252
     42 H         110.1939   30.2700   23.8077 H         1 MXS         0.0574
     43 H         109.4776   29.3746   25.1701 H         1 MXS         0.0574
     44 H         108.6198   29.4607   23.6120 H         1 MXS         0.0574
     45 H         101.8924   32.4366   30.2928 H         1 MXS         0.2092
     46 H         103.0348   33.9225   29.9392 H         1 MXS         0.2092
     47 H         101.0395   30.8882   28.2110 H         1 MXS         0.2146
     48 H         100.0515   32.3535   30.0772 H         1 MXS         0.1494
@<TRIPOS>BOND
     1    1    2 1  
     2    1    8 1  
     3   25    1 2  
     4    2    3 2  
     5    3    4 1  
     6    3   17 1  
     7    4    5 2  
     8    6    5 1  
     9    5    9 1  
    10   17    6 1  
    11    6   18 1  
    12    8    7 2  
    13    7   17 1  
    14    9   20 1  
    15   10   11 1  
    16   10   12 1  
    17   18   10 1  
    18   11   21 ar 
    19   11   22 ar 
    20   12   13 1  
    21   12   14 1  
    22   12   27 1  
    23   15   19 1  
    24   15   25 1  
    25   15   26 2  
    26   19   16 1  
    27   27   23 ar 
    28   27   24 ar 
    29    2   28 1  
    30    4   29 1  
    31    6   30 1  
    32    7   31 1  
    33    8   32 1  
    34    9   33 1  
    35    9   34 1  
    36   10   35 1  
    37   13   36 1  
    38   13   37 1  
    39   13   38 1  
    40   14   39 1  
    41   14   40 1  
    42   14   41 1  
    43   16   42 1  
    44   16   43 1  
    45   16   44 1  
    46   18   45 1  
    47   18   46 1  
    48   20   47 1  
    49   27   48 1  
@<TRIPOS>SUBSTRUCTURE
     1 MXS         1

