### 
### Created by X-TOOL on Mon Sep 10 21:13:01 2018
### 

@<TRIPOS>MOLECULE
3fv8_ligand
   45    47     1     0     0
SMALL
GAST_HUCK


@<TRIPOS>ATOM
      1 CL15      -10.5140  -30.9900   15.5440 Cl        1 JK3        -0.0868
      2 C01       -11.4650  -36.4200    8.5680 C.2       1 JK3        -0.0379
      3 C02       -12.8420  -36.6270    8.4310 C.2       1 JK3        -0.0447
      4 C03       -13.5750  -35.9520    9.4700 C.2       1 JK3         0.1575
      5 O05       -12.5490  -35.3070   10.2730 O.3       1 JK3        -0.2421
      6 C06       -11.3070  -35.5690    9.7600 C.2       1 JK3         0.1933
      7 C07       -10.0670  -34.9970   10.4110 C.2       1 JK3         0.2564
      8 O08        -8.9720  -35.2130   10.0410 O.2       1 JK3        -0.3778
      9 N09       -10.4040  -34.1510   11.5330 N.am      1 JK3        -0.2368
     10 C10        -9.5550  -33.3900   12.4050 C.ar      1 JK3         0.0861
     11 C11        -8.1820  -33.3490   12.3270 C.ar      1 JK3        -0.0519
     12 C12        -7.4740  -32.5710   13.2540 C.ar      1 JK3        -0.0884
     13 C13        -8.1670  -31.8320   14.2700 C.ar      1 JK3        -0.0753
     14 C14        -9.5770  -31.8940   14.3250 C.ar      1 JK3         0.0440
     15 C16       -10.2630  -32.6370   13.4200 C.ar      1 JK3         0.0783
     16 N17       -11.7070  -32.7430   13.5020 N.pl3     1 JK3        -0.3029
     17 C18       -12.2700  -34.0140   13.9750 C.3       1 JK3         0.0646
     18 C19       -13.5890  -33.8860   14.5820 C.3       1 JK3        -0.0105
     19 C20       -12.6040  -31.5790   13.0900 C.3       1 JK3         0.0646
     20 C21       -14.1850  -31.8880   13.1290 C.3       1 JK3        -0.0105
     21 N22       -14.5490  -33.3010   13.6380 N.4       1 JK3         0.2511
     22 C23       -16.0410  -33.5880   13.8910 C.3       1 JK3        -0.0039
     23 C24       -16.7830  -34.5200   12.9220 C.2       1 JK3        -0.0447
     24 C25       -17.2850  -34.0600   11.7940 C.2       1 JK3        -0.1125
     25 BR04      -15.5210  -35.8640    9.8060 Br        1 JK3        -0.0089
     26 H1        -10.6746  -36.8074    7.9269 H         1 JK3         0.0447
     27 H2        -13.2996  -37.2212    7.6414 H         1 JK3         0.0414
     28 H3        -11.3816  -34.0855   11.7333 H         1 JK3         0.2210
     29 H4         -7.6565  -33.9087   11.5618 H         1 JK3         0.0461
     30 H5         -6.3921  -32.5274   13.2026 H         1 JK3         0.0467
     31 H6         -7.6155  -31.2337   14.9862 H         1 JK3         0.0460
     32 H7        -11.5845  -34.4396   14.7226 H         1 JK3         0.0562
     33 H8        -12.3483  -34.6986   13.1176 H         1 JK3         0.0562
     34 H9        -13.5158  -33.2382   15.4680 H         1 JK3         0.0834
     35 H10       -13.9438  -34.8823   14.8845 H         1 JK3         0.0834
     36 H11       -12.3383  -31.2911   12.0622 H         1 JK3         0.0562
     37 H12       -12.4043  -30.7376   13.7698 H         1 JK3         0.0562
     38 H13       -14.5821  -31.7773   12.1092 H         1 JK3         0.0834
     39 H14       -14.6631  -31.1507   13.7907 H         1 JK3         0.0834
     40 H15       -14.3829  -33.8581   12.8146 H         1 JK3         0.2052
     41 H16       -16.5647  -32.6208   13.8761 H         1 JK3         0.0997
     42 H17       -16.1205  -34.0327   14.8940 H         1 JK3         0.0997
     43 H18       -16.8957  -35.5743   13.1703 H         1 JK3         0.0725
     44 H19       -17.8087  -34.7329   11.1166 H         1 JK3         0.0292
     45 H20       -17.1762  -33.0069   11.5390 H         1 JK3         0.0292
@<TRIPOS>BOND
     1   14    1 1  
     2    2    3 1  
     3    6    2 2  
     4    4    3 2  
     5    5    4 1  
     6    4   25 1  
     7    6    5 1  
     8    7    6 1  
     9    7    8 2  
    10    9    7 am 
    11   10    9 1  
    12   11   10 ar 
    13   10   15 ar 
    14   12   11 ar 
    15   13   12 ar 
    16   13   14 ar 
    17   14   15 ar 
    18   15   16 1  
    19   16   17 1  
    20   16   19 1  
    21   17   18 1  
    22   18   21 1  
    23   19   20 1  
    24   20   21 1  
    25   21   22 1  
    26   22   23 1  
    27   23   24 2  
    28    2   26 1  
    29    3   27 1  
    30    9   28 1  
    31   11   29 1  
    32   12   30 1  
    33   13   31 1  
    34   17   32 1  
    35   17   33 1  
    36   18   34 1  
    37   18   35 1  
    38   19   36 1  
    39   19   37 1  
    40   20   38 1  
    41   20   39 1  
    42   21   40 1  
    43   22   41 1  
    44   22   42 1  
    45   23   43 1  
    46   24   44 1  
    47   24   45 1  
@<TRIPOS>SUBSTRUCTURE
     1 JK3         1

