### 
### Created by X-TOOL on Mon Sep 10 21:13:02 2018
### 

@<TRIPOS>MOLECULE
3fvg_ligand
   34    35     1     0     0
SMALL
GAST_HUCK


@<TRIPOS>ATOM
      1 O          -3.5700   16.3350   18.5940 O.co2     1 MS8        -0.5643
      2 C          -4.0510   15.2950   18.0960 C.2       1 MS8         0.0844
      3 OXT        -3.3750   14.4550   17.4540 O.co2     1 MS8        -0.5643
      4 CA         -5.5160   15.0580   18.2710 C.3       1 MS8         0.0305
      5 N          -5.8850   13.7700   17.6760 N.4       1 MS8         0.2327
      6 CB         -5.8450   15.1520   19.7660 C.3       1 MS8         0.0363
      7 CAS        -7.3390   15.3630   20.0200 C.3       1 MS8         0.1229
      8 CAJ        -7.6640   15.3370   21.5210 C.3       1 MS8         0.0101
      9 CAN        -7.7960   16.6740   19.4120 C.2       1 MS8         0.0769
     10 OAC        -7.0560   17.6760   19.5190 O.co2     1 MS8        -0.5451
     11 OAE        -8.8990   16.6870   18.8260 O.co2     1 MS8        -0.5451
     12 OAL        -8.0860   14.2750   19.4980 O.3       1 MS8        -0.3631
     13 CAR        -8.1160   13.2510   20.4910 C.3       1 MS8         0.0848
     14 CAQ        -8.3840   14.0250   21.7770 C.3       1 MS8         0.0868
     15 CAH        -9.1100   12.1450   20.1290 C.3       1 MS8        -0.0222
     16 CAP       -10.5400   12.5740   20.4150 C.3       1 MS8        -0.0270
     17 CAG       -10.6390   13.1670   21.8200 C.3       1 MS8         0.0482
     18 OAK        -9.7840   14.3090   21.9660 O.3       1 MS8        -0.3740
     19 H          -6.1060   15.8138   17.7526 H         1 MS8         0.1024
     20 H          -5.6413   13.7721   16.6855 H         1 MS8         0.2010
     21 H          -5.3804   13.0209   18.1499 H         1 MS8         0.2010
     22 H          -6.8891   13.6240   17.7800 H         1 MS8         0.2010
     23 H          -5.3082   16.0069   20.1772 H         1 MS8         0.0359
     24 H          -5.5514   14.2136   20.2364 H         1 MS8         0.0359
     25 H          -8.2852   16.1872   21.8029 H         1 MS8         0.0311
     26 H          -6.7566   15.4103   22.1204 H         1 MS8         0.0311
     27 H          -7.1958   12.6758   20.5929 H         1 MS8         0.0620
     28 H          -8.0621   13.4709   22.6587 H         1 MS8         0.0622
     29 H          -8.8845   11.2646   20.7308 H         1 MS8         0.0292
     30 H          -9.0181   11.9301   19.0644 H         1 MS8         0.0292
     31 H         -11.1947   11.7053   20.3463 H         1 MS8         0.0288
     32 H         -10.8400   13.3274   19.6867 H         1 MS8         0.0288
     33 H         -10.3299   12.4083   22.5390 H         1 MS8         0.0560
     34 H         -11.6686   13.4806   21.9921 H         1 MS8         0.0560
@<TRIPOS>BOND
     1    1    2 ar 
     2    2    3 ar 
     3    2    4 1  
     4    4    5 1  
     5    4    6 1  
     6    6    7 1  
     7    7    8 1  
     8    7    9 1  
     9    7   12 1  
    10    8   14 1  
    11    9   10 ar 
    12    9   11 ar 
    13   12   13 1  
    14   13   14 1  
    15   13   15 1  
    16   14   18 1  
    17   15   16 1  
    18   16   17 1  
    19   17   18 1  
    20    4   19 1  
    21    5   20 1  
    22    5   21 1  
    23    5   22 1  
    24    6   23 1  
    25    6   24 1  
    26    8   25 1  
    27    8   26 1  
    28   13   27 1  
    29   14   28 1  
    30   15   29 1  
    31   15   30 1  
    32   16   31 1  
    33   16   32 1  
    34   17   33 1  
    35   17   34 1  
@<TRIPOS>SUBSTRUCTURE
     1 MS8         1

