### 
### Created by X-TOOL on Mon Sep 10 21:13:02 2018
### 

@<TRIPOS>MOLECULE
3fvk_ligand
   35    36     1     0     0
SMALL
GAST_HUCK


@<TRIPOS>ATOM
      1 O          -3.6690   16.2690   18.6560 O.co2     1 8DX        -0.5643
      2 C          -4.1570   15.2260   18.1780 C.2       1 8DX         0.0844
      3 OXT        -3.4860   14.3940   17.5220 O.co2     1 8DX        -0.5643
      4 CA         -5.6300   15.0170   18.3980 C.3       1 8DX         0.0305
      5 N          -6.0110   13.7190   17.8370 N.4       1 8DX         0.2327
      6 CB         -5.8970   15.1290   19.9100 C.3       1 8DX         0.0363
      7 CAS        -7.3580   15.3890   20.2800 C.3       1 8DX         0.1229
      8 CAJ        -7.5520   15.4550   21.7960 C.3       1 8DX         0.0101
      9 CAN        -7.9170   16.6530   19.6510 C.2       1 8DX         0.0769
     10 OAC        -9.1080   16.6300   19.2460 O.co2     1 8DX        -0.5451
     11 OAE        -7.1690   17.6520   19.5570 O.co2     1 8DX        -0.5451
     12 OAL        -8.1330   14.2700   19.8200 O.3       1 8DX        -0.3630
     13 CAR        -8.4680   13.4380   20.9200 C.3       1 8DX         0.0871
     14 CAQ        -8.6020   14.4040   22.0830 C.3       1 8DX         0.0870
     15 CAH        -9.7240   12.6260   20.5910 C.3       1 8DX         0.0040
     16 CAP       -10.9830   13.4830   20.6440 C.3       1 8DX         0.0809
     17 OAF       -10.9550   14.5070   19.6420 O.3       1 8DX        -0.3894
     18 CAG       -11.0050   14.1530   22.0060 C.3       1 8DX         0.0741
     19 OAK        -9.8860   15.0410   22.0920 O.3       1 8DX        -0.3715
     20 H1         -6.1977   15.8032   17.8789 H         1 8DX         0.1024
     21 H2         -6.9975   13.5682   17.9789 H         1 8DX         0.2010
     22 H3         -5.4899   12.9885   18.2962 H         1 8DX         0.2010
     23 H4         -5.8079   13.7070   16.8498 H         1 8DX         0.2010
     24 H5         -5.2902   15.9570   20.3054 H         1 8DX         0.0359
     25 H6         -5.5852   14.1868   20.3844 H         1 8DX         0.0359
     26 H7         -7.9042   16.4514   22.1011 H         1 8DX         0.0311
     27 H8         -6.6133   15.2216   22.3198 H         1 8DX         0.0311
     28 H9         -7.6505   12.7322   21.1289 H         1 8DX         0.0621
     29 H10        -8.4220   13.8974   23.0426 H         1 8DX         0.0622
     30 H11        -9.8197   11.8076   21.3197 H         1 8DX         0.0317
     31 H12        -9.6216   12.2062   19.5794 H         1 8DX         0.0317
     32 H13       -11.8741   12.8526   20.5075 H         1 8DX         0.0617
     33 H14       -10.2005   15.0666   19.7837 H         1 8DX         0.2099
     34 H15       -10.9355   13.3907   22.7960 H         1 8DX         0.0586
     35 H16       -11.9395   14.7208   22.1254 H         1 8DX         0.0586
@<TRIPOS>BOND
     1    1    2 ar 
     2    2    3 ar 
     3    2    4 1  
     4    4    5 1  
     5    4    6 1  
     6    6    7 1  
     7    7    8 1  
     8    7    9 1  
     9    7   12 1  
    10    8   14 1  
    11    9   10 ar 
    12    9   11 ar 
    13   12   13 1  
    14   13   14 1  
    15   13   15 1  
    16   14   19 1  
    17   15   16 1  
    18   16   17 1  
    19   16   18 1  
    20   18   19 1  
    21    4   20 1  
    22    5   21 1  
    23    5   22 1  
    24    5   23 1  
    25    6   24 1  
    26    6   25 1  
    27    8   26 1  
    28    8   27 1  
    29   13   28 1  
    30   14   29 1  
    31   15   30 1  
    32   15   31 1  
    33   16   32 1  
    34   17   33 1  
    35   18   34 1  
    36   18   35 1  
@<TRIPOS>SUBSTRUCTURE
     1 8DX         1

