### 
### Created by X-TOOL on Mon Sep 10 21:13:04 2018
### 

@<TRIPOS>MOLECULE
3fvl_ligand
   29    29     1     0     0
SMALL
GAST_HUCK


@<TRIPOS>ATOM
      1 CAH       -27.0000    0.6110   -8.8690 C.ar      1 BHK        -0.0602
      2 CAI       -28.2910    0.1580   -8.6170 C.ar      1 BHK        -0.0686
      3 CAJ       -28.7030   -0.0690   -7.3090 C.ar      1 BHK        -0.0687
      4 CAK       -27.8240    0.1550   -6.2550 C.ar      1 BHK        -0.0686
      5 CAL       -26.5330    0.6060   -6.5100 C.ar      1 BHK        -0.0602
      6 CAG       -26.1200    0.8370   -7.8170 C.ar      1 BHK        -0.0410
      7 CAD       -24.7100    1.3740   -8.0790 C.3       1 BHK        -0.0026
      8 CAB       -23.8660    0.4410   -8.9500 C.3       1 BHK         0.0371
      9 CAC       -24.4280    0.4130  -10.3740 C.2       1 BHK         0.0421
     10 OAN       -24.6820   -0.7090  -10.8640 O.co2     1 BHK        -0.5684
     11 OAM       -24.5940    1.5150  -10.9390 O.co2     1 BHK        -0.5684
     12 CAA       -22.4370    0.9880   -8.9940 C.3       1 BHK         0.0395
     13 CAE       -21.4980    0.0780   -9.7910 C.2       1 BHK         0.1324
     14 OAO       -21.1710   -1.0220   -9.3500 O.2       1 BHK        -0.3890
     15 CAF       -20.9490    0.5640  -11.1350 C.3       1 BHK         0.1172
     16 OAP       -19.6300    0.0600  -11.3630 O.3       1 BHK        -0.3757
     17 H1        -26.6792    0.7883   -9.8892 H         1 BHK         0.0557
     18 H2        -28.9747   -0.0177   -9.4396 H         1 BHK         0.0599
     19 H3        -29.7091   -0.4205   -7.1107 H         1 BHK         0.0559
     20 H4        -28.1448   -0.0218   -5.2348 H         1 BHK         0.0599
     21 H5        -25.8477    0.7776   -5.6878 H         1 BHK         0.0557
     22 H6        -24.2008    1.5074   -7.1131 H         1 BHK         0.0448
     23 H7        -24.7941    2.3463   -8.5866 H         1 BHK         0.0448
     24 H8        -23.8703   -0.5742   -8.5266 H         1 BHK         0.0514
     25 H9        -22.0583    1.0749   -7.9649 H         1 BHK         0.0517
     26 H10       -22.4517    1.9822   -9.4645 H         1 BHK         0.0517
     27 H11       -20.9187    1.6636  -11.1347 H         1 BHK         0.0792
     28 H12       -21.6114    0.2157  -11.9412 H         1 BHK         0.0792
     29 H13       -19.6516   -0.8898  -11.3678 H         1 BHK         0.2130
@<TRIPOS>BOND
     1    1    2 ar 
     2    1    6 ar 
     3    2    3 ar 
     4    3    4 ar 
     5    4    5 ar 
     6    5    6 ar 
     7    6    7 1  
     8    7    8 1  
     9    8    9 1  
    10    8   12 1  
    11    9   10 ar 
    12    9   11 ar 
    13   12   13 1  
    14   13   14 2  
    15   13   15 1  
    16   15   16 1  
    17    1   17 1  
    18    2   18 1  
    19    3   19 1  
    20    4   20 1  
    21    5   21 1  
    22    7   22 1  
    23    7   23 1  
    24    8   24 1  
    25   12   25 1  
    26   12   26 1  
    27   15   27 1  
    28   15   28 1  
    29   16   29 1  
@<TRIPOS>SUBSTRUCTURE
     1 BHK         1

