### 
### Created by X-TOOL on Mon Sep 10 21:13:02 2018
### 

@<TRIPOS>MOLECULE
3fvn_ligand
   35    36     1     0     0
SMALL
GAST_HUCK


@<TRIPOS>ATOM
      1 OAC        -7.0560   17.7670   19.4970 O.co2     1 9DX        -0.5451
      2 CAN        -7.7730   16.7380   19.4510 C.2       1 9DX         0.0769
      3 OAE        -8.8810   16.6960   18.8790 O.co2     1 9DX        -0.5451
      4 CAS        -7.2700   15.4580   20.1610 C.3       1 9DX         0.1230
      5 CB         -5.8130   15.1900   19.8510 C.3       1 9DX         0.0363
      6 CA         -5.4930   15.1160   18.3530 C.3       1 9DX         0.0305
      7 N          -5.8840   13.7970   17.7580 N.4       1 9DX         0.2327
      8 C          -4.0270   15.3480   18.1550 C.2       1 9DX         0.0844
      9 OXT        -3.5180   16.3880   18.6220 O.co2     1 9DX        -0.5643
     10 O          -3.3600   14.4930   17.4890 O.co2     1 9DX        -0.5643
     11 OAL        -8.0700   14.3160   19.7840 O.3       1 9DX        -0.3605
     12 CAR        -8.7900   13.8130   20.8890 C.3       1 9DX         0.1105
     13 CAP       -10.2510   13.5930   20.4770 C.3       1 9DX         0.0857
     14 OAF       -10.7390   14.5670   19.5530 O.3       1 9DX        -0.3891
     15 CAH       -11.1930   13.7490   21.6840 C.3       1 9DX        -0.0008
     16 CAG       -11.0600   15.1750   22.3040 C.3       1 9DX         0.0506
     17 OAK        -9.8210   15.7880   21.8970 O.3       1 9DX        -0.3738
     18 CAQ        -8.6820   14.8890   21.9620 C.3       1 9DX         0.0892
     19 CAJ        -7.4360   15.6590   21.6690 C.3       1 9DX         0.0102
     20 H1         -5.5329   14.2311   20.3114 H         1 9DX         0.0359
     21 H2         -5.2118   15.9984   20.2927 H         1 9DX         0.0359
     22 H3         -6.0535   15.9090   17.8363 H         1 9DX         0.1024
     23 H4         -5.6571   13.7910   16.7759 H         1 9DX         0.2010
     24 H5         -6.8753   13.6564   17.8747 H         1 9DX         0.2010
     25 H6         -5.3825   13.0566   18.2232 H         1 9DX         0.2010
     26 H7         -8.3558   12.8670   21.2447 H         1 9DX         0.0647
     27 H8        -10.3428   12.5859   20.0441 H         1 9DX         0.0621
     28 H9        -10.6817   15.4304   19.9450 H         1 9DX         0.2099
     29 H10       -10.9330   12.9984   22.4449 H         1 9DX         0.0313
     30 H11       -12.2310   13.5933   21.3550 H         1 9DX         0.0313
     31 H12       -11.0819   15.0964   23.4010 H         1 9DX         0.0561
     32 H13       -11.9008   15.7975   21.9641 H         1 9DX         0.0561
     33 H14        -8.6268   14.4289   22.9596 H         1 9DX         0.0622
     34 H15        -7.5589   16.7236   21.9171 H         1 9DX         0.0311
     35 H16        -6.5770   15.2505   22.2215 H         1 9DX         0.0311
@<TRIPOS>BOND
     1    1    2 ar 
     2    2    3 ar 
     3    2    4 1  
     4    4    5 1  
     5    4   11 1  
     6    4   19 1  
     7    5    6 1  
     8    6    7 1  
     9    6    8 1  
    10    8    9 ar 
    11    8   10 ar 
    12   11   12 1  
    13   12   13 1  
    14   12   18 1  
    15   13   14 1  
    16   13   15 1  
    17   15   16 1  
    18   16   17 1  
    19   17   18 1  
    20   18   19 1  
    21    5   20 1  
    22    5   21 1  
    23    6   22 1  
    24    7   23 1  
    25    7   24 1  
    26    7   25 1  
    27   12   26 1  
    28   13   27 1  
    29   14   28 1  
    30   15   29 1  
    31   15   30 1  
    32   16   31 1  
    33   16   32 1  
    34   18   33 1  
    35   19   34 1  
    36   19   35 1  
@<TRIPOS>SUBSTRUCTURE
     1 9DX         1

