### 
### Created by X-TOOL on Mon Sep 10 21:13:00 2018
### 

@<TRIPOS>MOLECULE
3fw3_ligand
   36    37     1     0     0
SMALL
GAST_HUCK


@<TRIPOS>ATOM
      1 S1          3.5390    7.3870   21.0440 S.3       1 ETS        -0.0031
      2 C2          3.3660    7.0790   19.3060 C.2       1 ETS         0.1594
      3 C3          2.1230    7.5230   18.9740 C.2       1 ETS        -0.0395
      4 C4          1.3540    8.0980   20.0050 C.2       1 ETS         0.0112
      5 C5         -0.0230    8.7530   19.8020 C.3       1 ETS         0.0022
      6 C6         -0.3310    9.7780   20.8950 C.3       1 ETS         0.0190
      7 C7         -0.2740    9.2020   22.3320 C.3       1 ETS         0.0839
      8 S8          1.4540    8.8690   22.7280 S.o2      1 ETS         0.0018
      9 C9          1.9710    8.1570   21.2190 C.2       1 ETS         0.1413
     10 S10         4.7520    6.4260   18.5050 S.o2      1 ETS         0.0744
     11 O11         5.4310    5.6620   19.5070 O.2       1 ETS        -0.1500
     12 O12         5.3820    7.5460   17.8690 O.2       1 ETS        -0.1500
     13 N13         4.1370    5.4950   17.2910 N.am      1 ETS        -0.2605
     14 N14        -1.0620    7.7060   19.8070 N.4       1 ETS         0.2378
     15 C15        -0.7580   10.2000   23.3920 C.3       1 ETS        -0.0423
     16 O16         2.1600   10.0790   22.7470 O.2       1 ETS        -0.1710
     17 O17         1.6480    7.8690   23.7090 O.2       1 ETS        -0.1710
     18 C18        -1.2840    7.1270   18.4880 C.3       1 ETS        -0.0353
     19 C19        -2.5530    6.2770   18.5180 C.3       1 ETS        -0.0245
     20 H1          1.7404    7.4377   17.9580 H         1 ETS         0.0415
     21 H2         -0.0300    9.2644   18.8281 H         1 ETS         0.0966
     22 H3         -1.3418   10.1757   20.7215 H         1 ETS         0.0356
     23 H4          0.4022   10.5946   20.8202 H         1 ETS         0.0356
     24 H5         -0.8734    8.2811   22.3826 H         1 ETS         0.0538
     25 H6          4.7539    5.0035   16.6763 H         1 ETS         0.1635
     26 H7          3.1471    5.4219   17.1695 H         1 ETS         0.1635
     27 H8         -1.9263    8.1110   20.1309 H         1 ETS         0.2026
     28 H9         -0.7776    6.9726   20.4373 H         1 ETS         0.2026
     29 H10        -1.8137   10.4477   23.2074 H         1 ETS         0.0248
     30 H11        -0.1515   11.1160   23.3372 H         1 ETS         0.0248
     31 H12        -0.6559    9.7518   24.3913 H         1 ETS         0.0248
     32 H13        -0.4255    6.4962   18.2141 H         1 ETS         0.0811
     33 H14        -1.3984    7.9323   17.7475 H         1 ETS         0.0811
     34 H15        -2.7239    5.8382   17.5239 H         1 ETS         0.0281
     35 H16        -3.4109    6.9084   18.7925 H         1 ETS         0.0281
     36 H17        -2.4379    5.4723   19.2591 H         1 ETS         0.0281
@<TRIPOS>BOND
     1    1    2 1  
     2    1    9 1  
     3    2    3 2  
     4    2   10 1  
     5    3    4 1  
     6    4    5 1  
     7    4    9 2  
     8    5    6 1  
     9    5   14 1  
    10    6    7 1  
    11    7    8 1  
    12    7   15 1  
    13    8    9 1  
    14    8   16 2  
    15    8   17 2  
    16   10   11 2  
    17   10   12 2  
    18   10   13 am 
    19   14   18 1  
    20   18   19 1  
    21    3   20 1  
    22    5   21 1  
    23    6   22 1  
    24    6   23 1  
    25    7   24 1  
    26   13   25 1  
    27   13   26 1  
    28   14   27 1  
    29   14   28 1  
    30   15   29 1  
    31   15   30 1  
    32   15   31 1  
    33   18   32 1  
    34   18   33 1  
    35   19   34 1  
    36   19   35 1  
    37   19   36 1  
@<TRIPOS>SUBSTRUCTURE
     1 ETS         1

