### 
### Created by X-TOOL on Mon Sep 10 21:13:04 2018
### 

@<TRIPOS>MOLECULE
3fw4_ligand
   14    14     1     0     0
SMALL
GAST_HUCK


@<TRIPOS>ATOM
      1 C1         25.3410   79.6410   61.4600 C.ar      1 CAQ        -0.0819
      2 C2         26.2400   78.9920   62.2990 C.ar      1 CAQ        -0.0417
      3 C3         27.4220   79.6240   62.6720 C.ar      1 CAQ         0.1160
      4 O3         28.2940   78.9800   63.4990 O.3       1 CAQ        -0.3369
      5 C4         27.7060   80.9030   62.2070 C.ar      1 CAQ         0.1160
      6 O4         28.8620   81.5270   62.5700 O.3       1 CAQ        -0.3369
      7 C5         26.8080   81.5520   61.3630 C.ar      1 CAQ        -0.0417
      8 C6         25.6270   80.9180   60.9870 C.ar      1 CAQ        -0.0819
      9 H          24.4117   79.1492   61.1726 H         1 CAQ         0.0495
     10 H          26.0189   77.9891   62.6641 H         1 CAQ         0.0509
     11 H          29.0545   79.5430   63.6613 H         1 CAQ         0.2442
     12 H          28.8970   82.3956   62.1627 H         1 CAQ         0.2442
     13 H          27.0296   82.5547   60.9975 H         1 CAQ         0.0509
     14 H          24.9260   81.4222   60.3218 H         1 CAQ         0.0495
@<TRIPOS>BOND
     1    1    2 ar 
     2    1    8 ar 
     3    2    3 ar 
     4    3    4 1  
     5    3    5 ar 
     6    5    6 1  
     7    5    7 ar 
     8    7    8 ar 
     9    1    9 1  
    10    2   10 1  
    11    4   11 1  
    12    6   12 1  
    13    7   13 1  
    14    8   14 1  
@<TRIPOS>SUBSTRUCTURE
     1 CAQ         1

