### 
### Created by X-TOOL on Mon Sep 10 21:13:00 2018
### 

@<TRIPOS>MOLECULE
3fwv_ligand
   90    90     1     0     0
SMALL
GAST_HUCK


@<TRIPOS>ATOM
      1 C         -18.9910    2.9300    0.2240 C.2       1 ACE         0.1751
      2 O         -19.0760    1.9420    0.9450 O.2       1 ACE        -0.3972
      3 CH3       -17.8840    3.0750   -0.7760 C.3       1 ACE         0.0258
      4 N         -20.0210    3.7590    0.1460 N.am      1 MET        -0.2658
      5 CA        -19.9710    5.0560   -0.5390 C.3       1 MET         0.1316
      6 C         -19.1620    6.0740    0.2420 C.2       1 MET         0.2039
      7 O         -18.9870    5.9810    1.4630 O.2       1 MET        -0.3944
      8 CB        -21.3860    5.6160   -0.7640 C.3       1 MET        -0.0034
      9 CG        -22.3430    4.6730   -1.5080 C.3       1 MET        -0.0024
     10 SD        -24.0190    5.3480   -1.6230 S.3       1 MET        -0.1639
     11 CE        -23.8410    6.5320   -2.9630 C.3       1 MET        -0.0181
     12 N         -18.6680    7.0380   -0.5110 N.am      1 GLU        -0.2636
     13 CA        -18.0170    8.2080    0.0460 C.3       1 GLU         0.1325
     14 C         -18.9820    8.8930    1.0040 C.2       1 GLU         0.2040
     15 O         -20.1740    9.0360    0.7190 O.2       1 GLU        -0.3944
     16 CB        -17.6100    9.1760   -1.0740 C.3       1 GLU        -0.0008
     17 CG        -16.5370    8.6280   -1.9930 C.3       1 GLU         0.0044
     18 CD        -15.2280    8.3840   -1.2760 C.2       1 GLU         0.0350
     19 OE1       -14.5890    9.3600   -0.8490 O.co2     1 GLU        -0.5690
     20 OE2       -14.8330    7.2090   -1.1460 O.co2     1 GLU        -0.5690
     21 N         -18.4550    9.3290    2.1350 N.am      1 GLU        -0.2636
     22 CA        -19.2710   10.0350    3.1290 C.3       1 GLU         0.1325
     23 C         -19.6470   11.4170    2.6770 C.2       1 GLU         0.2040
     24 O         -18.8270   12.1610    2.1350 O.2       1 GLU        -0.3944
     25 CB        -18.5470   10.1790    4.4690 C.3       1 GLU        -0.0008
     26 CG        -18.2110    8.8850    5.1330 C.3       1 GLU         0.0044
     27 CD        -17.6810    9.1100    6.5370 C.2       1 GLU         0.0350
     28 OE1       -17.9860   10.1870    7.1140 O.co2     1 GLU        -0.5690
     29 OE2       -16.9640    8.2150    7.0480 O.co2     1 GLU        -0.5690
     30 N         -20.8900   11.7560    2.9670 N.am      1 VAL        -0.2635
     31 CA        -21.3820   13.1190    2.8190 C.3       1 VAL         0.1332
     32 C         -21.6230   13.7260    4.1990 C.2       1 VAL         0.2037
     33 O         -21.9670   13.0360    5.1550 O.2       1 VAL        -0.3944
     34 CB        -22.6610   13.1970    1.9680 C.3       1 VAL        -0.0063
     35 CG1       -22.3450   12.8300    0.5110 C.3       1 VAL        -0.0584
     36 CG2       -23.7710   12.3130    2.5580 C.3       1 VAL        -0.0584
     37 N         -21.4070   15.0310    4.2840 N.am      1 PHE        -0.2677
     38 CA        -21.4550   15.7350    5.5590 C.3       1 PHE         0.1039
     39 C         -22.5830   16.7600    5.5820 C.2       1 PHE         0.0621
     40 O         -22.7720   17.4420    6.5950 O.co2     1 PHE        -0.5664
     41 CB        -20.0900   16.3880    5.8210 C.3       1 PHE         0.0159
     42 CG        -18.9340   15.4200    5.6890 C.ar      1 PHE        -0.0392
     43 CD1       -18.6010   14.5640    6.7270 C.ar      1 PHE        -0.0602
     44 CD2       -18.2040   15.3470    4.5160 C.ar      1 PHE        -0.0602
     45 CE1       -17.5530   13.6670    6.5940 C.ar      1 PHE        -0.0686
     46 CE2       -17.1570   14.4560    4.3840 C.ar      1 PHE        -0.0686
     47 CZ        -16.8360   13.6170    5.4190 C.ar      1 PHE        -0.0687
     48 OXT       -23.3250   16.9010    4.5950 O.co2     1 PHE        -0.5664
     49 H1        -17.9971    4.0286   -1.3125 H         1 ACE         0.0467
     50 H2        -17.9273    2.2429   -1.4942 H         1 ACE         0.0467
     51 H3        -16.9152    3.0600   -0.2553 H         1 ACE         0.0467
     52 H4        -20.8806    3.4860    0.5779 H         1 MET         0.1882
     53 H5        -19.4921    4.9064   -1.5179 H         1 MET         0.0800
     54 H6        -21.2976    6.5438   -1.3482 H         1 MET         0.0320
     55 H7        -21.8245    5.8420    0.2191 H         1 MET         0.0320
     56 H8        -22.3838    3.7140   -0.9708 H         1 MET         0.0378
     57 H9        -21.9575    4.5076   -2.5249 H         1 MET         0.0378
     58 H10       -24.8059    7.0279   -3.1447 H         1 MET         0.0340
     59 H11       -23.5207    6.0077   -3.8754 H         1 MET         0.0340
     60 H12       -23.0876    7.2852   -2.6892 H         1 MET         0.0340
     61 H13       -18.7455    6.9588   -1.5048 H         1 GLU         0.1883
     62 H14       -17.1166    7.8964    0.5958 H         1 GLU         0.0801
     63 H15       -17.2334   10.1012   -0.6135 H         1 GLU         0.0330
     64 H16       -18.5012    9.4032   -1.6775 H         1 GLU         0.0330
     65 H17       -16.3651    9.3505   -2.8044 H         1 GLU         0.0433
     66 H18       -16.8890    7.6763   -2.4178 H         1 GLU         0.0433
     67 H19       -17.4837    9.1750    2.3162 H         1 GLU         0.1883
     68 H20       -20.1905    9.4516    3.2844 H         1 GLU         0.0801
     69 H21       -19.1920   10.7562    5.1478 H         1 GLU         0.0330
     70 H22       -17.6107   10.7298    4.2962 H         1 GLU         0.0330
     71 H23       -17.4446    8.3654    4.5392 H         1 GLU         0.0433
     72 H24       -19.1170    8.2635    5.1869 H         1 GLU         0.0433
     73 H25       -21.5163   11.0513    3.3004 H         1 VAL         0.1883
     74 H26       -20.6038   13.7078    2.3113 H         1 VAL         0.0802
     75 H27       -23.0187   14.2371    1.9841 H         1 VAL         0.0343
     76 H28       -23.2647   12.8885   -0.0896 H         1 VAL         0.0234
     77 H29       -21.9444   11.8064    0.4693 H         1 VAL         0.0234
     78 H30       -21.5996   13.5322    0.1094 H         1 VAL         0.0234
     79 H31       -23.9626   12.6113    3.5993 H         1 VAL         0.0234
     80 H32       -23.4545   11.2599    2.5306 H         1 VAL         0.0234
     81 H33       -24.6904   12.4352    1.9665 H         1 VAL         0.0234
     82 H34       -21.2057   15.5462    3.4509 H         1 PHE         0.1877
     83 H35       -21.6474   15.0012    6.3555 H         1 PHE         0.0749
     84 H36       -20.0882   16.7983    6.8416 H         1 PHE         0.0467
     85 H37       -19.9476   17.2041    5.0974 H         1 PHE         0.0467
     86 H38       -19.1657   14.5965    7.6517 H         1 PHE         0.0557
     87 H39       -18.4576   15.9990    3.6880 H         1 PHE         0.0557
     88 H40       -17.2978   13.0054    7.4139 H         1 PHE         0.0599
     89 H41       -16.5890   14.4203    3.4614 H         1 PHE         0.0599
     90 H42       -16.0177   12.9140    5.3129 H         1 PHE         0.0559
@<TRIPOS>BOND
     1    1    2 2  
     2    1    3 1  
     3    1    4 am 
     4    4    5 1  
     5    5    6 1  
     6    5    8 1  
     7    6    7 2  
     8    6   12 am 
     9    8    9 1  
    10    9   10 1  
    11   10   11 1  
    12   12   13 1  
    13   13   14 1  
    14   13   16 1  
    15   14   15 2  
    16   14   21 am 
    17   16   17 1  
    18   17   18 1  
    19   18   19 ar 
    20   18   20 ar 
    21   21   22 1  
    22   22   23 1  
    23   22   25 1  
    24   23   24 2  
    25   23   30 am 
    26   25   26 1  
    27   26   27 1  
    28   27   28 ar 
    29   27   29 ar 
    30   30   31 1  
    31   31   32 1  
    32   31   34 1  
    33   32   33 2  
    34   32   37 am 
    35   34   35 1  
    36   34   36 1  
    37   37   38 1  
    38   38   39 1  
    39   38   41 1  
    40   39   40 ar 
    41   39   48 ar 
    42   41   42 1  
    43   42   43 ar 
    44   42   44 ar 
    45   43   45 ar 
    46   44   46 ar 
    47   45   47 ar 
    48   46   47 ar 
    49    3   49 1  
    50    3   50 1  
    51    3   51 1  
    52    4   52 1  
    53    5   53 1  
    54    8   54 1  
    55    8   55 1  
    56    9   56 1  
    57    9   57 1  
    58   11   58 1  
    59   11   59 1  
    60   11   60 1  
    61   12   61 1  
    62   13   62 1  
    63   16   63 1  
    64   16   64 1  
    65   17   65 1  
    66   17   66 1  
    67   21   67 1  
    68   22   68 1  
    69   25   69 1  
    70   25   70 1  
    71   26   71 1  
    72   26   72 1  
    73   30   73 1  
    74   31   74 1  
    75   34   75 1  
    76   35   76 1  
    77   35   77 1  
    78   35   78 1  
    79   36   79 1  
    80   36   80 1  
    81   36   81 1  
    82   37   82 1  
    83   38   83 1  
    84   41   84 1  
    85   41   85 1  
    86   43   86 1  
    87   44   87 1  
    88   45   88 1  
    89   46   89 1  
    90   47   90 1  
@<TRIPOS>SUBSTRUCTURE
     1 ACE         1

