### 
### Created by X-TOOL on Mon Sep 10 21:13:01 2018
### 

@<TRIPOS>MOLECULE
3fx6_ligand
   33    33     1     0     0
SMALL
GAST_HUCK


@<TRIPOS>ATOM
      1 CAJ       -24.8900    1.6140   -7.3260 C.ar      1 BPX        -0.0602
      2 CAI       -25.7470    1.2930   -6.2800 C.ar      1 BPX        -0.0686
      3 CAE       -25.3490    0.3790   -5.3100 C.ar      1 BPX        -0.0687
      4 CAD       -24.0930   -0.2120   -5.3890 C.ar      1 BPX        -0.0686
      5 CAL       -23.2370    0.1100   -6.4360 C.ar      1 BPX        -0.0602
      6 CAK       -23.6350    1.0220   -7.4080 C.ar      1 BPX        -0.0411
      7 CAF       -22.6900    1.3570   -8.5650 C.3       1 BPX        -0.0046
      8 CAB       -22.9270    0.4470   -9.7740 C.3       1 BPX         0.0263
      9 CAC       -24.2800    0.7450  -10.4250 C.2       1 BPX         0.0400
     10 OAO       -24.7040   -0.0960  -11.2480 O.co2     1 BPX        -0.5686
     11 OAN       -24.8580    1.8020  -10.0920 O.co2     1 BPX        -0.5686
     12 CAA       -21.8210    0.6530  -10.8110 C.3       1 BPX         0.0198
     13 CAG       -20.8670   -0.5430  -10.7720 C.3       1 BPX         0.1996
     14 OAP       -20.3730   -0.7370   -9.4440 O.3       1 BPX        -0.3626
     15 OAQ       -21.5870   -1.7110  -11.1760 O.3       1 BPX        -0.3626
     16 CAH       -19.7010   -0.3190  -11.7390 C.3       1 BPX         0.2195
     17 NAM       -20.1800   -0.4050  -13.1260 N.2       1 BPX         0.2963
     18 OAS       -20.2200   -1.6640  -13.7870 O.2       1 BPX         0.1863
     19 OAR       -20.5940    0.7680  -13.8140 O.2       1 BPX         0.1863
     20 H1        -25.2011    2.3280   -8.0800 H         1 BPX         0.0557
     21 H2        -26.7258    1.7550   -6.2201 H         1 BPX         0.0599
     22 H3        -26.0169    0.1279   -4.4939 H         1 BPX         0.0559
     23 H4        -23.7810   -0.9243   -4.6338 H         1 BPX         0.0599
     24 H5        -22.2575   -0.3505   -6.4950 H         1 BPX         0.0557
     25 H6        -21.6516    1.2330   -8.2241 H         1 BPX         0.0446
     26 H7        -22.8542    2.4016   -8.8680 H         1 BPX         0.0446
     27 H8        -22.9150   -0.5999   -9.4366 H         1 BPX         0.0490
     28 H9        -21.2661    1.5741  -10.5794 H         1 BPX         0.0340
     29 H10       -22.2668    0.7357  -11.8132 H         1 BPX         0.0340
     30 H11       -19.8935    0.0359   -9.1696 H         1 BPX         0.2128
     31 H12       -21.0061   -2.4623  -11.1562 H         1 BPX         0.2128
     32 H13       -18.9333   -1.0883  -11.5696 H         1 BPX         0.0708
     33 H14       -19.2674    0.6766  -11.5637 H         1 BPX         0.0708
@<TRIPOS>BOND
     1    1    2 ar 
     2    1    6 ar 
     3    2    3 ar 
     4    3    4 ar 
     5    4    5 ar 
     6    5    6 ar 
     7    6    7 1  
     8    7    8 1  
     9    8    9 1  
    10    8   12 1  
    11    9   10 ar 
    12    9   11 ar 
    13   12   13 1  
    14   13   14 1  
    15   13   15 1  
    16   13   16 1  
    17   16   17 1  
    18   17   18 2  
    19   17   19 2  
    20    1   20 1  
    21    2   21 1  
    22    3   22 1  
    23    4   23 1  
    24    5   24 1  
    25    7   25 1  
    26    7   26 1  
    27    8   27 1  
    28   12   28 1  
    29   12   29 1  
    30   14   30 1  
    31   15   31 1  
    32   16   32 1  
    33   16   33 1  
@<TRIPOS>SUBSTRUCTURE
     1 BPX         1

