### 
### Created by X-TOOL on Mon Sep 10 21:13:01 2018
### 

@<TRIPOS>MOLECULE
3fxb_ligand
   19    19     1     0     0
SMALL
GAST_HUCK


@<TRIPOS>ATOM
      1 O           6.8640   -7.7190    7.3890 O.co2     1 4CS        -0.5685
      2 C           6.6270   -8.6020    6.5790 C.2       1 4CS         0.0412
      3 OXT         7.5980   -9.2170    6.1510 O.co2     1 4CS        -0.5685
      4 CA          5.2040   -8.9150    6.1080 C.3       1 4CS         0.0415
      5 CB          4.2020   -8.7000    7.2200 C.3       1 4CS        -0.0141
      6 CAD         2.8050   -8.8980    6.6500 C.3       1 4CS         0.0369
      7 NAG         2.7820  -10.3200    6.2160 N.pl3     1 4CS        -0.2892
      8 CAI         3.9570  -11.0100    5.7660 C.2       1 4CS         0.0902
      9 CAA         3.9610  -12.4830    5.3420 C.3       1 4CS         0.0187
     10 N           5.1490  -10.3090    5.7000 N.2       1 4CS        -0.3572
     11 H1          4.9500   -8.2656    5.2573 H         1 4CS         0.0502
     12 H2          4.3003   -7.6788    7.6169 H         1 4CS         0.0308
     13 H3          4.3806   -9.4258    8.0270 H         1 4CS         0.0308
     14 H4          2.6345   -8.2272    5.7951 H         1 4CS         0.0534
     15 H5          2.0407   -8.7132    7.4192 H         1 4CS         0.0534
     16 H6          1.8874  -10.8299    6.2393 H         1 4CS         0.1931
     17 H7          4.9777  -12.7749    5.0403 H         1 4CS         0.0525
     18 H8          3.2729  -12.6227    4.4952 H         1 4CS         0.0525
     19 H9          3.6353  -13.1085    6.1862 H         1 4CS         0.0525
@<TRIPOS>BOND
     1    1    2 ar 
     2    2    3 ar 
     3    2    4 1  
     4    4    5 1  
     5    4   10 1  
     6    5    6 1  
     7    6    7 1  
     8    7    8 1  
     9    8    9 1  
    10    8   10 2  
    11    4   11 1  
    12    5   12 1  
    13    5   13 1  
    14    6   14 1  
    15    6   15 1  
    16    7   16 1  
    17    9   17 1  
    18    9   18 1  
    19    9   19 1  
@<TRIPOS>SUBSTRUCTURE
     1 4CS         1

