### 
### Created by X-TOOL on Mon Sep 10 21:13:00 2018
### 

@<TRIPOS>MOLECULE
3fxv_ligand
   62    66     1     0     0
SMALL
GAST_HUCK


@<TRIPOS>ATOM
      1 C4        -13.8000   57.1460   -1.9320 C.ar      1 643        -0.0744
      2 C5        -12.0690   57.2600   -3.9210 C.2       1 643         0.0095
      3 C6        -12.7840   56.6970   -2.7670 C.ar      1 643        -0.0147
      4 C7        -12.2310   55.4300   -2.5690 C.ar      1 643         0.0675
      5 C10       -10.4500   54.0450   -3.6530 C.3       1 643         0.0424
      6 C15       -14.2810   54.6930    1.6650 C.ar      1 643        -0.0692
      7 C17       -14.3890   52.8530    0.1390 C.ar      1 643        -0.0462
      8 C21       -18.1310   50.7520    3.6850 C.ar      1 643         0.0304
      9 C22       -17.8000   49.9020    2.6430 C.ar      1 643         0.0733
     10 C26       -19.0000   51.8000    3.4160 C.ar      1 643         0.0733
     11 C28       -16.3670   51.2430    5.4760 C.2       1 643         0.0242
     12 C1        -14.2580   56.3550   -0.9200 C.ar      1 643        -0.0739
     13 C2        -13.7170   55.0870   -0.7190 C.ar      1 643        -0.0416
     14 C3        -12.7010   54.6360   -1.5400 C.ar      1 643        -0.0387
     15 N8        -11.2650   55.2440   -3.5190 N.pl3     1 643        -0.2631
     16 C9        -11.1730   56.3210   -4.3100 C.2       1 643         0.0426
     17 C11       -12.2520   58.5680   -4.5470 C.2       1 643         0.0392
     18 O12       -13.0770   59.3370   -4.1340 O.co2     1 643        -0.5713
     19 O13       -11.4730   58.9180   -5.5730 O.co2     1 643        -0.5713
     20 C14       -14.6610   53.8640    2.6900 C.ar      1 643        -0.0387
     21 C16       -14.1550   54.1970    0.3770 C.ar      1 643        -0.0319
     22 C18       -14.7710   52.0280    1.1650 C.ar      1 643        -0.0308
     23 C19       -14.9040   52.5310    2.4390 C.ar      1 643         0.0871
     24 O20       -15.2740   51.6930    3.4240 O.3       1 643        -0.3137
     25 C23       -18.3490   50.1140    1.4020 C.ar      1 643         0.0222
     26 N24       -19.1730   51.1120    1.1990 N.ar      1 643        -0.3000
     27 C25       -19.5080   51.9460    2.1510 C.ar      1 643         0.0222
     28 C27       -17.5400   50.5840    5.0280 C.2       1 643         0.0613
     29 C29       -16.2030   50.7980    6.7290 C.2       1 643         0.1427
     30 O30       -17.2070   49.9600    6.9600 O.3       1 643        -0.1724
     31 N31       -17.9390   49.8480    6.0170 N.2       1 643        -0.1497
     32 CL32      -16.7270   48.5950    2.9310 Cl        1 643        -0.0616
     33 C33       -15.1060   51.1890    7.6790 C.3       1 643         0.0220
     34 C34       -15.6650   52.1500    8.7210 C.3       1 643        -0.0499
     35 C35       -14.5620   49.9520    8.3870 C.3       1 643        -0.0499
     36 C36       -15.5070   52.2150    4.7210 C.3       1 643         0.0906
     37 CL37      -19.4440   52.8740    4.6820 Cl        1 643        -0.0616
     38 C38       -14.2510   52.2940   -1.2460 C.3       1 643        -0.0324
     39 H1        -14.2302   58.1290   -2.0857 H         1 643         0.0536
     40 H2         -9.7563   54.1658   -4.4981 H         1 643         0.0569
     41 H3        -11.1013   53.1773   -3.8344 H         1 643         0.0569
     42 H4         -9.8766   53.8861   -2.7278 H         1 643         0.0569
     43 H5        -14.0786   55.7393    1.8632 H         1 643         0.0574
     44 H6        -15.0466   56.7145   -0.2689 H         1 643         0.0508
     45 H7        -12.2706   53.6547   -1.3761 H         1 643         0.0525
     46 H8        -10.4799   56.4264   -5.1433 H         1 643         0.1012
     47 H9        -14.7698   54.2565    3.6946 H         1 643         0.0492
     48 H10       -14.9683   50.9796    0.9728 H         1 643         0.0481
     49 H11       -18.0982   49.4495    0.5831 H         1 643         0.0820
     50 H12       -20.1927   52.7587    1.9372 H         1 643         0.0820
     51 H13       -14.2948   51.6790    7.1205 H         1 643         0.0488
     52 H14       -14.8657   52.4394    9.4191 H         1 643         0.0256
     53 H15       -16.4763   51.6570    9.2766 H         1 643         0.0256
     54 H16       -16.0565   53.0474    8.2196 H         1 643         0.0256
     55 H17       -14.1560   49.2520    7.6420 H         1 643         0.0256
     56 H18       -15.3734   49.4628    8.9458 H         1 643         0.0256
     57 H19       -13.7643   50.2493    9.0836 H         1 643         0.0256
     58 H20       -14.5492   52.3485    5.2452 H         1 643         0.0693
     59 H21       -16.0213   53.1843    4.6443 H         1 643         0.0693
     60 H22       -13.9392   53.0932   -1.9345 H         1 643         0.0394
     61 H23       -15.2176   51.8839   -1.5739 H         1 643         0.0394
     62 H24       -13.4950   51.4950   -1.2453 H         1 643         0.0394
@<TRIPOS>BOND
     1    1    3 ar 
     2   12    1 ar 
     3    3    2 1  
     4   16    2 2  
     5    2   17 1  
     6    4    3 ar 
     7   14    4 ar 
     8    4   15 1  
     9   15    5 1  
    10   20    6 ar 
    11    6   21 ar 
    12    7   21 ar 
    13   22    7 ar 
    14    7   38 1  
    15    8    9 ar 
    16    8   10 ar 
    17   28    8 1  
    18    9   25 ar 
    19    9   32 1  
    20   10   27 ar 
    21   10   37 1  
    22   11   28 1  
    23   11   29 2  
    24   36   11 1  
    25   13   12 ar 
    26   13   14 ar 
    27   21   13 1  
    28   15   16 1  
    29   17   18 ar 
    30   17   19 ar 
    31   23   20 ar 
    32   23   22 ar 
    33   24   23 1  
    34   24   36 1  
    35   25   26 ar 
    36   26   27 ar 
    37   28   31 2  
    38   29   30 1  
    39   29   33 1  
    40   30   31 1  
    41   33   34 1  
    42   33   35 1  
    43    1   39 1  
    44    5   40 1  
    45    5   41 1  
    46    5   42 1  
    47    6   43 1  
    48   12   44 1  
    49   14   45 1  
    50   16   46 1  
    51   20   47 1  
    52   22   48 1  
    53   25   49 1  
    54   27   50 1  
    55   33   51 1  
    56   34   52 1  
    57   34   53 1  
    58   34   54 1  
    59   35   55 1  
    60   35   56 1  
    61   35   57 1  
    62   36   58 1  
    63   36   59 1  
    64   38   60 1  
    65   38   61 1  
    66   38   62 1  
@<TRIPOS>SUBSTRUCTURE
     1 643         1

