### 
### Created by X-TOOL on Mon Sep 10 21:13:04 2018
### 

@<TRIPOS>MOLECULE
3fxw_ligand
   37    40     1     0     0
SMALL
GAST_HUCK


@<TRIPOS>ATOM
      1 N1         16.3010    0.4090   18.3860 N.am      1 F10        -0.2898
      2 O3         18.0590    0.6660   19.7370 O.2       1 F10        -0.4040
      3 C10        21.4400    8.1570   13.2430 C.ar      1 F10        -0.0525
      4 C11        19.9430    5.1490   14.9090 C.ar      1 F10        -0.0287
      5 C9         21.2550    9.0160   12.1350 C.ar      1 F10        -0.0633
      6 C14        19.2170    2.6230   17.7120 C.2       1 F10        -0.0565
      7 C17        15.4880    0.7190   17.2060 C.3       1 F10         0.0436
      8 C18        15.9560    1.7330   16.1560 C.3       1 F10         0.0315
      9 C15        18.0310    1.9480   17.7340 C.2       1 F10         0.0410
     10 C16        17.4480    0.9730   18.7090 C.2       1 F10         0.1752
     11 C21        21.4280    4.3220   16.6060 C.ar      1 F10        -0.0358
     12 C22        22.4380    5.1620   16.1410 C.ar      1 F10        -0.0005
     13 C19        17.2900    2.3020   16.5110 C.2       1 F10         0.0718
     14 C12        20.1800    4.3050   15.9900 C.ar      1 F10         0.0069
     15 C13        19.1590    3.3810   16.5460 C.2       1 F10         0.0639
     16 C2         20.9740    5.9910   14.4560 C.ar      1 F10         0.0430
     17 C4         20.7830    6.9220   13.2890 C.ar      1 F10         0.0313
     18 C5         19.9360    6.5650   12.1160 C.ar      1 F10         0.1446
     19 C7         19.7810    7.4470   11.0350 C.ar      1 F10        -0.0253
     20 C8         20.4450    8.6710   11.0590 C.ar      1 F10        -0.0618
     21 F6         19.2870    5.3920   12.0980 F         1 F10        -0.1799
     22 N20        18.0410    3.1770   15.8130 N.pl3     1 F10        -0.2707
     23 N23        22.1800    5.9780   15.0910 N.ar      1 F10        -0.3048
     24 H1         15.9529   -0.2962   19.0036 H         1 F10         0.1835
     25 H2         22.0909    8.4551   14.0570 H         1 F10         0.0628
     26 H3         18.9747    5.1571   14.4219 H         1 F10         0.0657
     27 H4         21.7611    9.9745   12.1243 H         1 F10         0.0588
     28 H5         20.0249    2.5786   18.4409 H         1 F10         0.0380
     29 H6         14.5215    1.0854   17.5823 H         1 F10         0.0546
     30 H7         15.3377   -0.2319   16.6739 H         1 F10         0.0546
     31 H8         15.2223    2.5503   16.0946 H         1 F10         0.0506
     32 H9         16.0284    1.2311   15.1799 H         1 F10         0.0506
     33 H10        21.6161    3.6756   17.4556 H         1 F10         0.0646
     34 H11        23.4144    5.1624   16.6119 H         1 F10         0.0793
     35 H12        19.1530    7.1791   10.1930 H         1 F10         0.0609
     36 H13        20.3292    9.3611   10.2311 H         1 F10         0.0622
     37 H14        17.8100    3.6041   14.9046 H         1 F10         0.2347
@<TRIPOS>BOND
     1    7    1 1  
     2   10    1 am 
     3   10    2 2  
     4    3    5 ar 
     5   17    3 ar 
     6    4   14 ar 
     7   16    4 ar 
     8    5   20 ar 
     9    6    9 1  
    10   15    6 2  
    11    8    7 1  
    12   13    8 1  
    13    9   10 1  
    14   13    9 2  
    15   11   12 ar 
    16   14   11 ar 
    17   12   23 ar 
    18   22   13 1  
    19   14   15 1  
    20   15   22 1  
    21   16   17 1  
    22   16   23 ar 
    23   17   18 ar 
    24   18   19 ar 
    25   18   21 1  
    26   19   20 ar 
    27    1   24 1  
    28    3   25 1  
    29    4   26 1  
    30    5   27 1  
    31    6   28 1  
    32    7   29 1  
    33    7   30 1  
    34    8   31 1  
    35    8   32 1  
    36   11   33 1  
    37   12   34 1  
    38   19   35 1  
    39   20   36 1  
    40   22   37 1  
@<TRIPOS>SUBSTRUCTURE
     1 F10         1

