### 
### Created by X-TOOL on Mon Sep 10 21:13:02 2018
### 

@<TRIPOS>MOLECULE
3fyj_ligand
   45    49     1     0     0
SMALL
GAST_HUCK


@<TRIPOS>ATOM
      1 C15        81.6070  262.5390  109.5160 C.ar      1 B97        -0.0383
      2 C19        78.4150  264.7470  106.7450 C.ar      1 B97        -0.0374
      3 C10        83.3860  263.4780  106.5460 C.ar      1 B97        -0.0426
      4 C9         84.6910  263.2190  106.8690 C.ar      1 B97        -0.0394
      5 C14        80.3250  262.8230  109.1210 C.ar      1 B97        -0.0286
      6 C20        77.0950  265.0480  106.4790 C.ar      1 B97        -0.0299
      7 C24        77.6580  262.8840  107.9140 C.ar      1 B97         0.0151
      8 C16        82.6580  262.7530  108.6580 C.ar      1 B97         0.0077
      9 C17        83.9680  262.4570  109.0650 C.ar      1 B97         0.0278
     10 C18        78.7330  263.6370  107.4910 C.ar      1 B97         0.0207
     11 C11        82.3540  263.2570  107.4110 C.ar      1 B97         0.0396
     12 C5         84.5660  261.9380  110.2720 C.2       1 B97         0.0647
     13 C8         84.9500  262.7150  108.1190 C.ar      1 B97         0.0446
     14 C13        80.1020  263.3210  107.8640 C.ar      1 B97         0.0505
     15 C6         85.9450  261.8130  110.2130 C.2       1 B97         0.1082
     16 C21        76.1040  264.2250  106.9600 C.ar      1 B97         0.0276
     17 C25        86.9510  261.3790  111.1340 C.2       1 B97         0.1911
     18 C3         84.2870  260.8810  112.5500 C.3       1 B97         0.0457
     19 C2         85.3200  259.8170  112.2420 C.3       1 B97         0.0568
     20 C22        74.6780  264.5520  106.6720 C.3       1 B97        -0.0143
     21 C1         84.8780  258.7880  111.2320 C.3       1 B97        -0.0404
     22 N23        76.3620  263.1260  107.6740 N.ar      1 B97        -0.2943
     23 N12        81.1060  263.5450  107.0120 N.ar      1 B97        -0.2961
     24 N4         83.8150  261.6080  111.3720 N.pl3     1 B97        -0.3224
     25 N27        86.6370  260.3100  111.9370 N.am      1 B97        -0.2871
     26 O26        88.0320  261.9510  111.2130 O.2       1 B97        -0.4038
     27 S7         86.5220  262.3270  108.6950 S.3       1 B97        -0.0424
     28 H1         81.7916  262.1443  110.5086 H         1 B97         0.0738
     29 H2         79.2029  265.3871  106.3649 H         1 B97         0.0743
     30 H3         83.1633  263.8751  105.5623 H         1 B97         0.0620
     31 H4         85.4915  263.4055  106.1623 H         1 B97         0.0635
     32 H5         79.4948  262.6550  109.7975 H         1 B97         0.0689
     33 H6         76.8413  265.9258  105.8958 H         1 B97         0.0656
     34 H7         77.8854  262.0029  108.5031 H         1 B97         0.0833
     35 H8         84.7330  261.6049  113.2479 H         1 B97         0.0534
     36 H9         83.4224  260.3964  113.0272 H         1 B97         0.0534
     37 H10        85.4333  259.2643  113.1863 H         1 B97         0.0570
     38 H11        74.0279  263.7922  107.1302 H         1 B97         0.0426
     39 H12        74.5171  264.5643  105.5839 H         1 B97         0.0426
     40 H13        74.4370  265.5407  107.0895 H         1 B97         0.0426
     41 H14        85.6871  258.0602  111.0720 H         1 B97         0.0252
     42 H15        84.6399  259.2865  110.2808 H         1 B97         0.0252
     43 H16        83.9847  258.2667  111.6065 H         1 B97         0.0252
     44 H17        82.8271  261.8994  111.3677 H         1 B97         0.1751
     45 H18        87.4045  259.8229  112.3537 H         1 B97         0.1830
@<TRIPOS>BOND
     1    1    5 ar 
     2    8    1 ar 
     3    2    6 ar 
     4   10    2 ar 
     5    4    3 ar 
     6   11    3 ar 
     7   13    4 ar 
     8    5   14 ar 
     9    6   16 ar 
    10   10    7 ar 
    11    7   22 ar 
    12    9    8 ar 
    13    8   11 ar 
    14   12    9 1  
    15    9   13 ar 
    16   14   10 1  
    17   11   23 ar 
    18   12   15 2  
    19   24   12 1  
    20   27   13 1  
    21   23   14 ar 
    22   15   17 1  
    23   15   27 1  
    24   16   20 1  
    25   22   16 ar 
    26   17   25 am 
    27   17   26 2  
    28   18   19 1  
    29   18   24 1  
    30   19   21 1  
    31   19   25 1  
    32    1   28 1  
    33    2   29 1  
    34    3   30 1  
    35    4   31 1  
    36    5   32 1  
    37    6   33 1  
    38    7   34 1  
    39   18   35 1  
    40   18   36 1  
    41   19   37 1  
    42   20   38 1  
    43   20   39 1  
    44   20   40 1  
    45   21   41 1  
    46   21   42 1  
    47   21   43 1  
    48   24   44 1  
    49   25   45 1  
@<TRIPOS>SUBSTRUCTURE
     1 B97         1

