### 
### Created by X-TOOL on Mon Sep 10 21:13:02 2018
### 

@<TRIPOS>MOLECULE
3fyk_ligand
   35    37     1     0     0
SMALL
GAST_HUCK


@<TRIPOS>ATOM
      1 C4         83.1280  262.8670  106.1580 C.ar      1 B98        -0.0371
      2 C5         84.4490  262.6760  106.4570 C.ar      1 B98        -0.0535
      3 C19        82.4390  261.8550  108.2380 C.ar      1 B98        -0.0314
      4 C18        83.7670  261.6470  108.5690 C.ar      1 B98         0.0058
      5 C17        84.3470  261.0510  109.7300 C.2       1 B98         0.0595
      6 C3         82.1570  262.4660  107.0330 C.ar      1 B98         0.0839
      7 C6         84.7200  262.0690  107.6600 C.ar      1 B98         0.0281
      8 C8         85.7250  261.0090  109.7110 C.2       1 B98         0.1021
      9 C9         86.7430  260.5340  110.6120 C.2       1 B98         0.1888
     10 C15        84.1620  260.1460  112.0070 C.3       1 B98         0.0511
     11 C12        85.1630  259.0210  111.8450 C.3       1 B98         0.0991
     12 C1         80.0220  262.1720  107.6450 C.3       1 B98         0.0578
     13 C13        84.6790  257.8940  110.9640 C.3       1 B98        -0.0102
     14 N16        83.5760  260.5680  110.7380 N.pl3     1 B98        -0.3225
     15 N11        86.4620  259.4550  111.4170 N.am      1 B98        -0.2820
     16 N14        83.5130  257.3220  111.6660 N.4       1 B98         0.2202
     17 O10        87.8430  261.0670  110.6560 O.2       1 B98        -0.4050
     18 O2         80.8580  262.7080  106.6340 O.3       1 B98        -0.3259
     19 S7         86.2810  261.7220  108.2630 S.3       1 B98        -0.0563
     20 H1         82.8496  263.3387  105.2226 H         1 B98         0.0539
     21 H2         85.2387  262.9863  105.7823 H         1 B98         0.0555
     22 H3         81.6431  261.5467  108.9063 H         1 B98         0.0514
     23 H4         84.6720  261.0076  112.4625 H         1 B98         0.0537
     24 H5         83.3542  259.8050  112.6711 H         1 B98         0.0537
     25 H6         85.2943  258.5944  112.8504 H         1 B98         0.0626
     26 H7         78.9685  262.3385  107.3760 H         1 B98         0.0574
     27 H8         80.2390  262.6691  108.6020 H         1 B98         0.0574
     28 H9         80.2095  261.0924  107.7417 H         1 B98         0.0574
     29 H10        85.4658  257.1349  110.8427 H         1 B98         0.0836
     30 H11        84.3837  258.2771  109.9761 H         1 B98         0.0836
     31 H12        82.5571  260.4979  110.6047 H         1 B98         0.1755
     32 H13        87.2427  258.9180  111.7367 H         1 B98         0.1832
     33 H14        83.1380  256.5575  111.1267 H         1 B98         0.1995
     34 H15        82.8066  258.0323  111.7782 H         1 B98         0.1995
     35 H16        83.7983  256.9856  112.5724 H         1 B98         0.1995
@<TRIPOS>BOND
     1    2    1 ar 
     2    6    1 ar 
     3    7    2 ar 
     4    4    3 ar 
     5    3    6 ar 
     6    5    4 1  
     7    4    7 ar 
     8    5    8 2  
     9   14    5 1  
    10    6   18 1  
    11   19    7 1  
    12    8    9 1  
    13    8   19 1  
    14    9   15 am 
    15    9   17 2  
    16   10   11 1  
    17   10   14 1  
    18   11   13 1  
    19   11   15 1  
    20   18   12 1  
    21   13   16 1  
    22    1   20 1  
    23    2   21 1  
    24    3   22 1  
    25   10   23 1  
    26   10   24 1  
    27   11   25 1  
    28   12   26 1  
    29   12   27 1  
    30   12   28 1  
    31   13   29 1  
    32   13   30 1  
    33   14   31 1  
    34   15   32 1  
    35   16   33 1  
    36   16   34 1  
    37   16   35 1  
@<TRIPOS>SUBSTRUCTURE
     1 B98         1

