### 
### Created by X-TOOL on Mon Sep 10 21:13:04 2018
### 

@<TRIPOS>MOLECULE
3fyz_ligand
   48    49     1     0     0
SMALL
GAST_HUCK


@<TRIPOS>ATOM
      1 C1        107.2930   32.8400   26.9460 C.2       1 MXC         0.0285
      2 C2        106.6450   31.5660   26.9960 C.2       1 MXC        -0.0311
      3 C3        105.4440   31.4660   27.7630 C.2       1 MXC         0.0589
      4 C4        104.5690   30.3430   28.0180 C.2       1 MXC        -0.0838
      5 C5        103.5770   30.7850   28.8300 C.2       1 MXC        -0.0218
      6 C6        103.7560   32.2630   29.1510 C.2       1 MXC         0.1477
      7 C7        105.5670   33.8490   28.3860 C.2       1 MXC         0.0616
      8 C8        106.7510   33.9810   27.6380 C.2       1 MXC        -0.0310
      9 C9        108.5780   32.9870   26.1630 C.2       1 MXC         0.1874
     10 C10       102.4650   29.9140   29.3460 C.3       1 MXC         0.0566
     11 C11       103.0200   33.5170   31.3690 C.3       1 MXC         0.1086
     12 C12       103.8470   34.8040   31.4270 C.2       1 MXC         0.0609
     13 C13       101.5870   33.6010   32.0040 C.3       1 MXC         0.0944
     14 C14       100.9010   34.9460   31.6090 C.3       1 MXC        -0.0382
     15 C15       101.7240   33.4650   33.5420 C.3       1 MXC         0.1012
     16 C16       102.3470   34.7240   35.4430 C.2       1 MXC         0.3169
     17 N1        104.9940   32.5950   28.4010 N.pl3     1 MXC        -0.2189
     18 N2        109.0910   34.2550   26.2010 N.am      1 MXC        -0.3031
     19 N3        102.9480   33.0540   29.9630 N.pl3     1 MXC        -0.2958
     20 N4        101.5000   33.9540   36.2150 N.am      1 MXC        -0.2764
     21 O1        101.2230   30.3670   28.8140 O.3       1 MXC        -0.3903
     22 O2        109.1540   32.1030   25.5500 O.2       1 MXC        -0.3939
     23 O3        104.3400   35.3530   30.4450 O.co2     1 MXC        -0.5666
     24 O4        104.0970   35.4870   32.7330 O.co2     1 MXC        -0.5666
     25 O5         99.1780   32.4170   32.0890 O.co2     1 MXC        -0.5003
     26 O6        101.1390   30.7860   31.8280 O.co2     1 MXC        -0.5003
     27 O7        102.1640   34.6710   34.1040 O.3       1 MXC        -0.2618
     28 O8        103.2010   35.4170   35.9560 O.2       1 MXC        -0.3777
     29 S1        100.4990   32.2690   31.4150 S.o2      1 MXC        -0.2589
     30 H         107.0524   30.7035   26.4685 H         1 MXC         0.0630
     31 H         104.6852   29.3310   27.6301 H         1 MXC         0.0136
     32 H         105.1278   34.6898   28.9229 H         1 MXC         0.1052
     33 H         107.2572   34.9447   27.5822 H         1 MXC         0.0504
     34 H         102.4359   29.9675   30.4343 H         1 MXC         0.0627
     35 H         102.6381   28.8827   29.0386 H         1 MXC         0.0627
     36 H         103.5426   32.7954   31.9969 H         1 MXC         0.0733
     37 H         100.7850   34.9889   30.5260 H         1 MXC         0.0252
     38 H          99.9214   35.0058   32.0832 H         1 MXC         0.0252
     39 H         101.5191   35.7794   31.9428 H         1 MXC         0.0252
     40 H         102.4511   32.6842   33.7651 H         1 MXC         0.0634
     41 H         100.7510   33.2121   33.9633 H         1 MXC         0.0634
     42 H         109.9618   34.4676   25.7144 H         1 MXC         0.1801
     43 H         108.6026   34.9875   26.7160 H         1 MXC         0.1801
     44 H         102.1160   33.3924   29.4797 H         1 MXC         0.1736
     45 H         101.5872   33.9625   37.2312 H         1 MXC         0.1831
     46 H         100.7871   33.3766   35.7691 H         1 MXC         0.1831
     47 H         100.5132   29.8109   29.1435 H         1 MXC         0.2112
     48 H         100.3750   32.3433   30.0929 H         1 MXC         0.1494
@<TRIPOS>BOND
     1    2    1 2  
     2    8    1 1  
     3    1    9 1  
     4    3    2 1  
     5    3    4 2  
     6   17    3 1  
     7    5    4 1  
     8    6    5 2  
     9    5   10 1  
    10    6   17 1  
    11   19    6 1  
    12    7    8 2  
    13   17    7 1  
    14    9   18 am 
    15    9   22 2  
    16   10   21 1  
    17   11   12 1  
    18   13   11 1  
    19   11   19 1  
    20   12   23 ar 
    21   12   24 ar 
    22   13   14 1  
    23   15   13 1  
    24   13   29 1  
    25   27   15 1  
    26   16   20 am 
    27   16   27 1  
    28   16   28 2  
    29   29   25 ar 
    30   29   26 ar 
    31    2   30 1  
    32    4   31 1  
    33    7   32 1  
    34    8   33 1  
    35   10   34 1  
    36   10   35 1  
    37   11   36 1  
    38   14   37 1  
    39   14   38 1  
    40   14   39 1  
    41   15   40 1  
    42   15   41 1  
    43   18   42 1  
    44   18   43 1  
    45   19   44 1  
    46   20   45 1  
    47   20   46 1  
    48   21   47 1  
    49   29   48 1  
@<TRIPOS>SUBSTRUCTURE
     1 MXC         1

