### 
### Created by X-TOOL on Mon Sep 10 21:13:01 2018
### 

@<TRIPOS>MOLECULE
3fz1_ligand
   35    37     1     0     0
SMALL
GAST_HUCK


@<TRIPOS>ATOM
      1 C4         -0.3170   32.1980    8.3620 C.ar      1 B98        -0.0371
      2 C5         -1.4400   32.0240    9.1380 C.ar      1 B98        -0.0535
      3 C19         0.2550   29.8710    8.5670 C.ar      1 B98        -0.0314
      4 C18        -0.8770   29.6740    9.3540 C.ar      1 B98         0.0058
      5 C17        -1.3760   28.4800    9.9670 C.2       1 B98         0.0595
      6 C3          0.5100   31.1400    8.0800 C.ar      1 B98         0.0839
      7 C6         -1.6970   30.7630    9.6130 C.ar      1 B98         0.0281
      8 C8         -2.5480   28.6460   10.6870 C.2       1 B98         0.1021
      9 C9         -3.4180   27.7780   11.4520 C.2       1 B98         0.1888
     10 C15        -1.3190   26.0480   10.1610 C.3       1 B98         0.0511
     11 C12        -1.7010   25.9580   11.6220 C.3       1 B98         0.0991
     12 C1          2.0140   30.1650    6.7170 C.3       1 B98         0.0578
     13 C13        -0.6630   26.3890   12.6340 C.3       1 B98        -0.0102
     14 N16        -0.6970   27.3120    9.8150 N.pl3     1 B98        -0.3225
     15 N11        -2.9580   26.5700   11.9090 N.am      1 B98        -0.2820
     16 N14        -1.3130   26.3280   13.9740 N.4       1 B98         0.2202
     17 O10        -4.5780   28.0840   11.6970 O.2       1 B98        -0.4050
     18 O2          1.6230   31.4060    7.2860 O.3       1 B98        -0.3259
     19 S7         -3.0310   30.2880   10.5950 S.3       1 B98        -0.0563
     20 H1         -0.0833   33.1810    7.9694 H         1 B98         0.0539
     21 H2         -2.0985   32.8543    9.3660 H         1 B98         0.0555
     22 H3          0.9221   29.0470    8.3409 H         1 B98         0.0514
     23 H4         -2.2275   25.9263    9.5529 H         1 B98         0.0537
     24 H5         -0.6132   25.2358    9.9324 H         1 B98         0.0537
     25 H6         -1.8441   24.8824   11.8025 H         1 B98         0.0626
     26 H7          2.8948   30.3169    6.0759 H         1 B98         0.0574
     27 H8          1.1871   29.7612    6.1143 H         1 B98         0.0574
     28 H9          2.2630   29.4556    7.5200 H         1 B98         0.0574
     29 H10        -0.3308   27.4158   12.4212 H         1 B98         0.0836
     30 H11         0.2016   25.7097   12.6018 H         1 B98         0.0836
     31 H12         0.2666   27.3247    9.4513 H         1 B98         0.1755
     32 H13        -3.5724   26.0603   12.5113 H         1 B98         0.1832
     33 H14        -0.6520   26.6091   14.6812 H         1 B98         0.1995
     34 H15        -1.6193   25.3851   14.1563 H         1 B98         0.1995
     35 H16        -2.1072   26.9485   13.9908 H         1 B98         0.1995
@<TRIPOS>BOND
     1    2    1 ar 
     2    6    1 ar 
     3    7    2 ar 
     4    4    3 ar 
     5    3    6 ar 
     6    5    4 1  
     7    4    7 ar 
     8    5    8 2  
     9   14    5 1  
    10    6   18 1  
    11   19    7 1  
    12    8    9 1  
    13    8   19 1  
    14    9   15 am 
    15    9   17 2  
    16   10   11 1  
    17   10   14 1  
    18   11   13 1  
    19   11   15 1  
    20   18   12 1  
    21   13   16 1  
    22    1   20 1  
    23    2   21 1  
    24    3   22 1  
    25   10   23 1  
    26   10   24 1  
    27   11   25 1  
    28   12   26 1  
    29   12   27 1  
    30   12   28 1  
    31   13   29 1  
    32   13   30 1  
    33   14   31 1  
    34   15   32 1  
    35   16   33 1  
    36   16   34 1  
    37   16   35 1  
@<TRIPOS>SUBSTRUCTURE
     1 B98         1

