### 
### Created by X-TOOL on Mon Sep 10 21:13:04 2018
### 

@<TRIPOS>MOLECULE
3fzc_ligand
   53    54     1     0     0
SMALL
GAST_HUCK


@<TRIPOS>ATOM
      1 C1        107.2370   32.5410   26.7760 C.2       1 MXF        -0.0797
      2 C2        106.5340   31.2670   26.8470 C.2       1 MXF        -0.0527
      3 C3        105.3520   31.1930   27.7020 C.2       1 MXF         0.0504
      4 C4        104.4450   30.0970   27.9920 C.2       1 MXF        -0.0906
      5 C5        103.5070   30.5560   28.8610 C.2       1 MXF        -0.0287
      6 C6        103.7450   32.0230   29.2030 C.2       1 MXF         0.1420
      7 C7        105.6100   33.5950   28.3640 C.2       1 MXF         0.0615
      8 C8        106.7780   33.7050   27.5330 C.2       1 MXF        -0.0452
      9 C10       102.3850   29.7090   29.4020 C.3       1 MXF         0.0548
     10 C11       102.9920   33.1480   31.4970 C.3       1 MXF         0.1076
     11 C12       103.8150   34.4390   31.6440 C.2       1 MXF         0.0607
     12 C13       101.5060   33.2420   32.0470 C.3       1 MXF         0.0942
     13 C14       100.8010   34.5240   31.4750 C.3       1 MXF        -0.0382
     14 C15       101.5850   33.2210   33.6110 C.3       1 MXF         0.1012
     15 C16       101.3280   35.3270   34.7240 C.2       1 MXF         0.3197
     16 N1        104.9730   32.3410   28.3950 N.pl3     1 MXF        -0.2222
     17 N3        102.9710   32.8080   30.0570 N.pl3     1 MXF        -0.2991
     18 N4        102.5740   35.2180   35.3470 N.am      1 MXF        -0.2574
     19 O1        101.2090   29.9540   28.6250 O.3       1 MXF        -0.3906
     20 O3        104.3210   35.0370   30.7010 O.co2     1 MXF        -0.5666
     21 O4        104.0400   35.0600   32.9920 O.co2     1 MXF        -0.5666
     22 O5         99.1000   32.0590   32.1190 O.co2     1 MXF        -0.5003
     23 O6        101.0970   30.4080   32.1040 O.co2     1 MXF        -0.5003
     24 O7        100.7620   34.1820   34.2390 O.3       1 MXF        -0.2617
     25 O8        100.7770   36.4080   34.5980 O.2       1 MXF        -0.3775
     26 S1        100.4550   31.8470   31.5370 S.o2      1 MXF        -0.2589
     27 C17       102.6860   34.7510   36.6540 C.3       1 MXF         0.0726
     28 C18       103.3350   34.1220   37.8920 C.3       1 MXF        -0.0148
     29 N5        102.9690   34.8300   39.1650 N.4       1 MXF         0.2199
     30 H         108.1224   32.6283   26.1463 H         1 MXF         0.0483
     31 H         106.8777   30.4002   26.2824 H         1 MXF         0.0543
     32 H         104.5057   29.0874   27.5856 H         1 MXF         0.0090
     33 H         105.2366   34.4409   28.9412 H         1 MXF         0.1068
     34 H         107.3178   34.6497   27.4676 H         1 MXF         0.0493
     35 H         102.1989   29.9637   30.4454 H         1 MXF         0.0624
     36 H         102.6552   28.6547   29.3421 H         1 MXF         0.0624
     37 H         103.4687   32.3803   32.1066 H         1 MXF         0.0731
     38 H         100.7363   34.4478   30.3896 H         1 MXF         0.0252
     39 H          99.7985   34.6039   31.8953 H         1 MXF         0.0252
     40 H         101.3808   35.4068   31.7446 H         1 MXF         0.0252
     41 H         102.6151   33.4469   33.8865 H         1 MXF         0.0634
     42 H         101.2449   32.2389   33.9394 H         1 MXF         0.0634
     43 H         102.1987   33.2600   29.5676 H         1 MXF         0.1718
     44 H         103.4154   35.4849   34.8359 H         1 MXF         0.1869
     45 H         100.4870   29.4185   28.9618 H         1 MXF         0.2112
     46 H         100.3873   31.7817   30.2103 H         1 MXF         0.1494
     47 H         102.1666   33.8247   36.4083 H         1 MXF         0.0572
     48 H         102.8316   35.7590   37.0424 H         1 MXF         0.0572
     49 H         104.4163   34.1889   37.7721 H         1 MXF         0.0833
     50 H         102.9808   33.0940   37.9684 H         1 MXF         0.0833
     51 H         103.4271   34.3705   39.9520 H         1 MXF         0.1995
     52 H         103.2747   35.8017   39.1122 H         1 MXF         0.1995
     53 H         101.9575   34.7970   39.2923 H         1 MXF         0.1995
@<TRIPOS>BOND
     1    2    1 2  
     2    8    1 1  
     3    3    2 1  
     4    3    4 2  
     5   16    3 1  
     6    5    4 1  
     7    6    5 2  
     8    5    9 1  
     9    6   16 1  
    10   17    6 1  
    11    7    8 2  
    12   16    7 1  
    13    9   19 1  
    14   10   11 1  
    15   12   10 1  
    16   10   17 1  
    17   11   20 ar 
    18   11   21 ar 
    19   12   13 1  
    20   14   12 1  
    21   12   26 1  
    22   24   14 1  
    23   15   18 am 
    24   15   24 1  
    25   15   25 2  
    26   18   27 1  
    27   26   22 ar 
    28   26   23 ar 
    29   27   28 1  
    30   28   29 1  
    31    1   30 1  
    32    2   31 1  
    33    4   32 1  
    34    7   33 1  
    35    8   34 1  
    36    9   35 1  
    37    9   36 1  
    38   10   37 1  
    39   13   38 1  
    40   13   39 1  
    41   13   40 1  
    42   14   41 1  
    43   14   42 1  
    44   17   43 1  
    45   18   44 1  
    46   19   45 1  
    47   26   46 1  
    48   27   47 1  
    49   27   48 1  
    50   28   49 1  
    51   28   50 1  
    52   29   51 1  
    53   29   52 1  
    54   29   53 1  
@<TRIPOS>SUBSTRUCTURE
     1 MXF         1

