### 
### Created by X-TOOL on Mon Sep 10 21:13:01 2018
### 

@<TRIPOS>MOLECULE
3fzr_ligand
   56    59     1     0     0
SMALL
GAST_HUCK


@<TRIPOS>ATOM
      1 C35        20.6360   65.5610   19.5510 C.3       1 3JZ         0.0429
      2 C34        19.9640   66.9550   21.8930 C.3       1 3JZ         0.0787
      3 N2         25.9610   69.2740   15.9400 N.ar      1 3JZ        -0.2282
      4 C7         26.8210   69.6040   16.9380 C.ar      1 3JZ         0.0368
      5 C6         26.5190   69.1450   18.2570 C.ar      1 3JZ         0.0965
      6 C13        23.9200   65.8990   20.0810 C.ar      1 3JZ        -0.0012
      7 C20        22.8840   65.0480   20.4410 C.ar      1 3JZ         0.0694
      8 C21        21.1130   65.1460   15.7460 C.ar      1 3JZ         0.0648
      9 C8         27.4490   69.5790   19.3080 C.3       1 3JZ         0.3606
     10 C18        25.3980   63.9070   20.0150 C.ar      1 3JZ        -0.0859
     11 C16        23.1480   66.0260   16.6370 C.ar      1 3JZ        -0.0524
     12 C19        24.4060   63.0670   20.3780 C.ar      1 3JZ        -0.0849
     13 O33        22.1110   66.3530   23.0020 O.2       1 3JZ        -0.1502
     14 S31        21.1060   65.7730   22.2750 S.o2      1 3JZ         0.0581
     15 O32        20.6420   64.4890   22.7570 O.2       1 3JZ        -0.1502
     16 N30        21.5440   65.5130   20.6530 N.am      1 3JZ        -0.1843
     17 C17        25.1910   65.2880   19.8320 C.ar      1 3JZ        -0.0737
     18 C1         23.1590   63.6110   20.5900 C.ar      1 3JZ        -0.0516
     19 C12        23.6200   67.3390   19.9680 C.3       1 3JZ         0.0654
     20 N10        24.9960   68.0170   19.9480 N.pl3     1 3JZ        -0.2766
     21 C5         25.4350   68.3860   18.6230 C.ar      1 3JZ         0.1504
     22 F29        28.0710   68.4490   20.0010 F         1 3JZ        -0.2427
     23 F28        26.7250   70.1790   20.2680 F         1 3JZ        -0.2427
     24 F27        28.4510   70.2960   18.5600 F         1 3JZ        -0.2427
     25 N4         24.6350   68.0320   17.6060 N.ar      1 3JZ        -0.2087
     26 C3         25.0140   68.4350   16.3440 C.ar      1 3JZ         0.2256
     27 N9         24.2490   67.9980   15.3890 N.pl3     1 3JZ        -0.2364
     28 C11        23.2020   66.9850   15.6350 C.ar      1 3JZ         0.0560
     29 C14        22.1990   66.9370   14.6810 C.ar      1 3JZ        -0.0419
     30 C22        21.1850   66.0520   14.7500 C.ar      1 3JZ        -0.0067
     31 C23        20.0120   65.8750   13.7710 C.3       1 3JZ         0.0702
     32 C15        22.0940   65.1280   16.7040 C.ar      1 3JZ        -0.0516
     33 N25        19.9940   64.3550   15.5650 N.am      1 3JZ        -0.2395
     34 C24        19.2550   64.7220   14.4000 C.2       1 3JZ         0.2072
     35 O26        18.1730   64.2240   13.9210 O.2       1 3JZ        -0.3895
     36 H          19.8581   64.8103   19.6899 H         1 3JZ         0.0514
     37 H          20.1824   66.5507   19.4985 H         1 3JZ         0.0514
     38 H          21.1773   65.3585   18.6268 H         1 3JZ         0.0514
     39 H          19.5600   67.3786   22.8124 H         1 3JZ         0.0487
     40 H          20.4393   67.7417   21.3071 H         1 3JZ         0.0487
     41 H          19.1576   66.5055   21.3135 H         1 3JZ         0.0487
     42 H          27.7122   70.1993   16.7393 H         1 3JZ         0.1099
     43 H          26.3973   63.5012   19.8575 H         1 3JZ         0.0453
     44 H          23.9439   65.9784   17.3802 H         1 3JZ         0.0472
     45 H          24.5852   61.9986   20.4988 H         1 3JZ         0.0515
     46 H          26.0203   65.9082   19.4918 H         1 3JZ         0.0508
     47 H          22.3425   62.9497   20.8800 H         1 3JZ         0.0458
     48 H          23.0015   67.6936   20.7925 H         1 3JZ         0.0673
     49 H          23.0391   67.5666   19.0742 H         1 3JZ         0.0673
     50 H          25.5470   68.1902   20.7887 H         1 3JZ         0.2000
     51 H          24.3745   68.3637   14.4451 H         1 3JZ         0.2274
     52 H          22.2309   67.6381   13.8470 H         1 3JZ         0.0462
     53 H          20.3281   65.6788   12.7464 H         1 3JZ         0.0646
     54 H          19.4090   66.7748   13.6495 H         1 3JZ         0.0646
     55 H          22.0450   64.4064   17.5195 H         1 3JZ         0.0470
     56 H          19.7269   63.5961   16.1920 H         1 3JZ         0.2234
@<TRIPOS>BOND
     1   16    1 1  
     2   14    2 1  
     3    3    4 ar 
     4   26    3 ar 
     5    4    5 ar 
     6    5    9 1  
     7   21    5 ar 
     8    6    7 ar 
     9    6   17 ar 
    10   19    6 1  
    11    7   16 1  
    12    7   18 ar 
    13    8   30 ar 
    14   32    8 ar 
    15    8   33 1  
    16    9   22 1  
    17    9   23 1  
    18    9   24 1  
    19   10   12 ar 
    20   17   10 ar 
    21   28   11 ar 
    22   11   32 ar 
    23   18   12 ar 
    24   14   13 2  
    25   14   15 2  
    26   16   14 am 
    27   20   19 1  
    28   21   20 1  
    29   25   21 ar 
    30   26   25 ar 
    31   27   26 1  
    32   27   28 1  
    33   28   29 ar 
    34   29   30 ar 
    35   30   31 1  
    36   31   34 1  
    37   33   34 am 
    38   34   35 2  
    39    1   36 1  
    40    1   37 1  
    41    1   38 1  
    42    2   39 1  
    43    2   40 1  
    44    2   41 1  
    45    4   42 1  
    46   10   43 1  
    47   11   44 1  
    48   12   45 1  
    49   17   46 1  
    50   18   47 1  
    51   19   48 1  
    52   19   49 1  
    53   20   50 1  
    54   27   51 1  
    55   29   52 1  
    56   31   53 1  
    57   31   54 1  
    58   32   55 1  
    59   33   56 1  
@<TRIPOS>SUBSTRUCTURE
     1 3JZ         1

