### 
### Created by X-TOOL on Mon Sep 10 21:13:00 2018
### 

@<TRIPOS>MOLECULE
3fzs_ligand
   77    81     1     0     0
SMALL
GAST_HUCK


@<TRIPOS>ATOM
      1 C1         -4.8590   -2.6550   12.3500 C.2       1 B96         0.3230
      2 O1         -4.2560   -2.6400   11.2790 O.2       1 B96        -0.3787
      3 N2         -4.8370   -3.7260   13.1670 N.am      1 B96        -0.2165
      4 C3         -4.0090   -4.8320   12.9830 C.ar      1 B96         0.0681
      5 C4         -3.8010   -5.6970   11.8940 C.ar      1 B96         0.0044
      6 C5         -2.8000   -6.6840   12.0070 C.ar      1 B96         0.0053
      7 C6         -2.0000   -6.7920   13.1630 C.ar      1 B96         0.0840
      8 C31        -4.5680   -5.6220   10.7390 C.ar      1 B96        -0.0590
      9 C32        -4.3500   -6.5160    9.6960 C.ar      1 B96        -0.0670
     10 C33        -3.3700   -7.4900    9.8050 C.ar      1 B96        -0.0672
     11 C34        -2.5920   -7.5770   10.9550 C.ar      1 B96        -0.0593
     12 C7         -2.1920   -5.9060   14.2090 C.ar      1 B96        -0.0528
     13 C8         -3.1810   -4.9360   14.1020 C.ar      1 B96        -0.0551
     14 N9         -5.6170   -1.6450   12.7710 N.am      1 B96        -0.1794
     15 C10        -5.8550   -0.4280   12.1570 C.2       1 B96         0.2188
     16 C14        -5.4330   -0.0130   10.8910 C.2       1 B96        -0.0194
     17 C13        -6.0080    1.2730   10.8210 C.2       1 B96        -0.0041
     18 N12        -6.7360    1.6470   11.8990 N.2       1 B96        -0.1672
     19 N11        -6.6280    0.5170   12.7020 N.pl3     1 B96        -0.1067
     20 C15        -7.2180    0.5540   13.9110 C.ar      1 B96         0.1228
     21 C17        -7.2520    2.3510    8.9890 C.3       1 B96        -0.0859
     22 C18        -5.5120    3.6330   10.2350 C.3       1 B96        -0.0859
     23 C19        -4.9000    1.7610    8.6500 C.3       1 B96        -0.0859
     24 C16        -5.9030    2.2540    9.6800 C.3       1 B96        -0.0463
     25 C20        -6.5440    0.1410   15.0700 C.ar      1 B96        -0.0265
     26 C21        -7.1250    0.2210   16.3440 C.ar      1 B96        -0.0608
     27 C22        -8.3940    0.7720   16.4790 C.ar      1 B96        -0.0493
     28 C23        -9.0760    1.2310   15.3600 C.ar      1 B96        -0.0608
     29 C24        -8.4820    1.1290   14.1030 C.ar      1 B96        -0.0265
     30 C25        -9.0500    0.8810   17.8370 C.3       1 B96        -0.0327
     31 O41        -1.0220   -7.7530   13.2780 O.3       1 B96        -0.3216
     32 C42         0.0620   -7.6170   14.2130 C.3       1 B96         0.1073
     33 C43         1.1200   -8.6890   13.9360 C.3       1 B96        -0.0036
     34 N44         2.0730   -8.2320   12.9140 N.4       1 B96         0.2404
     35 C45         1.3980   -7.9790   11.6170 C.3       1 B96        -0.0077
     36 C46         2.4400   -7.6260   10.5580 C.3       1 B96         0.0878
     37 O47         3.3460   -8.7250   10.4290 O.3       1 B96        -0.3693
     38 C48         4.0920   -8.9610   11.6300 C.3       1 B96         0.0878
     39 C49         3.1380   -9.2630   12.7860 C.3       1 B96        -0.0077
     40 H1         -5.4532   -3.7275   13.9546 H         1 B96         0.2264
     41 H2         -5.3386   -4.8648   10.6499 H         1 B96         0.0609
     42 H3         -4.9487   -6.4507    8.7947 H         1 B96         0.0577
     43 H4         -3.2090   -8.1871    8.9906 H         1 B96         0.0587
     44 H5         -1.8244   -8.3383   11.0339 H         1 B96         0.0598
     45 H6         -1.5784   -5.9681   15.1005 H         1 B96         0.0454
     46 H7         -3.3145   -4.2343   14.9174 H         1 B96         0.0411
     47 H8         -6.0759   -1.7844   13.6485 H         1 B96         0.2343
     48 H9         -4.8248   -0.5399   10.1572 H         1 B96         0.0221
     49 H10        -7.1860    3.0647    8.1545 H         1 B96         0.0131
     50 H11        -8.0085    2.6972    9.7086 H         1 B96         0.0131
     51 H12        -7.5385    1.3615    8.6034 H         1 B96         0.0131
     52 H13        -4.5350    3.5632   10.7356 H         1 B96         0.0131
     53 H14        -6.2713    3.9661   10.9578 H         1 B96         0.0131
     54 H15        -5.4498    4.3566    9.4088 H         1 B96         0.0131
     55 H16        -5.2125    0.7745    8.2769 H         1 B96         0.0131
     56 H17        -3.9067    1.6791    9.1154 H         1 B96         0.0131
     57 H18        -4.8549    2.4724    7.8123 H         1 B96         0.0131
     58 H19        -5.5387   -0.2539   14.9776 H         1 B96         0.0595
     59 H20        -6.5903   -0.1429   17.2139 H         1 B96         0.0550
     60 H21       -10.0636    1.6657   15.4632 H         1 B96         0.0550
     61 H22        -9.0181    1.5089   13.2409 H         1 B96         0.0595
     62 H23        -8.3751    0.4733   18.6040 H         1 B96         0.0385
     63 H24        -9.9910    0.3114   17.8364 H         1 B96         0.0385
     64 H25        -9.2610    1.9376   18.0586 H         1 B96         0.0385
     65 H26        -0.3211   -7.7374   15.2371 H         1 B96         0.0664
     66 H27         0.5146   -6.6202   14.1056 H         1 B96         0.0664
     67 H28         0.6222   -9.6035   13.5812 H         1 B96         0.0841
     68 H29         1.6656   -8.9058   14.8662 H         1 B96         0.0841
     69 H30         2.4921   -7.3688   13.2227 H         1 B96         0.2036
     70 H31         0.6918   -7.1431   11.7287 H         1 B96         0.0837
     71 H32         0.8516   -8.8817   11.3064 H         1 B96         0.0837
     72 H33         2.9910   -6.7250   10.8654 H         1 B96         0.0613
     73 H34         1.9421   -7.4406    9.5948 H         1 B96         0.0613
     74 H35         4.6860   -8.0673   11.8717 H         1 B96         0.0613
     75 H36         4.7644   -9.8184   11.4789 H         1 B96         0.0613
     76 H37         2.6662  -10.2411   12.6107 H         1 B96         0.0837
     77 H38         3.7142   -9.2964   13.7224 H         1 B96         0.0837
@<TRIPOS>BOND
     1    1    2 2  
     2    1    3 am 
     3    1   14 am 
     4    3    4 1  
     5    4    5 ar 
     6    4   13 ar 
     7    5    6 ar 
     8    5    8 ar 
     9    6    7 ar 
    10    6   11 ar 
    11    7   12 ar 
    12    7   31 1  
    13    8    9 ar 
    14    9   10 ar 
    15   10   11 ar 
    16   12   13 ar 
    17   14   15 1  
    18   15   16 2  
    19   15   19 1  
    20   16   17 1  
    21   17   18 2  
    22   17   24 1  
    23   18   19 1  
    24   19   20 1  
    25   20   25 ar 
    26   20   29 ar 
    27   24   21 1  
    28   24   22 1  
    29   24   23 1  
    30   25   26 ar 
    31   26   27 ar 
    32   27   28 ar 
    33   27   30 1  
    34   28   29 ar 
    35   31   32 1  
    36   32   33 1  
    37   33   34 1  
    38   34   35 1  
    39   34   39 1  
    40   35   36 1  
    41   36   37 1  
    42   37   38 1  
    43   38   39 1  
    44    3   40 1  
    45    8   41 1  
    46    9   42 1  
    47   10   43 1  
    48   11   44 1  
    49   12   45 1  
    50   13   46 1  
    51   14   47 1  
    52   16   48 1  
    53   21   49 1  
    54   21   50 1  
    55   21   51 1  
    56   22   52 1  
    57   22   53 1  
    58   22   54 1  
    59   23   55 1  
    60   23   56 1  
    61   23   57 1  
    62   25   58 1  
    63   26   59 1  
    64   28   60 1  
    65   29   61 1  
    66   30   62 1  
    67   30   63 1  
    68   30   64 1  
    69   32   65 1  
    70   32   66 1  
    71   33   67 1  
    72   33   68 1  
    73   34   69 1  
    74   35   70 1  
    75   35   71 1  
    76   36   72 1  
    77   36   73 1  
    78   38   74 1  
    79   38   75 1  
    80   39   76 1  
    81   39   77 1  
@<TRIPOS>SUBSTRUCTURE
     1 B96         1

