### 
### Created by X-TOOL on Mon Sep 10 21:13:00 2018
### 

@<TRIPOS>MOLECULE
3fzt_ligand
   60    63     1     0     0
SMALL
GAST_HUCK


@<TRIPOS>ATOM
      1 C4         -5.8340    3.9610    9.8660 C.3       1 4JZ        -0.0859
      2 C7         -7.5500    0.3850   15.9770 C.ar      1 4JZ        -0.0608
      3 C6          0.4380   -8.4020   10.1830 C.ar      1 4JZ        -0.0128
      4 C9         -6.8760    0.2730   14.7630 C.ar      1 4JZ        -0.0265
      5 C13        -5.9510    0.2050   10.4410 C.2       1 4JZ        -0.0194
      6 C20        -6.2800    1.5800   10.3960 C.2       1 4JZ        -0.0041
      7 C21        -4.3530   -4.6630   12.3980 C.2       1 4JZ         0.0971
      8 C8         -9.3960    1.4990   14.9260 C.ar      1 4JZ        -0.0608
      9 C18        -0.9190   -8.4430    9.8390 C.ar      1 4JZ         0.1226
     10 C16        -8.7890    1.0170   16.0680 C.ar      1 4JZ        -0.0493
     11 C19        -2.6350   -6.0330   12.0680 C.2       1 4JZ         0.0871
     12 C1         -9.5170    1.1140   17.3980 C.3       1 4JZ        -0.0327
     13 C2         -7.2900    2.5700    8.3850 C.3       1 4JZ        -0.0859
     14 C3         -4.8680    2.1640    8.3720 C.3       1 4JZ        -0.0859
     15 C5          1.3430   -9.1830    9.4540 C.ar      1 4JZ        -0.0426
     16 C10        -8.7400    1.3850   13.7100 C.ar      1 4JZ        -0.0265
     17 C11         0.8670   -9.9720    8.4120 C.ar      1 4JZ        -0.0002
     18 C12        -3.4090   -5.0140   11.4690 C.2       1 4JZ        -0.0250
     19 C14        -1.3180   -9.2570    8.7890 C.ar      1 4JZ         0.0399
     20 C15        -1.4560   -6.7960   11.4990 C.3       1 4JZ         0.1318
     21 C17        -7.4790    0.7860   13.6180 C.ar      1 4JZ         0.1228
     22 C22        -6.3420   -0.2870   11.6510 C.2       1 4JZ         0.2187
     23 C23        -5.2640   -2.4750   11.8140 C.2       1 4JZ         0.3191
     24 C24        -6.0490    2.5600    9.2680 C.3       1 4JZ        -0.0463
     25 N25        -4.1130   -5.3670   13.5160 N.2       1 4JZ        -0.2377
     26 N26        -0.4180   -9.9790    8.1190 N.ar      1 4JZ        -0.3071
     27 N27        -3.0620   -6.2270   13.2890 N.pl3     1 4JZ        -0.2358
     28 N28        -6.8340    1.8990   11.5350 N.2       1 4JZ        -0.1672
     29 N29        -5.3190   -3.6660   12.4510 N.am      1 4JZ        -0.2167
     30 N30        -6.2290   -1.6010   12.1520 N.am      1 4JZ        -0.1803
     31 N31        -6.8960    0.7510   12.3390 N.pl3     1 4JZ        -0.1067
     32 O32        -4.4110   -2.2200   10.9690 O.2       1 4JZ        -0.3805
     33 O33        -1.8630   -7.7050   10.4940 O.3       1 4JZ        -0.2934
     34 H          -5.7013    4.6824    9.0597 H         1 4JZ         0.0131
     35 H          -6.7032    4.2372   10.4629 H         1 4JZ         0.0131
     36 H          -4.9457    3.9526   10.4976 H         1 4JZ         0.0131
     37 H          -7.0977   -0.0315   16.8771 H         1 4JZ         0.0550
     38 H           0.7835   -7.7733   11.0037 H         1 4JZ         0.0663
     39 H          -5.8981   -0.2057   14.7108 H         1 4JZ         0.0595
     40 H          -5.4683   -0.3631    9.6458 H         1 4JZ         0.0221
     41 H         -10.3803    1.9642   14.9796 H         1 4JZ         0.0550
     42 H          -9.7225    2.1606   17.6228 H         1 4JZ         0.0385
     43 H         -10.4555    0.5629   17.3381 H         1 4JZ         0.0385
     44 H          -8.8935    0.6879   18.1840 H         1 4JZ         0.0385
     45 H          -7.1558    3.2926    7.5801 H         1 4JZ         0.0131
     46 H          -7.4414    1.5769    7.9620 H         1 4JZ         0.0131
     47 H          -8.1578    2.8476    8.9833 H         1 4JZ         0.0131
     48 H          -5.0498    1.1760    7.9490 H         1 4JZ         0.0131
     49 H          -4.7642    2.8917    7.5671 H         1 4JZ         0.0131
     50 H          -3.9540    2.1440    8.9655 H         1 4JZ         0.0131
     51 H           2.4050   -9.1729    9.6994 H         1 4JZ         0.0681
     52 H          -9.2160    1.7696   12.8080 H         1 4JZ         0.0595
     53 H           1.5589  -10.5864    7.8360 H         1 4JZ         0.0729
     54 H          -3.2813   -4.5931   10.4717 H         1 4JZ         0.0204
     55 H          -2.3706   -9.3070    8.5103 H         1 4JZ         0.0751
     56 H          -0.9879   -7.3600   12.3057 H         1 4JZ         0.0829
     57 H          -0.7624   -6.0806   11.0572 H         1 4JZ         0.0829
     58 H          -2.6825   -6.8983   13.9566 H         1 4JZ         0.2428
     59 H          -6.1441   -3.8492   13.0220 H         1 4JZ         0.2210
     60 H          -6.9328   -1.9120   12.8216 H         1 4JZ         0.2342
@<TRIPOS>BOND
     1   24    1 1  
     2    4    2 ar 
     3    2   10 ar 
     4    9    3 ar 
     5    3   15 ar 
     6   21    4 ar 
     7    5    6 1  
     8   22    5 2  
     9    6   24 1  
    10    6   28 2  
    11    7   18 1  
    12    7   25 2  
    13   29    7 1  
    14    8   10 ar 
    15   16    8 ar 
    16    9   19 ar 
    17   33    9 1  
    18   10   12 1  
    19   18   11 2  
    20   11   20 1  
    21   11   27 1  
    22   24   13 1  
    23   24   14 1  
    24   15   17 ar 
    25   21   16 ar 
    26   26   17 ar 
    27   19   26 ar 
    28   20   33 1  
    29   31   21 1  
    30   30   22 1  
    31   22   31 1  
    32   23   29 am 
    33   23   30 am 
    34   23   32 2  
    35   25   27 1  
    36   28   31 1  
    37    1   34 1  
    38    1   35 1  
    39    1   36 1  
    40    2   37 1  
    41    3   38 1  
    42    4   39 1  
    43    5   40 1  
    44    8   41 1  
    45   12   42 1  
    46   12   43 1  
    47   12   44 1  
    48   13   45 1  
    49   13   46 1  
    50   13   47 1  
    51   14   48 1  
    52   14   49 1  
    53   14   50 1  
    54   15   51 1  
    55   16   52 1  
    56   17   53 1  
    57   18   54 1  
    58   19   55 1  
    59   20   56 1  
    60   20   57 1  
    61   27   58 1  
    62   29   59 1  
    63   30   60 1  
@<TRIPOS>SUBSTRUCTURE
     1 4JZ         1

