### 
### Created by X-TOOL on Mon Sep 10 21:13:04 2018
### 

@<TRIPOS>MOLECULE
3g0b_ligand
   47    49     1     0     0
SMALL
GAST_HUCK


@<TRIPOS>ATOM
      1 O26        41.2630   33.8520   11.7700 O.2       1 T22        -0.3821
      2 C25        42.0840   33.4010   12.6020 C.2       1 T22         0.3337
      3 N2         42.5640   32.1420   12.4290 N.am      1 T22        -0.1815
      4 C1         42.0920   31.3540   11.2710 C.3       1 T22         0.0468
      5 N15        42.4670   34.1610   13.6530 N.am      1 T22        -0.1510
      6 C16        41.9100   35.5340   13.7850 C.3       1 T22         0.1077
      7 C17        40.3890   35.6000   13.9450 C.ar      1 T22         0.0226
      8 C22        39.6620   34.8050   14.8640 C.ar      1 T22         0.0995
      9 C23        40.2280   33.9290   15.6510 C.1       1 T22         0.0935
     10 N24        40.7240   33.1510   16.3760 N.1       1 T22        -0.3348
     11 C21        38.2650   34.9480   14.9320 C.ar      1 T22        -0.0333
     12 C20        37.5930   35.8730   14.1150 C.ar      1 T22        -0.0574
     13 C19        38.3180   36.6800   13.2310 C.ar      1 T22        -0.0597
     14 C18        39.7050   36.5260   13.1540 C.ar      1 T22        -0.0461
     15 C6         43.3720   33.6580   14.5520 C.2       1 T22         0.1621
     16 C5         43.8720   32.3590   14.3960 C.2       1 T22         0.0079
     17 C3         43.4460   31.6200   13.3110 C.2       1 T22         0.1613
     18 O4         43.9100   30.4730   13.1810 O.2       1 T22        -0.4289
     19 N7         43.9910   34.4110   15.5810 N.pl3     1 T22        -0.2673
     20 C14        44.0770   33.8920   16.9690 C.3       1 T22         0.0782
     21 C11        44.0450   34.9720   18.0630 C.3       1 T22        -0.0030
     22 N13        42.6720   35.5000   18.2800 N.4       1 T22         0.2222
     23 C10        45.0000   36.1080   17.7300 C.3       1 T22        -0.0060
     24 C9         44.7530   36.6570   16.3310 C.3       1 T22        -0.0268
     25 C8         44.8200   35.5820   15.2680 C.3       1 T22         0.0360
     26 H1         41.3847   31.9560   10.6816 H         1 T22         0.0538
     27 H2         41.5894   30.4429   11.6278 H         1 T22         0.0538
     28 H3         42.9505   31.0767   10.6417 H         1 T22         0.0538
     29 H4         42.1836   36.1019   12.8836 H         1 T22         0.0800
     30 H5         42.3671   36.0048   14.6678 H         1 T22         0.0800
     31 H6         37.6983   34.3361   15.6244 H         1 T22         0.0699
     32 H7         36.5140   35.9614   14.1695 H         1 T22         0.0584
     33 H8         37.8112   37.4139   12.6149 H         1 T22         0.0671
     34 H9         40.2657   37.1426   12.4609 H         1 T22         0.0582
     35 H10        44.5787   31.9428   15.1124 H         1 T22         0.0003
     36 H11        45.0189   33.3325   17.0677 H         1 T22         0.0586
     37 H12        43.2278   33.2125   17.1338 H         1 T22         0.0586
     38 H13        44.3807   34.5082   19.0023 H         1 T22         0.0870
     39 H14        42.6927   36.2031   19.0020 H         1 T22         0.1997
     40 H15        42.0632   34.7475   18.5612 H         1 T22         0.1997
     41 H16        42.3295   35.9074   17.4240 H         1 T22         0.1997
     42 H17        46.0330   35.7349   17.7896 H         1 T22         0.0321
     43 H18        44.8599   36.9179   18.4610 H         1 T22         0.0321
     44 H19        45.5153   37.4189   16.1110 H         1 T22         0.0287
     45 H20        43.7548   37.1184   16.3040 H         1 T22         0.0287
     46 H21        44.4760   36.0100   14.3149 H         1 T22         0.0529
     47 H22        45.8651   35.2543   15.1668 H         1 T22         0.0529
@<TRIPOS>BOND
     1    1    2 2  
     2    2    3 am 
     3    2    5 am 
     4    3    4 1  
     5    3   17 am 
     6    5    6 1  
     7    5   15 1  
     8    6    7 1  
     9    7    8 ar 
    10    7   14 ar 
    11    8    9 1  
    12    8   11 ar 
    13    9   10 3  
    14   11   12 ar 
    15   12   13 ar 
    16   13   14 ar 
    17   15   16 2  
    18   15   19 1  
    19   16   17 1  
    20   17   18 2  
    21   19   20 1  
    22   19   25 1  
    23   20   21 1  
    24   21   22 1  
    25   21   23 1  
    26   23   24 1  
    27   24   25 1  
    28    4   26 1  
    29    4   27 1  
    30    4   28 1  
    31    6   29 1  
    32    6   30 1  
    33   11   31 1  
    34   12   32 1  
    35   13   33 1  
    36   14   34 1  
    37   16   35 1  
    38   20   36 1  
    39   20   37 1  
    40   21   38 1  
    41   22   39 1  
    42   22   40 1  
    43   22   41 1  
    44   23   42 1  
    45   23   43 1  
    46   24   44 1  
    47   24   45 1  
    48   25   46 1  
    49   25   47 1  
@<TRIPOS>SUBSTRUCTURE
     1 T22         1

