### 
### Created by X-TOOL on Mon Sep 10 21:13:03 2018
### 

@<TRIPOS>MOLECULE
3g0c_ligand
   49    52     1     0     0
SMALL
GAST_HUCK


@<TRIPOS>ATOM
      1 C1         46.4360   16.1120   13.7630 C.3       1 RUF         0.0445
      2 N2         45.1930   16.6010   13.1520 N.am      1 RUF        -0.2064
      3 C3         44.6280   17.7960   13.6080 C.2       1 RUF         0.1165
      4 N4         44.9600   18.6910   14.5430 N.2       1 RUF        -0.2875
      5 C5         44.0750   19.6780   14.6130 C.2       1 RUF         0.2134
      6 N6         44.1620   20.7570   15.5020 N.pl3     1 RUF        -0.2554
      7 C7         45.3080   20.6920   16.4430 C.3       1 RUF         0.0749
      8 C8         44.9420   19.8670   17.6920 C.3       1 RUF        -0.0125
      9 N9         43.6900   20.3430   18.3200 N.4       1 RUF         0.2299
     10 C10        42.5380   20.4080   17.4010 C.3       1 RUF        -0.0125
     11 C11        42.9010   21.2140   16.1500 C.3       1 RUF         0.0749
     12 N12        43.1070   19.4380   13.6630 N.pl3     1 RUF        -0.2227
     13 C13        41.8860   20.2000   13.3730 C.3       1 RUF         0.0862
     14 C14        40.7600   19.5350   14.1530 C.ar      1 RUF        -0.0005
     15 C15        40.9790   18.4150   14.9640 C.ar      1 RUF        -0.0572
     16 C16        39.9480   17.8220   15.6820 C.ar      1 RUF        -0.0683
     17 C17        38.6650   18.3430   15.5860 C.ar      1 RUF        -0.0682
     18 C18        38.4270   19.4560   14.7860 C.ar      1 RUF        -0.0545
     19 C19        39.4730   20.0400   14.0810 C.ar      1 RUF         0.0437
     20 CL20       39.1690   21.4110   13.0830 Cl        1 RUF        -0.0771
     21 C21        43.4390   18.2420   13.0270 C.2       1 RUF         0.1482
     22 C22        42.8300   17.4750   12.0040 C.2       1 RUF         0.2185
     23 O23        41.7870   17.8660   11.4990 O.2       1 RUF        -0.4076
     24 N24        43.4120   16.3110   11.6010 N.am      1 RUF        -0.1762
     25 C25        42.7810   15.5020   10.5420 C.3       1 RUF         0.0473
     26 C26        44.5670   15.8900   12.1710 C.2       1 RUF         0.3173
     27 O27        45.0520   14.8480   11.7790 O.2       1 RUF        -0.3874
     28 H          46.2543   15.1427   14.2273 H         1 RUF         0.0549
     29 H          47.2018   16.0101   12.9940 H         1 RUF         0.0549
     30 H          46.7711   16.8216   14.5195 H         1 RUF         0.0549
     31 H          45.5668   21.7044   16.7531 H         1 RUF         0.0578
     32 H          46.1497   20.2154   15.9404 H         1 RUF         0.0578
     33 H          45.7488   19.9693   18.4177 H         1 RUF         0.0834
     34 H          44.7988   18.8304   17.3870 H         1 RUF         0.0834
     35 H          43.8626   21.2915   18.6532 H         1 RUF         0.2015
     36 H          43.4508   19.6778   19.0553 H         1 RUF         0.2015
     37 H          41.7049   20.8944   17.9084 H         1 RUF         0.0834
     38 H          42.2615   19.3961   17.1047 H         1 RUF         0.0834
     39 H          42.0939   21.0853   15.4288 H         1 RUF         0.0578
     40 H          43.0437   22.2506   16.4552 H         1 RUF         0.0578
     41 H          41.6718   20.1986   12.3042 H         1 RUF         0.0762
     42 H          41.9997   21.2431   13.6681 H         1 RUF         0.0762
     43 H          41.9836   17.9978   15.0338 H         1 RUF         0.0557
     44 H          40.1446   16.9563   16.3144 H         1 RUF         0.0601
     45 H          37.8455   17.8809   16.1364 H         1 RUF         0.0559
     46 H          37.4213   19.8697   14.7121 H         1 RUF         0.0605
     47 H          41.7827   15.2027   10.8614 H         1 RUF         0.0539
     48 H          42.7098   16.0929    9.6289 H         1 RUF         0.0539
     49 H          43.3856   14.6144   10.3557 H         1 RUF         0.0539
@<TRIPOS>BOND
     1    1    2 1  
     2    2    3 1  
     3    2   26 am 
     4    3    4 1  
     5    3   21 2  
     6    4    5 2  
     7    5    6 1  
     8    5   12 1  
     9    6    7 1  
    10    6   11 1  
    11    7    8 1  
    12    8    9 1  
    13    9   10 1  
    14   10   11 1  
    15   12   13 1  
    16   12   21 1  
    17   13   14 1  
    18   14   15 ar 
    19   14   19 ar 
    20   15   16 ar 
    21   16   17 ar 
    22   17   18 ar 
    23   18   19 ar 
    24   19   20 1  
    25   21   22 1  
    26   22   23 2  
    27   22   24 am 
    28   24   25 1  
    29   24   26 am 
    30   26   27 2  
    31    1   28 1  
    32    1   29 1  
    33    1   30 1  
    34    7   31 1  
    35    7   32 1  
    36    8   33 1  
    37    8   34 1  
    38    9   35 1  
    39    9   36 1  
    40   10   37 1  
    41   10   38 1  
    42   11   39 1  
    43   11   40 1  
    44   13   41 1  
    45   13   42 1  
    46   15   43 1  
    47   16   44 1  
    48   17   45 1  
    49   18   46 1  
    50   25   47 1  
    51   25   48 1  
    52   25   49 1  
@<TRIPOS>SUBSTRUCTURE
     1 RUF         1

