### 
### Created by X-TOOL on Mon Sep 10 21:13:03 2018
### 

@<TRIPOS>MOLECULE
3g0d_ligand
   53    56     1     0     0
SMALL
GAST_HUCK


@<TRIPOS>ATOM
      1 C5         43.1440    0.1760   13.0240 C.2       1 XIH         0.1484
      2 C6         44.1360   -0.8220   13.4410 C.2       1 XIH         0.1165
      3 C8         44.2020    0.8640   14.7340 C.2       1 XIH         0.2135
      4 C10        45.4420    2.8400   15.4660 C.3       1 XIH         0.0352
      5 C13        44.7140    2.0420   18.2610 C.3       1 XIH        -0.0033
      6 C15        44.6520    1.0030   17.1360 C.3       1 XIH         0.0774
      7 C17        42.4830    2.4980   13.8840 C.3       1 XIH         0.0924
      8 C20        38.9510    3.5370   13.1090 C.ar      1 XIH        -0.0597
      9 C21        38.2010    2.7180   13.9480 C.ar      1 XIH        -0.0574
     10 C22        38.8260    1.7920   14.7840 C.ar      1 XIH        -0.0333
     11 C24        40.7500    0.8000   15.6100 C.1       1 XIH         0.0935
     12 C28        43.5150   -2.2950   11.6930 C.2       1 XIH         0.3173
     13 C          41.7520   -1.8160   10.0220 C.3       1 XIH         0.0473
     14 N          42.5230   -1.4020   11.2060 N.am      1 XIH        -0.1762
     15 C3         42.2990   -0.1530   11.8420 C.2       1 XIH         0.2185
     16 O          41.4390    0.6360   11.4140 O.2       1 XIH        -0.4076
     17 N7         44.7670   -0.3490   14.5170 N.2       1 XIH        -0.2875
     18 N9         44.7210    1.5970   15.7920 N.pl3     1 XIH        -0.2602
     19 C11        45.5420    3.7830   16.6650 C.3       1 XIH        -0.0272
     20 C12        45.8260    3.0480   17.9720 C.3       1 XIH        -0.0060
     21 N14        43.4260    2.7020   18.3750 N.4       1 XIH         0.2222
     22 N16        43.2160    1.2240   13.8780 N.pl3     1 XIH        -0.2210
     23 C18        40.9760    2.4950   13.9560 C.ar      1 XIH         0.0213
     24 C19        40.3350    3.4190   13.1250 C.ar      1 XIH        -0.0461
     25 C23        40.2220    1.6710   14.8000 C.ar      1 XIH         0.0995
     26 N25        41.2610    0.0890   16.3760 N.1       1 XIH        -0.3348
     27 N26        44.3250   -1.9920   12.8120 N.am      1 XIH        -0.2064
     28 C27        45.3330   -2.9560   13.2860 C.3       1 XIH         0.0445
     29 O29        43.6960   -3.3840   11.1160 O.2       1 XIH        -0.3874
     30 H1         44.9090    3.3557   14.6537 H         1 XIH         0.0525
     31 H2         46.4581    2.5827   15.1324 H         1 XIH         0.0525
     32 H3         44.9366    1.5324   19.2101 H         1 XIH         0.0870
     33 H4         43.7063    0.4483   17.2245 H         1 XIH         0.0581
     34 H5         45.4969    0.3087   17.2548 H         1 XIH         0.0581
     35 H6         42.7567    3.0275   12.9595 H         1 XIH         0.0787
     36 H7         42.8423    3.0683   14.7533 H         1 XIH         0.0787
     37 H8         38.4648    4.2527   12.4560 H         1 XIH         0.0671
     38 H9         37.1201    2.8004   13.9520 H         1 XIH         0.0584
     39 H10        38.2254    1.1596   15.4278 H         1 XIH         0.0699
     40 H11        42.0874   -2.8115    9.6957 H         1 XIH         0.0539
     41 H12        41.9101   -1.0914    9.2097 H         1 XIH         0.0539
     42 H13        40.6824   -1.8545   10.2760 H         1 XIH         0.0539
     43 H14        44.5904    4.3253   16.7662 H         1 XIH         0.0287
     44 H15        46.3552    4.5005   16.4812 H         1 XIH         0.0287
     45 H16        46.7853    2.5161   17.8891 H         1 XIH         0.0321
     46 H17        45.8804    3.7764   18.7945 H         1 XIH         0.0321
     47 H18        42.7126    2.0158   18.5653 H         1 XIH         0.1997
     48 H19        43.2139    3.1764   17.5113 H         1 XIH         0.1997
     49 H20        43.4571    3.3719   19.1275 H         1 XIH         0.1997
     50 H21        40.9299    4.0559   12.4804 H         1 XIH         0.0582
     51 H22        45.8560   -2.5398   14.1596 H         1 XIH         0.0549
     52 H23        46.0589   -3.1520   12.4832 H         1 XIH         0.0549
     53 H24        44.8368   -3.8959   13.5693 H         1 XIH         0.0549
@<TRIPOS>BOND
     1    1    2 2  
     2    1   15 1  
     3   22    1 1  
     4   17    2 1  
     5    2   27 1  
     6    3   17 2  
     7    3   18 1  
     8   22    3 1  
     9   18    4 1  
    10    4   19 1  
    11    6    5 1  
    12    5   20 1  
    13    5   21 1  
    14   18    6 1  
    15    7   22 1  
    16   23    7 1  
    17    8    9 ar 
    18   24    8 ar 
    19    9   10 ar 
    20   10   25 ar 
    21   25   11 1  
    22   11   26 3  
    23   14   12 am 
    24   27   12 am 
    25   12   29 2  
    26   14   13 1  
    27   15   14 am 
    28   15   16 2  
    29   19   20 1  
    30   23   24 ar 
    31   23   25 ar 
    32   27   28 1  
    33    4   30 1  
    34    4   31 1  
    35    5   32 1  
    36    6   33 1  
    37    6   34 1  
    38    7   35 1  
    39    7   36 1  
    40    8   37 1  
    41    9   38 1  
    42   10   39 1  
    43   13   40 1  
    44   13   41 1  
    45   13   42 1  
    46   19   43 1  
    47   19   44 1  
    48   20   45 1  
    49   20   46 1  
    50   21   47 1  
    51   21   48 1  
    52   21   49 1  
    53   24   50 1  
    54   28   51 1  
    55   28   52 1  
    56   28   53 1  
@<TRIPOS>SUBSTRUCTURE
     1 XIH         1

