### 
### Created by X-TOOL on Mon Sep 10 21:13:01 2018
### 

@<TRIPOS>MOLECULE
3g0e_ligand
   36    38     1     0     0
SMALL
GAST_HUCK


@<TRIPOS>ATOM
      1 C4         30.4310   -1.0870  -77.3110 C.3       1 B49         0.0032
      2 C5         36.7490   -8.2550  -79.3610 C.ar      1 B49        -0.0474
      3 C6         35.3630   -8.3330  -79.0510 C.ar      1 B49        -0.0482
      4 C7         36.7290   -5.7850  -79.0920 C.ar      1 B49        -0.0432
      5 C13        34.1100   -1.0460  -78.0240 C.2       1 B49        -0.0268
      6 C15        37.4160   -6.9940  -79.3790 C.ar      1 B49         0.1099
      7 C17        35.3420   -5.8670  -78.7840 C.ar      1 B49        -0.0112
      8 C20        34.2960   -4.8670  -78.4420 C.2       1 B49         0.0299
      9 C21        33.0150   -5.6470  -78.2330 C.2       1 B49         0.2046
     10 C22        32.8040    1.1740  -77.5610 C.2       1 B49         0.1745
     11 C3         35.4800   -0.4750  -78.2400 C.3       1 B49        -0.0381
     12 C12        34.5760   -3.5460  -78.3710 C.2       1 B49        -0.0340
     13 C14        31.8840   -1.2200  -77.6050 C.2       1 B49         0.0723
     14 C16        34.6920   -7.1320  -78.7700 C.ar      1 B49         0.0612
     15 C18        33.7640   -2.3980  -78.0890 C.2       1 B49         0.0643
     16 C19        32.9100   -0.2910  -77.7180 C.2       1 B49         0.0571
     17 N23        32.4170   -2.4670  -77.8280 N.pl3     1 B49        -0.2702
     18 N24        33.3450   -6.9850  -78.4480 N.am      1 B49        -0.2438
     19 N25        33.7330    1.7470  -76.7100 N.am      1 B49        -0.3064
     20 O27        31.9230   -5.2050  -77.9410 O.2       1 B49        -0.3913
     21 O28        31.9360    1.8230  -78.1530 O.2       1 B49        -0.4051
     22 F29        38.7250   -6.9540  -79.6720 F         1 B49        -0.1977
     23 H1         29.9640   -2.0829  -77.3126 H         1 B49         0.0471
     24 H2         29.9573   -0.4587  -78.0797 H         1 B49         0.0471
     25 H3         30.2978   -0.6212  -76.3235 H         1 B49         0.0471
     26 H4         37.3022   -9.1599  -79.5851 H         1 B49         0.0519
     27 H5         34.8439   -9.2845  -79.0324 H         1 B49         0.0478
     28 H6         37.2439   -4.8312  -79.1070 H         1 B49         0.0507
     29 H7         36.1871   -1.2898  -78.4547 H         1 B49         0.0375
     30 H8         35.8013    0.0601  -77.3342 H         1 B49         0.0375
     31 H9         35.4564    0.2234  -79.0895 H         1 B49         0.0375
     32 H10        35.6206   -3.3076  -78.5657 H         1 B49         0.0691
     33 H11        31.8751   -3.3426  -77.8026 H         1 B49         0.2314
     34 H12        32.6964   -7.7430  -78.3796 H         1 B49         0.2226
     35 H13        33.7248    2.7345  -76.5527 H         1 B49         0.1795
     36 H14        34.4125    1.1735  -76.2524 H         1 B49         0.1795
@<TRIPOS>BOND
     1   13    1 1  
     2    3    2 ar 
     3    6    2 ar 
     4   14    3 ar 
     5    4    6 ar 
     6    7    4 ar 
     7    5   11 1  
     8    5   15 2  
     9   16    5 1  
    10    6   22 1  
    11    8    7 1  
    12    7   14 ar 
    13    8    9 1  
    14   12    8 2  
    15    9   18 am 
    16    9   20 2  
    17   16   10 1  
    18   10   19 am 
    19   10   21 2  
    20   15   12 1  
    21   13   16 2  
    22   13   17 1  
    23   14   18 1  
    24   15   17 1  
    25    1   23 1  
    26    1   24 1  
    27    1   25 1  
    28    2   26 1  
    29    3   27 1  
    30    4   28 1  
    31   11   29 1  
    32   11   30 1  
    33   11   31 1  
    34   12   32 1  
    35   17   33 1  
    36   18   34 1  
    37   19   35 1  
    38   19   36 1  
@<TRIPOS>SUBSTRUCTURE
     1 B49         1

