### 
### Created by X-TOOL on Mon Sep 10 21:13:01 2018
### 

@<TRIPOS>MOLECULE
3g0f_ligand
   36    38     1     0     0
SMALL
GAST_HUCK


@<TRIPOS>ATOM
      1 C4        -12.5570   70.4800  -38.3840 C.3       1 B49         0.0032
      2 C5        -17.2200   78.9120  -37.0410 C.ar      1 B49        -0.0474
      3 C6        -15.9490   78.6880  -37.6290 C.ar      1 B49        -0.0482
      4 C7        -17.4610   76.4830  -36.5450 C.ar      1 B49        -0.0432
      5 C13       -15.7520   71.3360  -36.5950 C.2       1 B49        -0.0268
      6 C15       -17.9580   77.8080  -36.5030 C.ar      1 B49         0.1099
      7 C17       -16.2070   76.2720  -37.1310 C.ar      1 B49        -0.0112
      8 C20       -15.3940   75.0750  -37.3600 C.2       1 B49         0.0299
      9 C21       -14.1310   75.5470  -38.0500 C.2       1 B49         0.2046
     10 C22       -14.9040   68.8820  -36.6820 C.2       1 B49         0.1745
     11 C3        -17.0050   71.1090  -35.8030 C.3       1 B49        -0.0381
     12 C12       -15.8450   73.8610  -36.9720 C.2       1 B49        -0.0340
     13 C14       -13.8060   70.9660  -37.7090 C.2       1 B49         0.0723
     14 C16       -15.4740   77.3620  -37.6560 C.ar      1 B49         0.0612
     15 C18       -15.2880   72.5530  -37.0820 C.2       1 B49         0.0643
     16 C19       -14.8080   70.3190  -36.9890 C.2       1 B49         0.0571
     17 N23       -14.1260   72.3020  -37.7440 N.pl3     1 B49        -0.2702
     18 N24       -14.2720   76.9180  -38.1800 N.am      1 B49        -0.2438
     19 N25       -15.2650   68.5790  -35.3700 N.am      1 B49        -0.3064
     20 O27       -13.1940   74.8890  -38.4210 O.2       1 B49        -0.3913
     21 O28       -14.6630   68.0270  -37.5350 O.2       1 B49        -0.4051
     22 F29       -19.1470   78.0170  -35.9440 F         1 B49        -0.1977
     23 H1        -12.0357   71.3308  -38.8471 H         1 B49         0.0471
     24 H2        -12.8211   69.7458  -39.1593 H         1 B49         0.0471
     25 H3        -11.8985   70.0073  -37.6404 H         1 B49         0.0471
     26 H4        -17.6313   79.9140  -36.9988 H         1 B49         0.0519
     27 H5        -15.3666   79.5041  -38.0410 H         1 B49         0.0478
     28 H6        -18.0332   75.6580  -36.1364 H         1 B49         0.0507
     29 H7        -17.5237   72.0676  -35.6547 H         1 B49         0.0375
     30 H8        -16.7473   70.6764  -34.8250 H         1 B49         0.0375
     31 H9        -17.6631   70.4165  -36.3483 H         1 B49         0.0375
     32 H10       -16.8177   73.8870  -36.4829 H         1 B49         0.0691
     33 H11       -13.5580   73.0224  -38.2122 H         1 B49         0.2314
     34 H12       -13.5889   77.5148  -38.6010 H         1 B49         0.2226
     35 H13       -15.3515   67.6250  -35.0828 H         1 B49         0.1795
     36 H14       -15.4374   69.3156  -34.7160 H         1 B49         0.1795
@<TRIPOS>BOND
     1   13    1 1  
     2    3    2 ar 
     3    6    2 ar 
     4   14    3 ar 
     5    4    6 ar 
     6    7    4 ar 
     7    5   11 1  
     8    5   15 2  
     9   16    5 1  
    10    6   22 1  
    11    8    7 1  
    12    7   14 ar 
    13    8    9 1  
    14   12    8 2  
    15    9   18 am 
    16    9   20 2  
    17   16   10 1  
    18   10   19 am 
    19   10   21 2  
    20   15   12 1  
    21   13   16 2  
    22   13   17 1  
    23   14   18 1  
    24   15   17 1  
    25    1   23 1  
    26    1   24 1  
    27    1   25 1  
    28    2   26 1  
    29    3   27 1  
    30    4   28 1  
    31   11   29 1  
    32   11   30 1  
    33   11   31 1  
    34   12   32 1  
    35   17   33 1  
    36   18   34 1  
    37   19   35 1  
    38   19   36 1  
@<TRIPOS>SUBSTRUCTURE
     1 B49         1

