### 
### Created by X-TOOL on Mon Sep 10 21:13:00 2018
### 

@<TRIPOS>MOLECULE
3g0i_ligand
   27    26     1     0     0
SMALL
GAST_HUCK


@<TRIPOS>ATOM
      1 C5         26.5640   37.9770   58.6540 C.3       1 VPR        -0.0651
      2 C4         26.1170   37.6150   60.0440 C.3       1 VPR        -0.0536
      3 C3         24.5980   37.6380   60.0160 C.3       1 VPR        -0.0335
      4 C2         23.9640   36.6500   60.9940 C.3       1 VPR         0.0484
      5 C3A        22.4400   36.7340   60.9810 C.3       1 VPR        -0.0335
      6 C4A        21.9430   38.1590   61.2060 C.3       1 VPR        -0.0536
      7 C5A        20.9180   38.4800   60.1480 C.3       1 VPR        -0.0651
      8 C1         24.4050   35.2400   60.7170 C.2       1 VPR         0.1766
      9 N          24.1070   34.6720   59.6360 N.am      1 VPR        -0.3006
     10 O          25.1160   34.6170   61.6350 O.2       1 VPR        -0.3970
     11 H1         27.6631   37.9771   58.6107 H         1 VPR         0.0230
     12 H2         26.1868   38.9777   58.3965 H         1 VPR         0.0230
     13 H3         26.1690   37.2409   57.9384 H         1 VPR         0.0230
     14 H4         26.4968   38.3484   60.7706 H         1 VPR         0.0264
     15 H5         26.4789   36.6116   60.3125 H         1 VPR         0.0264
     16 H6         24.2630   37.3869   58.9988 H         1 VPR         0.0292
     17 H7         24.2587   38.6520   60.2740 H         1 VPR         0.0292
     18 H8         24.3067   36.9184   62.0042 H         1 VPR         0.0538
     19 H9         22.0422   36.0893   61.7786 H         1 VPR         0.0292
     20 H10        22.0733   36.3800   60.0062 H         1 VPR         0.0292
     21 H11        22.7857   38.8621   61.1318 H         1 VPR         0.0264
     22 H12        21.4851   38.2394   62.2029 H         1 VPR         0.0264
     23 H13        20.5481   39.5055   60.2950 H         1 VPR         0.0230
     24 H14        20.0787   37.7731   60.2241 H         1 VPR         0.0230
     25 H15        21.3793   38.3958   59.1530 H         1 VPR         0.0230
     26 H16        24.4071   33.7335   59.4650 H         1 VPR         0.1814
     27 H17        23.5698   35.1586   58.9470 H         1 VPR         0.1814
@<TRIPOS>BOND
     1    1    2 1  
     2    2    3 1  
     3    3    4 1  
     4    4    5 1  
     5    4    8 1  
     6    5    6 1  
     7    6    7 1  
     8    8    9 am 
     9    8   10 2  
    10    1   11 1  
    11    1   12 1  
    12    1   13 1  
    13    2   14 1  
    14    2   15 1  
    15    3   16 1  
    16    3   17 1  
    17    4   18 1  
    18    5   19 1  
    19    5   20 1  
    20    6   21 1  
    21    6   22 1  
    22    7   23 1  
    23    7   24 1  
    24    7   25 1  
    25    9   26 1  
    26    9   27 1  
@<TRIPOS>SUBSTRUCTURE
     1 VPR         1

