### 
### Created by X-TOOL on Mon Sep 10 21:13:01 2018
### 

@<TRIPOS>MOLECULE
3g15_ligand
   64    67     1     0     0
SMALL
GAST_HUCK


@<TRIPOS>ATOM
      1 CAC        -9.9530  -13.1760    5.1130 C.3       1 HC6         0.0013
      2 NAA        -9.2730  -12.3060    4.1160 N.4       1 HC6         0.2381
      3 CBA       -10.2140  -11.6050    3.2020 C.3       1 HC6        -0.0421
      4 CBB        -8.4700  -11.3780    4.9250 C.3       1 HC6        -0.0421
      5 CAB        -8.4010  -13.1220    3.2860 C.3       1 HC6        -0.0082
      6 CAF        -9.2050  -14.1950    2.5720 C.3       1 HC6         0.0790
      7 OAE        -9.8710  -15.0860    3.5470 O.3       1 HC6        -0.3786
      8 CAD       -10.7190  -14.3550    4.4630 C.3       1 HC6         0.1991
      9 OBC       -11.7500  -13.7380    3.6760 O.3       1 HC6        -0.4004
     10 CAG       -11.2190  -15.2250    5.5500 C.ar      1 HC6         0.0095
     11 CAL       -10.5250  -16.3780    5.9660 C.ar      1 HC6        -0.0322
     12 CAK       -10.9950  -17.1920    7.0180 C.ar      1 HC6        -0.0195
     13 CAH       -12.3950  -14.9120    6.2440 C.ar      1 HC6        -0.0322
     14 CAI       -12.8780  -15.7210    7.2900 C.ar      1 HC6        -0.0195
     15 CAJ       -12.1940  -16.8770    7.6740 C.ar      1 HC6         0.0267
     16 CAM       -12.6840  -17.6440    8.7610 C.ar      1 HC6         0.0267
     17 CAR       -11.7930  -18.2380    9.6560 C.ar      1 HC6        -0.0195
     18 CAQ       -12.2180  -18.9580   10.7660 C.ar      1 HC6        -0.0322
     19 CAN       -14.0370  -17.8040    9.0020 C.ar      1 HC6        -0.0195
     20 CAO       -14.4850  -18.5380   10.1160 C.ar      1 HC6        -0.0322
     21 CAP       -13.5810  -19.1420   11.0190 C.ar      1 HC6         0.0095
     22 CAS       -14.0320  -19.9140   12.1850 C.3       1 HC6         0.1991
     23 OBD       -15.2900  -19.4250   12.6820 O.3       1 HC6        -0.4004
     24 CAX       -14.2420  -21.3800   11.8130 C.3       1 HC6         0.0013
     25 OAT       -13.0500  -19.8210   13.2910 O.3       1 HC6        -0.3786
     26 CAU       -13.4630  -20.6870   14.4060 C.3       1 HC6         0.0790
     27 CAV       -13.6330  -22.1210   13.9940 C.3       1 HC6        -0.0082
     28 NAW       -14.6550  -22.2310   12.9450 N.4       1 HC6         0.2381
     29 CAZ       -15.9740  -21.8390   13.5050 C.3       1 HC6        -0.0421
     30 CAY       -14.6730  -23.6260   12.4710 C.3       1 HC6        -0.0421
     31 H         -10.6781  -12.5636    5.6490 H         1 HC6         0.0758
     32 H          -9.1871  -13.5962    5.7649 H         1 HC6         0.0758
     33 H          -9.6488  -10.9824    2.5084 H         1 HC6         0.0778
     34 H         -10.7919  -12.3411    2.6433 H         1 HC6         0.0778
     35 H         -10.8884  -10.9796    3.7869 H         1 HC6         0.0778
     36 H          -7.7938  -11.9464    5.5636 H         1 HC6         0.0778
     37 H          -7.8913  -10.7307    4.2660 H         1 HC6         0.0778
     38 H          -9.1315  -10.7711    5.5433 H         1 HC6         0.0778
     39 H          -7.6528  -13.5998    3.9184 H         1 HC6         0.0837
     40 H          -7.9188  -12.4858    2.5438 H         1 HC6         0.0837
     41 H          -8.5301  -14.7892    1.9559 H         1 HC6         0.0602
     42 H          -9.9660  -13.7142    1.9574 H         1 HC6         0.0602
     43 H         -12.2502  -14.4168    3.2171 H         1 HC6         0.1977
     44 H          -9.5981  -16.6491    5.4605 H         1 HC6         0.0850
     45 H         -10.4240  -18.0692    7.3222 H         1 HC6         0.0736
     46 H         -12.9517  -14.0170    5.9663 H         1 HC6         0.0850
     47 H         -13.7965  -15.4421    7.8064 H         1 HC6         0.0736
     48 H         -10.7228  -18.1332    9.4775 H         1 HC6         0.0736
     49 H         -11.4810  -19.3839   11.4468 H         1 HC6         0.0850
     50 H         -14.7628  -17.3573    8.3225 H         1 HC6         0.0736
     51 H         -15.5564  -18.6434   10.2867 H         1 HC6         0.0850
     52 H         -15.9485  -19.4731   11.9852 H         1 HC6         0.1977
     53 H         -13.2875  -21.7625   11.4514 H         1 HC6         0.0758
     54 H         -15.0412  -21.4152   11.0727 H         1 HC6         0.0758
     55 H         -14.4252  -20.3272   14.7705 H         1 HC6         0.0602
     56 H         -12.6834  -20.6476   15.1668 H         1 HC6         0.0602
     57 H         -13.9460  -22.7055   14.8591 H         1 HC6         0.0837
     58 H         -12.6849  -22.4957   13.6084 H         1 HC6         0.0837
     59 H         -15.9250  -20.8098   13.8605 H         1 HC6         0.0778
     60 H         -16.7355  -21.9210   12.7294 H         1 HC6         0.0778
     61 H         -16.2259  -22.4996   14.3346 H         1 HC6         0.0778
     62 H         -15.3805  -23.7193   11.6471 H         1 HC6         0.0778
     63 H         -13.6763  -23.9051   12.1292 H         1 HC6         0.0778
     64 H         -14.9754  -24.2819   13.2874 H         1 HC6         0.0778
@<TRIPOS>BOND
     1    1    2 1  
     2    1    8 1  
     3    2    3 1  
     4    2    4 1  
     5    2    5 1  
     6    5    6 1  
     7    6    7 1  
     8    7    8 1  
     9    8    9 1  
    10    8   10 1  
    11   10   11 ar 
    12   10   13 ar 
    13   11   12 ar 
    14   12   15 ar 
    15   13   14 ar 
    16   14   15 ar 
    17   15   16 1  
    18   16   17 ar 
    19   16   19 ar 
    20   17   18 ar 
    21   18   21 ar 
    22   19   20 ar 
    23   20   21 ar 
    24   21   22 1  
    25   22   23 1  
    26   22   24 1  
    27   22   25 1  
    28   24   28 1  
    29   25   26 1  
    30   26   27 1  
    31   27   28 1  
    32   28   29 1  
    33   28   30 1  
    34    1   31 1  
    35    1   32 1  
    36    3   33 1  
    37    3   34 1  
    38    3   35 1  
    39    4   36 1  
    40    4   37 1  
    41    4   38 1  
    42    5   39 1  
    43    5   40 1  
    44    6   41 1  
    45    6   42 1  
    46    9   43 1  
    47   11   44 1  
    48   12   45 1  
    49   13   46 1  
    50   14   47 1  
    51   17   48 1  
    52   18   49 1  
    53   19   50 1  
    54   20   51 1  
    55   23   52 1  
    56   24   53 1  
    57   24   54 1  
    58   26   55 1  
    59   26   56 1  
    60   27   57 1  
    61   27   58 1  
    62   29   59 1  
    63   29   60 1  
    64   29   61 1  
    65   30   62 1  
    66   30   63 1  
    67   30   64 1  
@<TRIPOS>SUBSTRUCTURE
     1 HC6         1

