### 
### Created by X-TOOL on Mon Sep 10 21:13:00 2018
### 

@<TRIPOS>MOLECULE
3g19_ligand
   60    59     1     0     0
SMALL
GAST_HUCK


@<TRIPOS>ATOM
      1 N          20.8980   -4.1080  -16.3120 N.4       1 LEU         0.2379
      2 CA         21.1370   -4.8800  -15.0990 C.3       1 LEU         0.0652
      3 C          22.1910   -5.9580  -15.3300 C.2       1 LEU         0.2267
      4 O          22.4510   -6.3480  -16.4670 O.2       1 LEU        -0.3907
      5 CB         19.8340   -5.5130  -14.6040 C.3       1 LEU         0.0102
      6 CG         18.6950   -4.5460  -14.2750 C.3       1 LEU        -0.0394
      7 CD1        17.4170   -5.3090  -13.9610 C.3       1 LEU        -0.0623
      8 CD2        19.0770   -3.6320  -13.1190 C.3       1 LEU        -0.0623
      9 N          22.7920   -6.4340  -14.2450 N.am      1 LEU        -0.2610
     10 CA         23.8200   -7.4660  -14.3220 C.3       1 LEU         0.1313
     11 C          23.2060   -8.8460  -14.5490 C.2       1 LEU         0.2034
     12 O          22.1100   -9.1320  -14.0650 O.2       1 LEU        -0.3944
     13 CB         24.6670   -7.4660  -13.0480 C.3       1 LEU        -0.0101
     14 CG         25.7620   -8.5280  -12.9250 C.3       1 LEU        -0.0425
     15 CD1        26.8070   -8.3570  -14.0170 C.3       1 LEU        -0.0625
     16 CD2        26.4070   -8.4680  -11.5500 C.3       1 LEU        -0.0625
     17 N          23.9280   -9.6890  -15.2830 N.am      1 LEU        -0.2695
     18 CA         23.4770  -11.0340  -15.6460 C.3       1 LEU         0.0946
     19 C          22.5720  -11.0130  -16.8750 C.2       1 LEU         0.0601
     20 O          22.6430  -11.8970  -17.7310 O.co2     1 LEU        -0.5666
     21 CB         22.7900  -11.7410  -14.4710 C.3       1 LEU        -0.0156
     22 CG         22.2250  -13.1410  -14.7370 C.3       1 LEU        -0.0431
     23 CD1        22.1430  -13.9470  -13.4500 C.3       1 LEU        -0.0625
     24 CD2        20.8630  -13.0750  -15.4210 C.3       1 LEU        -0.0625
     25 OXT        21.7570  -10.1080  -17.0440 O.co2     1 LEU        -0.5666
     26 H1         20.1989   -3.4048  -16.1305 H         1 LEU         0.2015
     27 H2         20.5748   -4.7222  -17.0430 H         1 LEU         0.2015
     28 H3         21.7549   -3.6630  -16.6014 H         1 LEU         0.2015
     29 H4         21.5082   -4.1951  -14.3224 H         1 LEU         0.1098
     30 H5         20.0635   -6.0837  -13.6921 H         1 LEU         0.0348
     31 H6         19.4762   -6.1992  -15.3857 H         1 LEU         0.0348
     32 H7         18.5113   -3.9193  -15.1601 H         1 LEU         0.0299
     33 H8         16.6124   -4.5962  -13.7277 H         1 LEU         0.0232
     34 H9         17.5860   -5.9671  -13.0960 H         1 LEU         0.0232
     35 H10        17.1284   -5.9153  -14.8323 H         1 LEU         0.0232
     36 H11        20.0022   -3.0920  -13.3688 H         1 LEU         0.0232
     37 H12        19.2375   -4.2345  -12.2128 H         1 LEU         0.0232
     38 H13        18.2675   -2.9091  -12.9402 H         1 LEU         0.0232
     39 H14        22.5319   -6.0741  -13.3490 H         1 LEU         0.1884
     40 H15        24.4750   -7.2362  -15.1753 H         1 LEU         0.0800
     41 H16        23.9822   -7.5995  -12.1976 H         1 LEU         0.0315
     42 H17        25.1534   -6.4820  -12.9762 H         1 LEU         0.0315
     43 H18        25.2975   -9.5178  -13.0456 H         1 LEU         0.0298
     44 H19        27.5816   -9.1303  -13.9075 H         1 LEU         0.0232
     45 H20        27.2677   -7.3618  -13.9311 H         1 LEU         0.0232
     46 H21        26.3275   -8.4553  -15.0021 H         1 LEU         0.0232
     47 H22        25.6346   -8.5936  -10.7769 H         1 LEU         0.0232
     48 H23        26.9017   -7.4943  -11.4192 H         1 LEU         0.0232
     49 H24        27.1514   -9.2727  -11.4587 H         1 LEU         0.0232
     50 H25        24.8261   -9.3881  -15.6037 H         1 LEU         0.1875
     51 H26        24.3714  -11.6196  -15.9051 H         1 LEU         0.0726
     52 H27        21.9563  -11.1036  -14.1414 H         1 LEU         0.0308
     53 H28        23.5273  -11.8292  -13.6594 H         1 LEU         0.0308
     54 H29        22.9177  -13.6587  -15.4169 H         1 LEU         0.0297
     55 H30        21.7354  -14.9452  -13.6679 H         1 LEU         0.0232
     56 H31        21.4856  -13.4305  -12.7351 H         1 LEU         0.0232
     57 H32        23.1487  -14.0484  -13.0161 H         1 LEU         0.0232
     58 H33        20.9462  -12.4884  -16.3478 H         1 LEU         0.0232
     59 H34        20.1373  -12.5956  -14.7476 H         1 LEU         0.0232
     60 H35        20.5234  -14.0934  -15.6610 H         1 LEU         0.0232
@<TRIPOS>BOND
     1    1    2 1  
     2    2    3 1  
     3    2    5 1  
     4    3    4 2  
     5    3    9 am 
     6    5    6 1  
     7    6    7 1  
     8    6    8 1  
     9    9   10 1  
    10   10   11 1  
    11   10   13 1  
    12   11   12 2  
    13   11   17 am 
    14   13   14 1  
    15   14   15 1  
    16   14   16 1  
    17   17   18 1  
    18   18   19 1  
    19   18   21 1  
    20   19   20 ar 
    21   19   25 ar 
    22   21   22 1  
    23   22   23 1  
    24   22   24 1  
    25    1   26 1  
    26    1   27 1  
    27    1   28 1  
    28    2   29 1  
    29    5   30 1  
    30    5   31 1  
    31    6   32 1  
    32    7   33 1  
    33    7   34 1  
    34    7   35 1  
    35    8   36 1  
    36    8   37 1  
    37    8   38 1  
    38    9   39 1  
    39   10   40 1  
    40   13   41 1  
    41   13   42 1  
    42   14   43 1  
    43   15   44 1  
    44   15   45 1  
    45   15   46 1  
    46   16   47 1  
    47   16   48 1  
    48   16   49 1  
    49   17   50 1  
    50   18   51 1  
    51   21   52 1  
    52   21   53 1  
    53   22   54 1  
    54   23   55 1  
    55   23   56 1  
    56   23   57 1  
    57   24   58 1  
    58   24   59 1  
    59   24   60 1  
@<TRIPOS>SUBSTRUCTURE
     1 LEU         1

