### 
### Created by X-TOOL on Mon Sep 10 21:13:00 2018
### 

@<TRIPOS>MOLECULE
3g1m_ligand
   41    44     1     0     0
SMALL
GAST_HUCK


@<TRIPOS>ATOM
      1 C40        30.8700   77.9550   10.8700 C.2       1 RF3        -0.0791
      2 C38        30.5710   78.9320    9.9940 C.2       1 RF3        -0.0924
      3 C36        30.3850   78.5360    8.7460 C.2       1 RF3        -0.0189
      4 S35        30.5950   76.8810    8.6390 S.3       1 RF3        -0.0419
      5 C01        30.9340   76.7430   10.3500 C.2       1 RF3         0.0307
      6 C02        31.1780   75.4190   11.0610 C.3       1 RF3         0.0819
      7 C05        32.0290   74.3710   10.3200 C.2       1 RF3         0.1920
      8 O07        32.2560   74.4870    9.1570 O.2       1 RF3        -0.3935
      9 N06        32.3960   73.2970   11.0090 N.am      1 RF3        -0.2710
     10 C19        32.1010   73.2050   12.4590 C.3       1 RF3         0.0369
     11 C16        32.0900   71.7750   13.0050 C.3       1 RF3        -0.0107
     12 C08        33.2680   72.2770   10.3590 C.3       1 RF3         0.0369
     13 C11        33.1960   70.9120   10.9610 C.3       1 RF3        -0.0107
     14 C14        33.2640   70.9640   12.4610 C.3       1 RF3         0.0595
     15 C22        33.2730   69.5310   13.0210 C.2       1 RF3         0.2198
     16 N26        33.1180   68.4270   12.3740 N.2       1 RF3        -0.2752
     17 O23        33.3900   69.2760   14.2830 O.3       1 RF3        -0.1351
     18 N24        33.3260   67.9360   14.4190 N.2       1 RF3        -0.1267
     19 C25        33.1590   67.4290   13.2470 C.2       1 RF3         0.1131
     20 C27        33.0160   66.0790   12.9430 C.2       1 RF3         0.0525
     21 C28        32.6990   65.0090   13.7000 C.2       1 RF3        -0.0674
     22 C30        32.6320   63.8870   13.0050 C.2       1 RF3        -0.0745
     23 C32        32.8640   63.9750   11.6940 C.2       1 RF3        -0.0060
     24 S34        33.1960   65.6000   11.3950 S.3       1 RF3        -0.0380
     25 H1         31.0457   78.1492   11.9270 H         1 RF3         0.0284
     26 H2         30.4880   79.9761   10.2921 H         1 RF3         0.0373
     27 H3         30.1328   79.1902    7.9127 H         1 RF3         0.0603
     28 H4         30.1964   74.9657   11.2633 H         1 RF3         0.0685
     29 H5         31.6821   75.6420   12.0129 H         1 RF3         0.0685
     30 H6         31.1119   73.6512   12.6393 H         1 RF3         0.0524
     31 H7         32.8662   73.7770   13.0042 H         1 RF3         0.0524
     32 H8         31.1497   71.2861   12.7102 H         1 RF3         0.0319
     33 H9         32.1567   71.8100   14.1024 H         1 RF3         0.0319
     34 H10        34.3093   72.6252   10.4257 H         1 RF3         0.0524
     35 H11        32.9741   72.2000    9.3018 H         1 RF3         0.0524
     36 H12        34.0382   70.3118   10.5863 H         1 RF3         0.0319
     37 H13        32.2481   70.4401   10.6630 H         1 RF3         0.0319
     38 H14        34.1987   71.4618   12.7586 H         1 RF3         0.0579
     39 H15        32.5172   65.0638   14.7723 H         1 RF3         0.0438
     40 H16        32.3984   62.9353   13.4800 H         1 RF3         0.0422
     41 H17        32.8431   63.1642   10.9673 H         1 RF3         0.0740
@<TRIPOS>BOND
     1    1    2 1  
     2    1    5 2  
     3    2    3 2  
     4    3    4 1  
     5    4    5 1  
     6    5    6 1  
     7    6    7 1  
     8    7    8 2  
     9    7    9 am 
    10    9   10 1  
    11    9   12 1  
    12   10   11 1  
    13   11   14 1  
    14   12   13 1  
    15   13   14 1  
    16   14   15 1  
    17   15   16 2  
    18   15   17 1  
    19   16   19 1  
    20   17   18 1  
    21   18   19 2  
    22   19   20 1  
    23   20   21 2  
    24   20   24 1  
    25   21   22 1  
    26   22   23 2  
    27   23   24 1  
    28    1   25 1  
    29    2   26 1  
    30    3   27 1  
    31    6   28 1  
    32    6   29 1  
    33   10   30 1  
    34   10   31 1  
    35   11   32 1  
    36   11   33 1  
    37   12   34 1  
    38   12   35 1  
    39   13   36 1  
    40   13   37 1  
    41   14   38 1  
    42   21   39 1  
    43   22   40 1  
    44   23   41 1  
@<TRIPOS>SUBSTRUCTURE
     1 RF3         1

