### 
### Created by X-TOOL on Fri Sep 26 17:34:47 2014
### 

@<TRIPOS>MOLECULE
3g2h_ligand
   39    41     1     0     0
SMALL
GAST_HUCK


@<TRIPOS>ATOM
      1 C14        37.3570   23.5390   30.4350 C.ar      1 KOT        -0.0601
      2 C13        38.5770   23.8620   31.0310 C.ar      1 KOT        -0.0661
      3 C12        38.6730   24.9760   31.8620 C.ar      1 KOT        -0.0661
      4 C11        37.5590   25.7710   32.1040 C.ar      1 KOT        -0.0661
      5 C10        36.3390   25.4520   31.5030 C.ar      1 KOT        -0.0601
      6 C9         36.2390   24.3330   30.6690 C.ar      1 KOT        -0.0196
      7 C8         35.0210   24.0160   30.0760 C.2       1 KOT         0.0702
      8 C7         34.8170   23.3270   28.9590 C.2       1 KOT         0.0907
      9 N3         33.8170   24.3370   30.5330 N.2       1 KOT        -0.2164
     10 N2         32.9580   23.8970   29.7570 N.2       1 KOT        -0.0881
     11 N1         33.4960   23.3110   28.8150 N.pl3     1 KOT        -0.1360
     12 C1         32.6900   22.6760   27.7700 C.3       1 KOT         0.2193
     13 O5         32.7500   21.2560   27.9940 O.3       1 KOT        -0.3341
     14 C5         31.7020   20.6010   27.2510 C.3       1 KOT         0.1137
     15 C6         31.6660   19.1380   27.6850 C.3       1 KOT         0.0730
     16 O6         32.7720   18.4660   27.0880 O.3       1 KOT        -0.3924
     17 C4         31.9110   20.7800   25.7330 C.3       1 KOT         0.1119
     18 O4         30.7450   20.3190   25.0550 O.3       1 KOT        -0.3865
     19 C3         32.1080   22.2630   25.3770 C.3       1 KOT         0.1148
     20 O3         32.5420   22.3870   24.0260 O.3       1 KOT        -0.3864
     21 C2         33.1230   22.9260   26.3190 C.3       1 KOT         0.1419
     22 O2         33.1770   24.3240   26.0630 O.3       1 KOT        -0.3833
     23 H1         37.2808   22.6706   29.7907 H         1 KOT         0.0581
     24 H2         39.4499   23.2460   30.8473 H         1 KOT         0.0606
     25 H3         39.6223   25.2243   32.3227 H         1 KOT         0.0581
     26 H4         37.6364   26.6339   32.7555 H         1 KOT         0.0606
     27 H5         35.4684   26.0723   31.6830 H         1 KOT         0.0581
     28 H6         35.5643   22.8764   28.3075 H         1 KOT         0.1078
     29 H7         31.6538   23.0285   27.8797 H         1 KOT         0.1039
     30 H8         30.7390   21.0634   27.5134 H         1 KOT         0.0647
     31 H9         30.7256   18.6744   27.3521 H         1 KOT         0.0584
     32 H10        31.7390   19.0733   28.7807 H         1 KOT         0.0584
     33 H11        33.5810   18.8719   27.3766 H         1 KOT         0.2095
     34 H12        32.7899   20.2017   25.4118 H         1 KOT         0.0647
     35 H13        30.8623   20.4244   24.1182 H         1 KOT         0.2100
     36 H14        31.1427   22.7790   25.4858 H         1 KOT         0.0648
     37 H15        32.6608   23.3058   23.8158 H         1 KOT         0.2100
     38 H16        34.1182   22.4879   26.1529 H         1 KOT         0.0679
     39 H17        33.4419   24.4699   25.1624 H         1 KOT         0.2101
@<TRIPOS>BOND
     1    1    2 ar 
     2    1    6 ar 
     3    2    3 ar 
     4    3    4 ar 
     5    4    5 ar 
     6    5    6 ar 
     7    6    7 1  
     8    7    8 2  
     9    7    9 1  
    10    8   11 1  
    11    9   10 2  
    12   10   11 1  
    13   11   12 1  
    14   12   13 1  
    15   12   21 1  
    16   13   14 1  
    17   14   15 1  
    18   14   17 1  
    19   15   16 1  
    20   17   18 1  
    21   17   19 1  
    22   19   20 1  
    23   19   21 1  
    24   21   22 1  
    25    1   23 1  
    26    2   24 1  
    27    3   25 1  
    28    4   26 1  
    29    5   27 1  
    30    8   28 1  
    31   12   29 1  
    32   14   30 1  
    33   15   31 1  
    34   15   32 1  
    35   16   33 1  
    36   17   34 1  
    37   18   35 1  
    38   19   36 1  
    39   20   37 1  
    40   21   38 1  
    41   22   39 1  
@<TRIPOS>SUBSTRUCTURE
     1 KOT         1

