### 
### Created by X-TOOL on Fri Sep 26 17:34:47 2014
### 

@<TRIPOS>MOLECULE
3g2i_ligand
   33    34     1     0     0
SMALL
GAST_HUCK


@<TRIPOS>ATOM
      1 O2         33.7250   24.4130   25.9160 O.3       1 RUG        -0.3833
      2 C2         33.5290   23.0250   26.2030 C.3       1 RUG         0.1413
      3 C3         32.4050   22.4270   25.3340 C.3       1 RUG         0.1148
      4 O3         32.7480   22.4900   23.9510 O.3       1 RUG        -0.3864
      5 C4         32.1730   20.9630   25.7180 C.3       1 RUG         0.1119
      6 O4         31.0180   20.4990   25.0410 O.3       1 RUG        -0.3865
      7 C5         31.9770   20.8110   27.2380 C.3       1 RUG         0.1136
      8 C6         31.8230   19.3540   27.6700 C.3       1 RUG         0.0730
      9 O6         32.8840   18.5750   27.1120 O.3       1 RUG        -0.3924
     10 O5         33.1260   21.3710   27.9090 O.3       1 RUG        -0.3346
     11 C1         33.2030   22.8100   27.6970 C.3       1 RUG         0.2151
     12 N1         34.2470   23.3150   28.6080 N.pl3     1 RUG        -0.1506
     13 C7         35.5700   23.2160   28.4750 C.2       1 RUG         0.0744
     14 N2         33.9720   23.8850   29.6710 N.2       1 RUG        -0.0996
     15 N3         35.0100   24.2020   30.2690 N.2       1 RUG        -0.2241
     16 C8         36.0620   23.8000   29.5550 C.2       1 RUG         0.0623
     17 C9         37.5380   23.9790   29.9050 C.3       1 RUG         0.0790
     18 O9         37.6890   24.1030   31.3210 O.3       1 RUG        -0.3862
     19 H1         33.9618   24.5158   25.0018 H         1 RUG         0.2101
     20 H2         34.4641   22.4936   25.9723 H         1 RUG         0.0679
     21 H3         31.4805   22.9986   25.5031 H         1 RUG         0.0648
     22 H4         32.0436   22.1172   23.4339 H         1 RUG         0.2100
     23 H5         33.0438   20.3663   25.4090 H         1 RUG         0.0647
     24 H6         31.1513   20.5718   24.1032 H         1 RUG         0.2100
     25 H7         31.0732   21.3638   27.5338 H         1 RUG         0.0647
     26 H8         30.8573   18.9663   27.3135 H         1 RUG         0.0584
     27 H9         31.8607   19.2914   28.7676 H         1 RUG         0.0584
     28 H10        33.7176   18.9103   27.4205 H         1 RUG         0.2095
     29 H11        32.2438   23.2928   27.9353 H         1 RUG         0.1031
     30 H12        36.1233   22.7559   27.6576 H         1 RUG         0.0900
     31 H13        37.9216   24.8867   29.4162 H         1 RUG         0.0674
     32 H14        38.1054   23.1050   29.5526 H         1 RUG         0.0674
     33 H15        38.6087   24.2140   31.5318 H         1 RUG         0.2118
@<TRIPOS>BOND
     1    1    2 1  
     2    2    3 1  
     3    2   11 1  
     4    3    4 1  
     5    3    5 1  
     6    5    6 1  
     7    5    7 1  
     8    7    8 1  
     9    7   10 1  
    10    8    9 1  
    11   10   11 1  
    12   11   12 1  
    13   12   13 1  
    14   12   14 1  
    15   13   16 2  
    16   14   15 2  
    17   15   16 1  
    18   16   17 1  
    19   17   18 1  
    20    1   19 1  
    21    2   20 1  
    22    3   21 1  
    23    4   22 1  
    24    5   23 1  
    25    6   24 1  
    26    7   25 1  
    27    8   26 1  
    28    8   27 1  
    29    9   28 1  
    30   11   29 1  
    31   13   30 1  
    32   17   31 1  
    33   17   32 1  
    34   18   33 1  
@<TRIPOS>SUBSTRUCTURE
     1 RUG         1

