### 
### Created by X-TOOL on Fri Sep 26 17:34:47 2014
### 

@<TRIPOS>MOLECULE
3g2j_ligand
   31    31     1     0     0
SMALL
GAST_HUCK


@<TRIPOS>ATOM
      1 O2         33.7500   24.3170   25.9060 O.3       1 MOL        -0.3844
      2 C2         33.5630   22.9150   26.1300 C.3       1 MOL         0.1308
      3 C3         32.3590   22.3710   25.3360 C.3       1 MOL         0.1138
      4 O3         32.6140   22.4670   23.9310 O.3       1 MOL        -0.3864
      5 C4         32.1020   20.9050   25.7120 C.3       1 MOL         0.1119
      6 O4         30.9300   20.4570   25.0500 O.3       1 MOL        -0.3865
      7 C5         31.9480   20.7380   27.2380 C.3       1 MOL         0.1127
      8 C6         31.7800   19.2650   27.6590 C.3       1 MOL         0.0730
      9 O6         32.8670   18.4820   27.1540 O.3       1 MOL        -0.3924
     10 O5         33.1320   21.2190   27.9010 O.3       1 MOL        -0.3436
     11 C1         33.4070   22.6320   27.6370 C.3       1 MOL         0.1720
     12 N1         34.6710   23.0320   28.3120 N.am      1 MOL        -0.2565
     13 C7         34.6110   23.6210   29.5040 C.2       1 MOL         0.2038
     14 O7         33.5600   23.8510   30.0940 O.2       1 MOL        -0.3945
     15 C9         35.9540   24.0120   30.1240 C.3       1 MOL         0.1332
     16 O9         37.0350   23.2770   29.5550 O.3       1 MOL        -0.3746
     17 H1         34.4975   24.6199   26.4081 H         1 MOL         0.2101
     18 H2         34.4635   22.3916   25.7762 H         1 MOL         0.0668
     19 H3         31.4682   22.9676   25.5820 H         1 MOL         0.0647
     20 H4         31.8669   22.1296   23.4509 H         1 MOL         0.2100
     21 H5         32.9565   20.2983   25.3778 H         1 MOL         0.0647
     22 H6         31.0504   20.5310   24.1106 H         1 MOL         0.2100
     23 H7         31.0717   21.3143   27.5697 H         1 MOL         0.0647
     24 H8         30.8335   18.8768   27.2549 H         1 MOL         0.0584
     25 H9         31.7641   19.1999   28.7569 H         1 MOL         0.0584
     26 H10        33.6851   18.8153   27.5034 H         1 MOL         0.2095
     27 H11        32.5743   23.2332   28.0310 H         1 MOL         0.0896
     28 H12        35.5543   22.8605   27.8757 H         1 MOL         0.1878
     29 H13        35.9183   23.8127   31.2052 H         1 MOL         0.0801
     30 H14        36.1252   25.0853   29.9544 H         1 MOL         0.0801
     31 H15        37.8493   23.5462   29.9636 H         1 MOL         0.2129
@<TRIPOS>BOND
     1    1    2 1  
     2    2    3 1  
     3    2   11 1  
     4    3    4 1  
     5    3    5 1  
     6    5    6 1  
     7    5    7 1  
     8    7    8 1  
     9    7   10 1  
    10    8    9 1  
    11   10   11 1  
    12   11   12 1  
    13   12   13 am 
    14   13   14 2  
    15   13   15 1  
    16   15   16 1  
    17    1   17 1  
    18    2   18 1  
    19    3   19 1  
    20    4   20 1  
    21    5   21 1  
    22    6   22 1  
    23    7   23 1  
    24    8   24 1  
    25    8   25 1  
    26    9   26 1  
    27   11   27 1  
    28   12   28 1  
    29   15   29 1  
    30   15   30 1  
    31   16   31 1  
@<TRIPOS>SUBSTRUCTURE
     1 MOL         1

