### 
### Created by X-TOOL on Fri Sep 26 17:34:47 2014
### 

@<TRIPOS>MOLECULE
3g2k_ligand
   45    48     1     0     0
SMALL
GAST_HUCK


@<TRIPOS>ATOM
      1 C10        36.3060   25.3510   32.4860 C.ar      1 SKY        -0.0540
      2 C11        37.4310   25.7570   33.2120 C.ar      1 SKY        -0.0231
      3 C12        37.2850   26.3610   34.4670 C.ar      1 SKY        -0.0565
      4 C13        38.4180   26.7640   35.1850 C.ar      1 SKY        -0.0629
      5 C14        39.6960   26.5690   34.6520 C.ar      1 SKY        -0.0627
      6 C15        39.8400   25.9660   33.3990 C.ar      1 SKY        -0.0559
      7 C16        38.7100   25.5580   32.6800 C.ar      1 SKY        -0.0207
      8 C17        38.8520   24.9570   31.4270 C.ar      1 SKY        -0.0558
      9 C18        37.7260   24.5510   30.7050 C.ar      1 SKY        -0.0575
     10 C9         36.4430   24.7460   31.2280 C.ar      1 SKY        -0.0189
     11 C8         35.3000   24.3490   30.5180 C.2       1 SKY         0.0706
     12 C7         35.2110   23.6790   29.3610 C.2       1 SKY         0.0911
     13 N3         34.0380   24.5740   30.8910 N.2       1 SKY        -0.2161
     14 N2         33.2660   24.1010   30.0520 N.2       1 SKY        -0.0878
     15 N1         33.8990   23.5740   29.1300 N.pl3     1 SKY        -0.1357
     16 C1         33.1660   22.9230   28.0190 C.3       1 SKY         0.2194
     17 O5         33.2140   21.4890   28.2640 O.3       1 SKY        -0.3341
     18 C5         32.1550   20.8410   27.5140 C.3       1 SKY         0.1137
     19 C6         32.1120   19.3730   27.9560 C.3       1 SKY         0.0730
     20 O6         33.2760   18.6840   27.4800 O.3       1 SKY        -0.3924
     21 C4         32.3680   21.0090   25.9820 C.3       1 SKY         0.1119
     22 O4         31.2010   20.5580   25.2980 O.3       1 SKY        -0.3865
     23 C3         32.6630   22.4740   25.5850 C.3       1 SKY         0.1148
     24 O3         33.1710   22.5200   24.2430 O.3       1 SKY        -0.3864
     25 C2         33.6580   23.1290   26.5730 C.3       1 SKY         0.1419
     26 O2         33.8240   24.5240   26.3010 O.3       1 SKY        -0.3833
     27 H1         35.3165   25.5059   32.9008 H         1 SKY         0.0566
     28 H2         36.2959   26.5165   34.8824 H         1 SKY         0.0609
     29 H3         38.3038   27.2288   36.1576 H         1 SKY         0.0613
     30 H4         40.5715   26.8841   35.2081 H         1 SKY         0.0604
     31 H5         40.8293   25.8139   32.9829 H         1 SKY         0.0620
     32 H6         39.8417   24.8045   31.0119 H         1 SKY         0.0620
     33 H7         37.8474   24.0827   29.7349 H         1 SKY         0.0601
     34 H8         36.0270   23.3033   28.7454 H         1 SKY         0.1081
     35 H9         32.1250   23.2754   28.0647 H         1 SKY         0.1039
     36 H10        31.1954   21.3121   27.7733 H         1 SKY         0.0647
     37 H11        31.2114   18.8945   27.5438 H         1 SKY         0.0584
     38 H12        32.0833   19.3238   29.0545 H         1 SKY         0.0584
     39 H13        34.0543   19.0959   27.8365 H         1 SKY         0.2095
     40 H14        33.2242   20.3884   25.6792 H         1 SKY         0.0647
     41 H15        31.3255   20.6583   24.3616 H         1 SKY         0.2100
     42 H16        31.7206   23.0402   25.6205 H         1 SKY         0.0648
     43 H17        33.3505   23.4218   24.0043 H         1 SKY         0.2100
     44 H18        34.6350   22.6363   26.4601 H         1 SKY         0.0679
     45 H19        34.4387   24.8957   26.9226 H         1 SKY         0.2101
@<TRIPOS>BOND
     1    1    2 ar 
     2    1   10 ar 
     3    2    3 ar 
     4    2    7 ar 
     5    3    4 ar 
     6    4    5 ar 
     7    5    6 ar 
     8    6    7 ar 
     9    7    8 ar 
    10    8    9 ar 
    11    9   10 ar 
    12   10   11 1  
    13   11   12 2  
    14   11   13 1  
    15   12   15 1  
    16   13   14 2  
    17   14   15 1  
    18   15   16 1  
    19   16   17 1  
    20   16   25 1  
    21   17   18 1  
    22   18   19 1  
    23   18   21 1  
    24   19   20 1  
    25   21   22 1  
    26   21   23 1  
    27   23   24 1  
    28   23   25 1  
    29   25   26 1  
    30    1   27 1  
    31    3   28 1  
    32    4   29 1  
    33    5   30 1  
    34    6   31 1  
    35    8   32 1  
    36    9   33 1  
    37   12   34 1  
    38   16   35 1  
    39   18   36 1  
    40   19   37 1  
    41   19   38 1  
    42   20   39 1  
    43   21   40 1  
    44   22   41 1  
    45   23   42 1  
    46   24   43 1  
    47   25   44 1  
    48   26   45 1  
@<TRIPOS>SUBSTRUCTURE
     1 SKY         1

