### 
### Created by X-TOOL on Fri Sep 26 17:34:46 2014
### 

@<TRIPOS>MOLECULE
3g2l_ligand
   45    48     1     0     0
SMALL
GAST_HUCK


@<TRIPOS>ATOM
      1 C18        36.6650   26.6870   29.7240 C.ar      1 LEW        -0.0142
      2 C17        36.2660   26.8680   28.3820 C.ar      1 LEW        -0.0551
      3 C16        36.8380   27.8690   27.6020 C.ar      1 LEW        -0.0623
      4 C15        37.8180   28.7030   28.1550 C.ar      1 LEW        -0.0626
      5 C14        38.2140   28.5330   29.4870 C.ar      1 LEW        -0.0561
      6 C13        37.6490   27.5240   30.2730 C.ar      1 LEW        -0.0225
      7 C12        38.0570   27.3520   31.6030 C.ar      1 LEW        -0.0601
      8 C11        37.4850   26.3430   32.3930 C.ar      1 LEW        -0.0677
      9 C10        36.5040   25.5040   31.8480 C.ar      1 LEW        -0.0607
     10 C9         36.1130   25.6550   30.5120 C.ar      1 LEW        -0.0105
     11 C8         35.1040   24.8600   29.9690 C.2       1 LEW         0.0728
     12 C7         35.0550   24.2120   28.8100 C.2       1 LEW         0.0925
     13 N3         33.9190   24.6910   30.5380 N.2       1 LEW        -0.2151
     14 N2         33.2200   23.9890   29.8100 N.2       1 LEW        -0.0868
     15 N1         33.8360   23.6800   28.7890 N.pl3     1 LEW        -0.1347
     16 C1         33.1580   22.8470   27.7720 C.3       1 LEW         0.2196
     17 O5         33.2050   21.4420   28.0700 O.3       1 LEW        -0.3340
     18 C5         32.1860   20.7470   27.3050 C.3       1 LEW         0.1137
     19 C6         32.2250   19.2860   27.7560 C.3       1 LEW         0.0730
     20 O6         33.3910   18.6200   27.2360 O.3       1 LEW        -0.3924
     21 C4         32.3840   20.9300   25.7740 C.3       1 LEW         0.1119
     22 O4         31.2290   20.4800   25.0810 O.3       1 LEW        -0.3865
     23 C3         32.6370   22.4020   25.3860 C.3       1 LEW         0.1148
     24 O3         33.0990   22.4970   24.0380 O.3       1 LEW        -0.3864
     25 C2         33.6480   23.0390   26.3300 C.3       1 LEW         0.1420
     26 O2         33.8170   24.4340   26.0240 O.3       1 LEW        -0.3833
     27 H1         35.5075   26.2218   27.9552 H         1 LEW         0.0624
     28 H2         36.5267   28.0023   26.5723 H         1 LEW         0.0606
     29 H3         38.2704   29.4811   27.5509 H         1 LEW         0.0615
     30 H4         38.9648   29.1890   29.9125 H         1 LEW         0.0612
     31 H5         38.8172   28.0008   32.0228 H         1 LEW         0.0569
     32 H6         37.8011   26.2131   33.4217 H         1 LEW         0.0601
     33 H7         36.0468   24.7364   32.4619 H         1 LEW         0.0562
     34 H8         35.8332   24.1344   28.0522 H         1 LEW         0.1091
     35 H9         32.1009   23.1503   27.7922 H         1 LEW         0.1039
     36 H10        31.2018   21.1654   27.5624 H         1 LEW         0.0647
     37 H11        31.3236   18.7720   27.3910 H         1 LEW         0.0584
     38 H12        32.2488   19.2486   28.8551 H         1 LEW         0.0584
     39 H13        33.3946   17.7160   27.5280 H         1 LEW         0.2095
     40 H14        33.2507   20.3289   25.4618 H         1 LEW         0.0647
     41 H15        31.3569   20.5947   24.1467 H         1 LEW         0.2100
     42 H16        31.6874   22.9509   25.4690 H         1 LEW         0.0648
     43 H17        33.2485   23.4093   23.8192 H         1 LEW         0.2100
     44 H18        34.6181   22.5342   26.2115 H         1 LEW         0.0679
     45 H19        34.4500   24.8138   26.6219 H         1 LEW         0.2101
@<TRIPOS>BOND
     1    1    2 ar 
     2    1    6 ar 
     3    1   10 ar 
     4    2    3 ar 
     5    3    4 ar 
     6    4    5 ar 
     7    5    6 ar 
     8    6    7 ar 
     9    7    8 ar 
    10    8    9 ar 
    11    9   10 ar 
    12   10   11 1  
    13   11   12 2  
    14   11   13 1  
    15   12   15 1  
    16   13   14 2  
    17   14   15 1  
    18   15   16 1  
    19   16   17 1  
    20   16   25 1  
    21   17   18 1  
    22   18   19 1  
    23   18   21 1  
    24   19   20 1  
    25   21   22 1  
    26   21   23 1  
    27   23   24 1  
    28   23   25 1  
    29   25   26 1  
    30    2   27 1  
    31    3   28 1  
    32    4   29 1  
    33    5   30 1  
    34    7   31 1  
    35    8   32 1  
    36    9   33 1  
    37   12   34 1  
    38   16   35 1  
    39   18   36 1  
    40   19   37 1  
    41   19   38 1  
    42   20   39 1  
    43   21   40 1  
    44   22   41 1  
    45   23   42 1  
    46   24   43 1  
    47   25   44 1  
    48   26   45 1  
@<TRIPOS>SUBSTRUCTURE
     1 LEW         1

