### 
### Created by X-TOOL on Fri Sep 26 17:34:47 2014
### 

@<TRIPOS>MOLECULE
3g2n_ligand
   37    38     1     0     0
SMALL
GAST_HUCK


@<TRIPOS>ATOM
      1 C9         37.1580   23.4870   30.4910 C.ar      1 OAK        -0.0419
      2 C10        38.3350   23.8670   31.1330 C.ar      1 OAK        -0.0562
      3 C11        38.4750   25.1600   31.6300 C.ar      1 OAK        -0.0575
      4 C12        37.4290   26.0740   31.4840 C.ar      1 OAK        -0.0562
      5 C13        36.2470   25.6910   30.8390 C.ar      1 OAK        -0.0419
      6 C8         36.1140   24.3940   30.3420 C.ar      1 OAK         0.0499
      7 C7         34.8170   23.9710   29.6420 C.2       1 OAK         0.2069
      8 O7         33.7260   24.2890   30.1100 O.2       1 OAK        -0.3846
      9 N1         34.9690   23.2500   28.5340 N.am      1 OAK        -0.2577
     10 C1         33.7690   22.7880   27.7880 C.3       1 OAK         0.1716
     11 O5         33.5440   21.3610   28.0580 O.3       1 OAK        -0.3437
     12 C5         32.3720   20.8560   27.4120 C.3       1 OAK         0.1127
     13 C6         32.2320   19.3880   27.8560 C.3       1 OAK         0.0730
     14 O6         33.3160   18.6190   27.3300 O.3       1 OAK        -0.3924
     15 C4         32.5250   21.0280   25.8800 C.3       1 OAK         0.1119
     16 O4         31.3420   20.5750   25.2380 O.3       1 OAK        -0.3865
     17 C3         32.7830   22.4940   25.4940 C.3       1 OAK         0.1138
     18 O3         33.0530   22.5840   24.0950 O.3       1 OAK        -0.3864
     19 C2         33.9700   23.0640   26.2880 C.3       1 OAK         0.1307
     20 O2         34.1230   24.4740   26.0520 O.3       1 OAK        -0.3844
     21 H1         37.0555   22.4790   30.1056 H         1 OAK         0.0669
     22 H2         39.1437   23.1540   31.2457 H         1 OAK         0.0629
     23 H3         39.3913   25.4559   32.1278 H         1 OAK         0.0653
     24 H4         37.5326   27.0814   31.8707 H         1 OAK         0.0629
     25 H5         35.4360   26.4013   30.7258 H         1 OAK         0.0669
     26 H6         35.8850   23.0203   28.2051 H         1 OAK         0.1871
     27 H7         32.8906   23.3524   28.1341 H         1 OAK         0.0896
     28 H8         31.4865   21.4190   27.7420 H         1 OAK         0.0647
     29 H9         31.2806   18.9821   27.4817 H         1 OAK         0.0584
     30 H10        32.2461   19.3355   28.9546 H         1 OAK         0.0584
     31 H11        34.1376   18.9691   27.6538 H         1 OAK         0.2095
     32 H12        33.3761   20.4195   25.5404 H         1 OAK         0.0647
     33 H13        31.4332   20.6794   24.2981 H         1 OAK         0.2100
     34 H14        31.8846   23.0853   25.7247 H         1 OAK         0.0647
     35 H15        32.3061   22.2566   23.6078 H         1 OAK         0.2100
     36 H16        34.8878   22.5561   25.9568 H         1 OAK         0.0668
     37 H17        34.2762   24.6243   25.1265 H         1 OAK         0.2101
@<TRIPOS>BOND
     1    1    2 ar 
     2    1    6 ar 
     3    2    3 ar 
     4    3    4 ar 
     5    4    5 ar 
     6    5    6 ar 
     7    6    7 1  
     8    7    8 2  
     9    7    9 am 
    10    9   10 1  
    11   10   11 1  
    12   10   19 1  
    13   11   12 1  
    14   12   13 1  
    15   12   15 1  
    16   13   14 1  
    17   15   16 1  
    18   15   17 1  
    19   17   18 1  
    20   17   19 1  
    21   19   20 1  
    22    1   21 1  
    23    2   22 1  
    24    3   23 1  
    25    4   24 1  
    26    5   25 1  
    27    9   26 1  
    28   10   27 1  
    29   12   28 1  
    30   13   29 1  
    31   13   30 1  
    32   14   31 1  
    33   15   32 1  
    34   16   33 1  
    35   17   34 1  
    36   18   35 1  
    37   19   36 1  
    38   20   37 1  
@<TRIPOS>SUBSTRUCTURE
     1 OAK         1

