### 
### Created by X-TOOL on Mon Sep 10 21:12:59 2018
### 

@<TRIPOS>MOLECULE
3g2y_ligand
   24    25     1     0     0
SMALL
GAST_HUCK


@<TRIPOS>ATOM
      1 O11        -4.7180   51.2260   12.9010 O.2       1 GF4        -0.4024
      2 C3         -5.0650   52.3720   12.4270 C.2       1 GF4         0.2218
      3 C4         -6.4500   52.7950   12.1480 C.2       1 GF4         0.0232
      4 C12        -7.7130   51.9910   12.3450 C.3       1 GF4        -0.0405
      5 C13        -8.6210   52.7230   13.3050 C.3       1 GF4        -0.0641
      6 C5         -6.2620   54.1980   11.6290 C.2       1 GF4         0.0616
      7 C14        -7.3330   55.1550   11.1690 C.3       1 GF4        -0.0044
      8 N1         -4.9390   54.4860   11.6350 N.pl3     1 GF4        -0.1849
      9 N2         -4.2550   53.3720   12.1380 N.am      1 GF4        -0.0672
     10 C6         -2.9250   53.3350   12.2320 C.2       1 GF4         0.3050
     11 N10        -2.1770   53.5420   11.1530 N.2       1 GF4        -0.2185
     12 N9         -0.8590   53.4260   11.6160 N.2       1 GF4        -0.1672
     13 N8         -0.9140   53.1440   12.9910 N.2       1 GF4        -0.0837
     14 N7         -2.2620   53.0950   13.3680 N.pl3     1 GF4        -0.1345
     15 H1         -7.4601   51.0033   12.7579 H         1 GF4         0.0300
     16 H2         -8.2236   51.8648   11.3789 H         1 GF4         0.0300
     17 H3         -9.5433   52.1420   13.4526 H         1 GF4         0.0238
     18 H4         -8.8723   53.7107   12.8912 H         1 GF4         0.0238
     19 H5         -8.1088   52.8493   14.2702 H         1 GF4         0.0238
     20 H6         -6.8682   56.0994   10.8495 H         1 GF4         0.0453
     21 H7         -8.0299   55.3511   11.9972 H         1 GF4         0.0453
     22 H8         -7.8820   54.7126   10.3247 H         1 GF4         0.0453
     23 H9         -4.5106   55.3696   11.3241 H         1 GF4         0.2220
     24 H10        -2.6524   52.9155   14.3041 H         1 GF4         0.2663
@<TRIPOS>BOND
     1    1    2 2  
     2    2    3 1  
     3    2    9 am 
     4    3    4 1  
     5    3    6 2  
     6    4    5 1  
     7    6    7 1  
     8    6    8 1  
     9    8    9 1  
    10    9   10 1  
    11   10   11 2  
    12   10   14 1  
    13   11   12 1  
    14   12   13 2  
    15   13   14 1  
    16    4   15 1  
    17    4   16 1  
    18    5   17 1  
    19    5   18 1  
    20    5   19 1  
    21    7   20 1  
    22    7   21 1  
    23    7   22 1  
    24    8   23 1  
    25   14   24 1  
@<TRIPOS>SUBSTRUCTURE
     1 GF4         1

