### 
### Created by X-TOOL on Mon Sep 10 21:13:01 2018
### 

@<TRIPOS>MOLECULE
3g30_ligand
   25    26     1     0     0
SMALL
GAST_HUCK


@<TRIPOS>ATOM
      1 F11        29.0860   41.1310   96.9280 F         1 G30        -0.1909
      2 C11        28.2640   41.1230   95.8540 C.ar      1 G30         0.1148
      3 C12        28.8170   41.0060   94.5780 C.ar      1 G30        -0.0455
      4 C13        28.0130   41.0020   93.4450 C.ar      1 G30        -0.0433
      5 C14        26.6260   41.1070   93.5820 C.ar      1 G30         0.1471
      6 F14        25.8390   41.0910   92.4970 F         1 G30        -0.1971
      7 C10        26.8730   41.2340   96.0350 C.ar      1 G30        -0.0096
      8 C9         26.0120   41.2360   94.9280 C.ar      1 G30         0.0982
      9 N5         24.6590   41.3230   94.9960 N.am      1 G30        -0.2338
     10 C4         23.9540   42.0920   95.8330 C.2       1 G30         0.2078
     11 O15        24.3470   42.3120   96.9770 O.2       1 G30        -0.3849
     12 C3         22.6670   42.7550   95.3370 C.3       1 G30         0.0706
     13 C1         21.5450   42.0450   94.5160 C.3       1 G30         0.0344
     14 C2         21.4750   42.1010   96.0400 C.3       1 G30        -0.0141
     15 C6         21.6680   40.6060   94.0400 C.2       1 G30         0.0405
     16 O8         20.6420   39.8730   93.9640 O.co2     1 G30        -0.5686
     17 O7         22.7930   40.1930   93.6830 O.co2     1 G30        -0.5686
     18 H1         29.8918   40.9168   94.4691 H         1 G30         0.0466
     19 H2         28.4588   40.9179   92.4605 H         1 G30         0.0553
     20 H3         26.4647   41.3184   97.0356 H         1 G30         0.0474
     21 H4         24.1382   40.7564   94.3575 H         1 G30         0.2245
     22 H5         22.8004   43.8411   95.2244 H         1 G30         0.0565
     23 H6         20.8956   42.6346   93.8522 H         1 G30         0.0495
     24 H7         20.7169   42.7304   96.5290 H         1 G30         0.0316
     25 H8         21.6240   41.1831   96.6275 H         1 G30         0.0316
@<TRIPOS>BOND
     1    1    2 1  
     2    2    3 ar 
     3    2    7 ar 
     4    3    4 ar 
     5    4    5 ar 
     6    5    6 1  
     7    5    8 ar 
     8    7    8 ar 
     9    8    9 1  
    10    9   10 am 
    11   10   11 2  
    12   10   12 1  
    13   12   13 1  
    14   12   14 1  
    15   13   14 1  
    16   13   15 1  
    17   15   16 ar 
    18   15   17 ar 
    19    3   18 1  
    20    4   19 1  
    21    7   20 1  
    22    9   21 1  
    23   12   22 1  
    24   13   23 1  
    25   14   24 1  
    26   14   25 1  
@<TRIPOS>SUBSTRUCTURE
     1 G30         1

