### 
### Created by X-TOOL on Mon Sep 10 21:12:59 2018
### 

@<TRIPOS>MOLECULE
3g31_ligand
   31    33     1     0     0
SMALL
GAST_HUCK


@<TRIPOS>ATOM
      1 O10        -3.1350   40.5370   23.9780 O.2       1 GF1        -0.3854
      2 C7         -1.9700   40.6110   24.3310 C.2       1 GF1         0.2146
      3 N8         -0.9010   40.0910   23.6990 N.am      1 GF1        -0.1688
      4 C12        -0.9380   39.3220   22.4440 C.3       1 GF1         0.1184
      5 C14        -1.7610   38.0560   22.5570 C.2       1 GF1         0.0648
      6 O16        -1.7910   37.4390   23.6600 O.co2     1 GF1        -0.5662
      7 O15        -2.3770   37.6620   21.5400 O.co2     1 GF1        -0.5662
      8 C13        -1.3810   40.1670   21.2420 C.3       1 GF1        -0.0253
      9 C2         -1.5430   41.2920   25.6030 C.3       1 GF1         0.0772
     10 C3         -0.0250   41.0990   25.6300 C.3       1 GF1         0.0772
     11 C9          0.2410   40.3240   24.3680 C.2       1 GF1         0.2146
     12 O11         1.3630   39.9550   24.0370 O.2       1 GF1        -0.3854
     13 C1         -1.6770   42.8190   25.6340 C.3       1 GF1        -0.0180
     14 C6         -1.2130   43.4770   24.3330 C.3       1 GF1        -0.0473
     15 C5          0.3130   43.2860   24.3820 C.3       1 GF1        -0.0473
     16 C17        -0.5190   43.2020   26.5410 C.3       1 GF1        -0.0423
     17 C4          0.5300   42.5270   25.6850 C.3       1 GF1        -0.0180
     18 H1          0.0969   39.0078   22.2433 H         1 GF1         0.0780
     19 H2         -1.3893   39.5415   20.3372 H         1 GF1         0.0274
     20 H3         -0.6798   41.0031   21.1032 H         1 GF1         0.0274
     21 H4         -2.3914   40.5620   21.4239 H         1 GF1         0.0274
     22 H5         -2.0532   40.8412   26.4670 H         1 GF1         0.0574
     23 H6          0.3171   40.5281   26.5058 H         1 GF1         0.0574
     24 H7         -2.6717   43.1561   25.9612 H         1 GF1         0.0330
     25 H8         -1.4785   44.5443   24.3117 H         1 GF1         0.0270
     26 H9         -1.6477   42.9734   23.4569 H         1 GF1         0.0270
     27 H10         0.8311   44.2562   24.4003 H         1 GF1         0.0270
     28 H11         0.6644   42.6988   23.5208 H         1 GF1         0.0270
     29 H12        -0.5983   42.7674   27.5484 H         1 GF1         0.0274
     30 H13        -0.3755   44.2896   26.6211 H         1 GF1         0.0274
     31 H14         1.5641   42.5780   26.0564 H         1 GF1         0.0330
@<TRIPOS>BOND
     1    1    2 2  
     2    2    3 am 
     3    2    9 1  
     4    3    4 1  
     5    3   11 am 
     6    4    5 1  
     7    4    8 1  
     8    5    6 ar 
     9    5    7 ar 
    10    9   10 1  
    11    9   13 1  
    12   10   11 1  
    13   10   17 1  
    14   11   12 2  
    15   13   14 1  
    16   13   16 1  
    17   14   15 1  
    18   15   17 1  
    19   16   17 1  
    20    4   18 1  
    21    8   19 1  
    22    8   20 1  
    23    8   21 1  
    24    9   22 1  
    25   10   23 1  
    26   13   24 1  
    27   14   25 1  
    28   14   26 1  
    29   15   27 1  
    30   15   28 1  
    31   16   29 1  
    32   16   30 1  
    33   17   31 1  
@<TRIPOS>SUBSTRUCTURE
     1 GF1         1

