### 
### Created by X-TOOL on Mon Sep 10 21:12:59 2018
### 

@<TRIPOS>MOLECULE
3g32_ligand
   27    29     1     0     0
SMALL
GAST_HUCK


@<TRIPOS>ATOM
      1 O18        -7.7350   53.9950   13.2500 O.2       1 3G3        -0.3670
      2 C12        -7.3260   53.0940   12.4250 C.2       1 3G3         0.2402
      3 C11        -7.9970   52.8120   11.2360 C.ar      1 3G3         0.0732
      4 C13        -9.1490   53.3180   10.6420 C.ar      1 3G3        -0.0372
      5 C14        -9.5370   52.7800    9.4090 C.ar      1 3G3        -0.0523
      6 C15        -8.7920   51.7610    8.7970 C.ar      1 3G3        -0.0523
      7 C16        -7.6360   51.2570    9.4020 C.ar      1 3G3        -0.0372
      8 C10        -7.2690   51.8090   10.6250 C.ar      1 3G3         0.0732
      9 N8         -6.2170   52.3620   12.6480 N.am      1 3G3        -0.1823
     10 C9         -6.1580   51.5730   11.5730 C.2       1 3G3         0.2402
     11 O17        -5.2330   50.7050   11.3780 O.2       1 3G3        -0.3670
     12 C7         -5.2910   52.4130   13.7780 C.3       1 3G3         0.0678
     13 C6         -4.5370   53.7330   13.7410 C.3       1 3G3         0.0303
     14 C5         -3.2710   53.5700   12.9400 C.2       1 3G3         0.1201
     15 N4         -2.0790   53.2470   13.4660 N.2       1 3G3        -0.1815
     16 N3         -1.1370   53.1710   12.4390 N.2       1 3G3        -0.0595
     17 N2         -1.7930   53.4770   11.2490 N.pl3     1 3G3        -0.1153
     18 N1         -3.1300   53.7070   11.6000 N.2       1 3G3        -0.1627
     19 H1         -9.7266   54.1023   11.1178 H         1 3G3         0.0682
     20 H2        -10.4276   53.1570    8.9193 H         1 3G3         0.0662
     21 H3         -9.1161   51.3594    7.8437 H         1 3G3         0.0662
     22 H4         -7.0516   50.4706    8.9381 H         1 3G3         0.0682
     23 H5         -4.5775   51.5787   13.7081 H         1 3G3         0.0594
     24 H6         -5.8539   52.3362   14.7199 H         1 3G3         0.0594
     25 H7         -4.2842   54.0390   14.7669 H         1 3G3         0.0468
     26 H8         -5.1691   54.5026   13.2740 H         1 3G3         0.0468
     27 H9         -1.3808   53.5244   10.3063 H         1 3G3         0.2882
@<TRIPOS>BOND
     1    1    2 2  
     2    2    3 1  
     3    2    9 am 
     4    3    4 ar 
     5    3    8 ar 
     6    4    5 ar 
     7    5    6 ar 
     8    6    7 ar 
     9    7    8 ar 
    10    8   10 1  
    11    9   10 am 
    12    9   12 1  
    13   10   11 2  
    14   12   13 1  
    15   13   14 1  
    16   14   15 1  
    17   14   18 2  
    18   15   16 2  
    19   16   17 1  
    20   17   18 1  
    21    4   19 1  
    22    5   20 1  
    23    6   21 1  
    24    7   22 1  
    25   12   23 1  
    26   12   24 1  
    27   13   25 1  
    28   13   26 1  
    29   17   27 1  
@<TRIPOS>SUBSTRUCTURE
     1 3G3         1

