### 
### Created by X-TOOL on Mon Sep 10 21:12:59 2018
### 

@<TRIPOS>MOLECULE
3g34_ligand
   32    35     1     0     0
SMALL
GAST_HUCK


@<TRIPOS>ATOM
      1 O20        -3.9850   50.8840   10.0800 O.2       1 1CE        -0.4052
      2 C12        -4.8740   51.6630   10.4960 C.2       1 1CE         0.2158
      3 N7         -5.0820   51.8750   11.8110 N.am      1 1CE        -0.1775
      4 C6         -4.2430   51.1950   12.7960 C.3       1 1CE         0.1288
      5 C3         -2.9730   52.0030   12.8860 C.2       1 1CE         0.1499
      6 N2         -2.9080   53.3450   13.0680 N.2       1 1CE        -0.1597
      7 N4         -1.7230   51.5030   12.7840 N.2       1 1CE        -0.1785
      8 N5         -0.8130   52.5620   12.9110 N.2       1 1CE        -0.0594
      9 N1         -1.5610   53.7270   13.0920 N.pl3     1 1CE        -0.1152
     10 C11        -5.7390   52.3790    9.5300 C.2       1 1CE         0.0421
     11 C13        -5.8250   52.4150    8.0300 C.2       1 1CE        -0.0531
     12 C16        -4.9810   51.6560    7.0340 C.3       1 1CE        -0.0378
     13 C17        -5.1190   52.3500    5.6720 C.3       1 1CE        -0.0470
     14 C18        -6.5720   52.6290    5.2530 C.3       1 1CE        -0.0436
     15 C19        -7.3040   53.6360    6.1480 C.3       1 1CE        -0.0175
     16 C14        -6.9020   53.3340    7.5660 C.2       1 1CE         0.0045
     17 S15        -7.7650   54.1290    8.9190 S.3       1 1CE        -0.0355
     18 C10        -6.7580   53.2840   10.1190 C.2       1 1CE         0.0763
     19 N9         -6.8640   53.4140   11.4610 N.2       1 1CE        -0.2834
     20 C8         -6.0350   52.7190   12.2620 C.2       1 1CE         0.1308
     21 H1         -4.0212   50.1692   12.4666 H         1 1CE         0.0820
     22 H2         -4.7475   51.1654   13.7730 H         1 1CE         0.0820
     23 H3         -1.1938   54.6810   13.2185 H         1 1CE         0.2882
     24 H4         -5.3333   50.6165    6.9610 H         1 1CE         0.0351
     25 H5         -3.9283   51.6648    7.3528 H         1 1CE         0.0351
     26 H6         -4.6569   51.7070    4.9084 H         1 1CE         0.0281
     27 H7         -4.5825   53.3092    5.7173 H         1 1CE         0.0281
     28 H8         -7.1263   51.6792    5.2781 H         1 1CE         0.0287
     29 H9         -6.5649   53.0225    4.2258 H         1 1CE         0.0287
     30 H10        -8.3921   53.5245    6.0315 H         1 1CE         0.0408
     31 H11        -7.0100   54.6620    5.8820 H         1 1CE         0.0408
     32 H12        -6.1390   52.8449   13.3387 H         1 1CE         0.1478
@<TRIPOS>BOND
     1    1    2 2  
     2    2    3 am 
     3    2   10 1  
     4    3    4 1  
     5    3   20 1  
     6    4    5 1  
     7    5    6 2  
     8    5    7 1  
     9    6    9 1  
    10    7    8 2  
    11    8    9 1  
    12   10   11 1  
    13   10   18 2  
    14   11   12 1  
    15   11   16 2  
    16   12   13 1  
    17   13   14 1  
    18   14   15 1  
    19   15   16 1  
    20   16   17 1  
    21   17   18 1  
    22   18   19 1  
    23   19   20 2  
    24    4   21 1  
    25    4   22 1  
    26    9   23 1  
    27   12   24 1  
    28   12   25 1  
    29   13   26 1  
    30   13   27 1  
    31   14   28 1  
    32   14   29 1  
    33   15   30 1  
    34   15   31 1  
    35   20   32 1  
@<TRIPOS>SUBSTRUCTURE
     1 1CE         1

