### 
### Created by X-TOOL on Mon Sep 10 21:12:59 2018
### 

@<TRIPOS>MOLECULE
3g35_ligand
   31    33     1     0     0
SMALL
GAST_HUCK


@<TRIPOS>ATOM
      1 F21       -11.6260   59.7310   11.6930 F         1 F13        -0.1823
      2 C16       -10.8240   58.7840   11.1570 C.ar      1 F13         0.1378
      3 C15       -10.1490   57.9090   12.0020 C.ar      1 F13        -0.0080
      4 C17       -10.6740   58.6690    9.7830 C.ar      1 F13        -0.0239
      5 C18        -9.8450   57.6920    9.2360 C.ar      1 F13        -0.0580
      6 C19        -9.1530   56.8250   10.0810 C.ar      1 F13        -0.0455
      7 C14        -9.3120   56.9310   11.4670 C.ar      1 F13         0.0542
      8 C13        -8.5630   56.0080   12.3910 C.2       1 F13         0.2314
      9 O20        -8.9420   55.9010   13.5470 O.2       1 F13        -0.3730
     10 N12        -7.4940   55.3630   11.9080 N.am      1 F13        -0.2333
     11 C10        -6.6540   54.5780   12.6430 C.ar      1 F13         0.0663
     12 C9         -7.0880   53.8180   13.7370 C.ar      1 F13        -0.0410
     13 C8         -6.1890   53.0380   14.4650 C.ar      1 F13        -0.0745
     14 C7         -4.8450   52.9800   14.1120 C.ar      1 F13        -0.0672
     15 C6         -4.4150   53.7270   13.0210 C.ar      1 F13        -0.0043
     16 C11        -5.3040   54.5250   12.2970 C.ar      1 F13        -0.0321
     17 C4         -2.9890   53.6790   12.6260 C.2       1 F13         0.1452
     18 N5         -2.5270   53.9570   11.3930 N.2       1 F13        -0.1437
     19 N1         -1.1490   53.7940   11.3940 N.pl3     1 F13        -0.1036
     20 N2         -0.7910   53.3980   12.6820 N.2       1 F13        -0.0518
     21 N3         -1.9640   53.3260   13.4290 N.2       1 F13        -0.1756
     22 H1        -10.2738   57.9876   13.0759 H         1 F13         0.0655
     23 H2        -11.2079   59.3471    9.1272 H         1 F13         0.0639
     24 H3         -9.7386   57.6064    8.1606 H         1 F13         0.0619
     25 H4         -8.4940   56.0713    9.6654 H         1 F13         0.0634
     26 H5         -7.2957   55.4643   10.9331 H         1 F13         0.2251
     27 H6         -8.1340   53.8362   14.0210 H         1 F13         0.0505
     28 H7         -6.5429   52.4694   15.3174 H         1 F13         0.0579
     29 H8         -4.1495   52.3672   14.6739 H         1 F13         0.0498
     30 H9         -4.9412   55.1084   11.4585 H         1 F13         0.0504
     31 H10        -0.5130   53.9379   10.5967 H         1 F13         0.2946
@<TRIPOS>BOND
     1    1    2 1  
     2    2    3 ar 
     3    2    4 ar 
     4    3    7 ar 
     5    4    5 ar 
     6    5    6 ar 
     7    6    7 ar 
     8    7    8 1  
     9    8    9 2  
    10    8   10 am 
    11   10   11 1  
    12   11   12 ar 
    13   11   16 ar 
    14   12   13 ar 
    15   13   14 ar 
    16   14   15 ar 
    17   15   16 ar 
    18   15   17 1  
    19   17   18 2  
    20   17   21 1  
    21   18   19 1  
    22   19   20 1  
    23   20   21 2  
    24    3   22 1  
    25    4   23 1  
    26    5   24 1  
    27    6   25 1  
    28   10   26 1  
    29   12   27 1  
    30   13   28 1  
    31   14   29 1  
    32   16   30 1  
    33   19   31 1  
@<TRIPOS>SUBSTRUCTURE
     1 F13         1

