### 
### Created by X-TOOL on Mon Sep 10 21:13:01 2018
### 

@<TRIPOS>MOLECULE
3g3n_ligand
   31    33     1     0     0
SMALL
GAST_HUCK


@<TRIPOS>ATOM
      1 C1        -43.5720  -26.3710   10.6320 C.3       1 TC8         0.0074
      2 S2        -44.7600  -25.2300    9.9550 S.3       1 TC8        -0.0239
      3 C3        -45.9510  -26.2090    9.1310 C.2       1 TC8         0.2279
      4 N4        -45.8890  -27.5450    9.2300 N.2       1 TC8        -0.2929
      5 C5        -46.7790  -28.3350    8.6130 C.ar      1 TC8         0.0151
      6 C6        -46.6700  -29.7160    8.7320 C.ar      1 TC8        -0.0535
      7 C7        -47.5800  -30.5440    8.0850 C.ar      1 TC8        -0.0664
      8 C8        -48.6020  -29.9930    7.3190 C.ar      1 TC8        -0.0652
      9 C9        -48.7130  -28.6120    7.2010 C.ar      1 TC8        -0.0499
     10 C10       -47.8010  -27.7850    7.8480 C.ar      1 TC8         0.0645
     11 C11       -47.8970  -26.4030    7.7260 C.2       1 TC8         0.2591
     12 O12       -48.8080  -25.8980    7.0710 O.2       1 TC8        -0.3767
     13 N13       -46.9570  -25.5960    8.3750 N.am      1 TC8        -0.1209
     14 C14       -47.0160  -24.1990    8.2800 C.ar      1 TC8         0.1786
     15 C15       -47.7030  -23.4660    9.2430 C.ar      1 TC8         0.1622
     16 F16       -48.3140  -24.0950   10.2670 F         1 TC8        -0.1904
     17 C17       -47.7620  -22.0800    9.1580 C.ar      1 TC8        -0.0403
     18 C18       -47.1360  -21.4170    8.1090 C.ar      1 TC8        -0.0764
     19 C19       -46.4480  -22.1460    7.1450 C.ar      1 TC8        -0.0403
     20 C20       -46.3870  -23.5320    7.2330 C.ar      1 TC8         0.1622
     21 F21       -45.6910  -24.2180    6.3050 F         1 TC8        -0.1904
     22 H1        -42.7903  -25.8119   11.1671 H         1 TC8         0.0379
     23 H2        -43.1149  -26.9511    9.8168 H         1 TC8         0.0379
     24 H3        -44.0769  -27.0547   11.3303 H         1 TC8         0.0379
     25 H4        -45.8750  -30.1472    9.3296 H         1 TC8         0.0556
     26 H5        -47.4931  -31.6205    8.1775 H         1 TC8         0.0627
     27 H6        -49.3111  -30.6395    6.8146 H         1 TC8         0.0554
     28 H7        -49.5094  -28.1805    6.6055 H         1 TC8         0.0644
     29 H8        -48.2977  -21.5145    9.9119 H         1 TC8         0.0541
     30 H9        -47.1838  -20.3361    8.0425 H         1 TC8         0.0504
     31 H10       -45.9591  -21.6332    6.3246 H         1 TC8         0.0541
@<TRIPOS>BOND
     1    1    2 1  
     2    2    3 1  
     3    3    4 2  
     4    3   13 1  
     5    4    5 1  
     6    5    6 ar 
     7    5   10 ar 
     8    6    7 ar 
     9    7    8 ar 
    10    8    9 ar 
    11    9   10 ar 
    12   10   11 1  
    13   11   12 2  
    14   11   13 am 
    15   13   14 1  
    16   14   15 ar 
    17   14   20 ar 
    18   15   16 1  
    19   15   17 ar 
    20   17   18 ar 
    21   18   19 ar 
    22   19   20 ar 
    23   20   21 1  
    24    1   22 1  
    25    1   23 1  
    26    1   24 1  
    27    6   25 1  
    28    7   26 1  
    29    8   27 1  
    30    9   28 1  
    31   17   29 1  
    32   18   30 1  
    33   19   31 1  
@<TRIPOS>SUBSTRUCTURE
     1 TC8         1

