### 
### Created by X-TOOL on Mon Sep 10 21:13:01 2018
### 

@<TRIPOS>MOLECULE
3g42_ligand
   48    50     1     0     0
SMALL
GAST_HUCK


@<TRIPOS>ATOM
      1 C1         56.1730   33.8870   99.6560 C.ar      1 792        -0.0488
      2 C2         56.2650   33.2780  100.9540 C.ar      1 792         0.0546
      3 C3         55.2550   32.3460  101.4160 C.ar      1 792        -0.0288
      4 C4         54.1450   32.0320  100.5520 C.ar      1 792        -0.0749
      5 C5         54.0660   32.6450   99.2580 C.ar      1 792        -0.0635
      6 C6         55.0700   33.5690   98.8080 C.ar      1 792        -0.0739
      7 S7         54.0920   32.5660  107.2620 S.o2      1 792         0.0651
      8 C8         52.4070   33.1170  107.4550 C.ar      1 792         0.0970
      9 C9         51.3710   32.1540  107.6780 C.ar      1 792        -0.0441
     10 C10        50.0210   32.5950  107.8320 C.ar      1 792        -0.0313
     11 C11        49.7080   33.9880  107.7660 C.ar      1 792         0.0925
     12 C12        50.7540   34.9670  107.5410 C.ar      1 792        -0.0313
     13 C13        52.1110   34.5270  107.3850 C.ar      1 792        -0.0441
     14 O14        48.3410   34.3300  107.9240 O.3       1 792        -0.3055
     15 C15        47.9380   35.1790  109.0130 C.3       1 792         0.1306
     16 C16        48.0140   34.4930  110.3260 C.1       1 792        -0.0723
     17 C17        48.0940   33.9860  111.4000 C.1       1 792        -0.1165
     18 O19        54.9420   33.5390  107.8800 O.2       1 792        -0.1516
     19 O20        54.1780   31.2360  107.8120 O.2       1 792        -0.1516
     20 N21        57.1980   33.3900  101.9730 N.pl3     1 792        -0.2919
     21 C22        56.8380   32.6060  103.0180 C.2       1 792         0.0151
     22 C23        55.6390   31.9210  102.7590 C.2       1 792        -0.0453
     23 C24        54.9230   30.9430  103.7130 C.3       1 792        -0.0053
     24 C25        53.8490   31.5800  104.6630 C.3       1 792         0.0938
     25 C26        52.7730   32.2770  103.8560 C.2       1 792         0.0575
     26 N27        54.4980   32.4920  105.6450 N.am      1 792        -0.2314
     27 O28        52.8860   33.4840  103.6660 O.co2     1 792        -0.5669
     28 O29        51.8520   31.6040  103.3960 O.co2     1 792        -0.5669
     29 C48        52.9310   32.3210   98.3790 C.3       1 792        -0.0377
     30 H1         56.9352   34.5824   99.3234 H         1 792         0.0531
     31 H2         53.3773   31.3392  100.8772 H         1 792         0.0462
     32 H3         54.9899   34.0234   97.8271 H         1 792         0.0486
     33 H4         51.6094   31.0978  107.7296 H         1 792         0.0608
     34 H5         49.2317   31.8711  107.9994 H         1 792         0.0542
     35 H6         50.5128   36.0226  107.4911 H         1 792         0.0542
     36 H7         52.9045   35.2460  107.2165 H         1 792         0.0608
     37 H8         46.9003   35.5019  108.8433 H         1 792         0.0752
     38 H9         48.5969   36.0595  109.0364 H         1 792         0.0752
     39 H10        48.1650   33.5362  112.3528 H         1 792         0.1229
     40 H11        58.0405   33.9817  101.9407 H         1 792         0.2202
     41 H12        57.4067   32.5180  103.9425 H         1 792         0.0792
     42 H13        55.6879   30.4637  104.3416 H         1 792         0.0384
     43 H14        54.4212   30.1798  103.1000 H         1 792         0.0384
     44 H15        53.3691   30.7674  105.2281 H         1 792         0.0694
     45 H16        55.2221   33.0977  105.3151 H         1 792         0.1697
     46 H17        52.2688   31.6030   98.8849 H         1 792         0.0368
     47 H18        53.3057   31.8785   97.4443 H         1 792         0.0368
     48 H19        52.3701   33.2393   98.1509 H         1 792         0.0368
@<TRIPOS>BOND
     1    2    1 ar 
     2    1    6 ar 
     3    3    2 ar 
     4   20    2 1  
     5    3    4 ar 
     6   22    3 1  
     7    4    5 ar 
     8    5    6 ar 
     9    5   29 1  
    10    7    8 1  
    11    7   18 2  
    12    7   19 2  
    13   26    7 am 
    14    8    9 ar 
    15    8   13 ar 
    16    9   10 ar 
    17   10   11 ar 
    18   12   11 ar 
    19   11   14 1  
    20   13   12 ar 
    21   14   15 1  
    22   15   16 1  
    23   16   17 3  
    24   21   20 1  
    25   22   21 2  
    26   23   22 1  
    27   24   23 1  
    28   24   25 1  
    29   24   26 1  
    30   25   27 ar 
    31   25   28 ar 
    32    1   30 1  
    33    4   31 1  
    34    6   32 1  
    35    9   33 1  
    36   10   34 1  
    37   12   35 1  
    38   13   36 1  
    39   15   37 1  
    40   15   38 1  
    41   17   39 1  
    42   20   40 1  
    43   21   41 1  
    44   23   42 1  
    45   23   43 1  
    46   24   44 1  
    47   26   45 1  
    48   29   46 1  
    49   29   47 1  
    50   29   48 1  
@<TRIPOS>SUBSTRUCTURE
     1 792         1

