### 
### Created by X-TOOL on Mon Sep 10 21:13:02 2018
### 

@<TRIPOS>MOLECULE
3g45_ligand
   41    44     1     0     0
SMALL
GAST_HUCK


@<TRIPOS>ATOM
      1 C1         28.7660   22.9510   10.5380 C.ar      1 988         0.0414
      2 C2         29.1370   21.7100   11.0080 C.ar      1 988         0.1374
      3 C3         29.4740   21.5690   12.4370 C.ar      1 988         0.1799
      4 N4         29.4270   22.6460   13.2540 N.ar      1 988        -0.1997
      5 C5         29.0660   23.8460   12.7610 C.ar      1 988         0.0843
      6 C6         28.7290   24.0260   11.4200 C.ar      1 988         0.0358
      7 C13        29.1910   20.6030   10.1820 C.ar      1 988         0.0896
      8 C15        29.5510   19.3400   10.6710 C.ar      1 988         0.1086
      9 C17        29.8780   19.1560   12.0220 C.ar      1 988         0.0747
     10 C19        29.8390   20.2240   12.9190 C.ar      1 988         0.1314
     11 C22        30.2040   20.0630   14.3350 C.ar      1 988         0.0982
     12 C24        31.4100   19.4650   14.6290 C.ar      1 988         0.0402
     13 C25        31.8170   19.2890   15.9410 C.ar      1 988         0.1317
     14 C26        31.0130   19.7360   16.9680 C.ar      1 988         0.0165
     15 C27        29.8040   20.3490   16.6750 C.ar      1 988        -0.0064
     16 C28        29.3980   20.5140   15.3580 C.ar      1 988         0.0107
     17 C35        29.6140   18.1750    9.6960 C.3       1 988         0.0652
     18 C37        28.6080   17.1180   10.0280 C.ar      1 988         0.0023
     19 C39        27.2750   17.2630    9.6550 C.ar      1 988        -0.0260
     20 C40        26.3650   16.2640    9.9960 C.ar      1 988         0.0064
     21 N41        26.7520   15.1740   10.6610 N.ar      1 988        -0.3033
     22 C42        28.0320   15.0030   11.0070 C.ar      1 988         0.0064
     23 C43        28.9970   15.9700   10.6970 C.ar      1 988        -0.0260
     24 N50        33.0400   18.6630   16.2260 N.2       1 988        -0.2034
     25 O52        33.7630   18.2430   15.3230 O.2       1 988        -0.4865
     26 O54        33.4310   18.5200   17.5660 O.2       1 988        -0.4865
     27 H          28.5049   23.0885    9.4887 H         1 988         0.1294
     28 H          29.0363   24.7045   13.4320 H         1 988         0.1180
     29 H          28.4355   25.0127   11.0616 H         1 988         0.1009
     30 H          28.9478   20.7151    9.1254 H         1 988         0.1796
     31 H          30.1663   18.1662   12.3759 H         1 988         0.1127
     32 H          32.0531   19.1255   13.8171 H         1 988         0.1027
     33 H          31.3258   19.6083   18.0043 H         1 988         0.1073
     34 H          29.1675   20.7041   17.4855 H         1 988         0.0774
     35 H          28.4471   20.9975   15.1341 H         1 988         0.0984
     36 H          30.6083   17.7323    9.7546 H         1 988         0.0767
     37 H          29.3976   18.5524    8.6966 H         1 988         0.0767
     38 H          26.9476   18.1448    9.1043 H         1 988         0.0675
     39 H          25.3179   16.3752    9.7142 H         1 988         0.0811
     40 H          28.3289   14.0984   11.5378 H         1 988         0.0811
     41 H          30.0394   15.8207   10.9785 H         1 988         0.0675
@<TRIPOS>BOND
     1    1    2 ar 
     2    1    6 ar 
     3    2    3 ar 
     4    2    7 ar 
     5    3    4 ar 
     6    3   10 ar 
     7    4    5 ar 
     8    5    6 ar 
     9    7    8 ar 
    10    8    9 ar 
    11    8   17 1  
    12    9   10 ar 
    13   10   11 1  
    14   11   12 ar 
    15   11   16 ar 
    16   12   13 ar 
    17   13   14 ar 
    18   13   24 1  
    19   14   15 ar 
    20   15   16 ar 
    21   17   18 1  
    22   18   19 ar 
    23   18   23 ar 
    24   19   20 ar 
    25   20   21 ar 
    26   21   22 ar 
    27   22   23 ar 
    28   24   25 2  
    29   24   26 2  
    30    1   27 1  
    31    5   28 1  
    32    6   29 1  
    33    7   30 1  
    34    9   31 1  
    35   12   32 1  
    36   14   33 1  
    37   15   34 1  
    38   16   35 1  
    39   17   36 1  
    40   17   37 1  
    41   19   38 1  
    42   20   39 1  
    43   22   40 1  
    44   23   41 1  
@<TRIPOS>SUBSTRUCTURE
     1 988         1

