### 
### Created by X-TOOL on Mon Sep 10 21:13:03 2018
### 

@<TRIPOS>MOLECULE
3g4g_ligand
   41    44     1     0     0
SMALL
GAST_HUCK


@<TRIPOS>ATOM
      1 C1         22.8030    6.1990   19.3350 C.ar      1 D71         0.0310
      2 C2         23.3830    6.8010   18.2730 C.ar      1 D71         0.2041
      3 C3         24.5750    7.6690   18.4920 C.ar      1 D71         0.3612
      4 C5         24.3860    7.2020   20.8450 C.ar      1 D71         0.0702
      5 C6         23.3160    6.4070   20.6950 C.ar      1 D71         0.0175
      6 C14        24.6490    8.1110   16.0360 C.2       1 D71         0.5024
      7 O56        26.5800   13.2340   16.5470 O.2       1 D71        -0.4857
      8 N54        27.5480   12.7130   17.0080 N.2       1 D71        -0.1990
      9 O58        28.6660   13.4350   17.1370 O.2       1 D71        -0.4857
     10 C40        27.5450   11.3520   17.3710 C.ar      1 D71         0.1512
     11 C39        26.4190   10.6000   17.1790 C.ar      1 D71         0.1084
     12 C41        28.7720   10.7260   17.9250 C.ar      1 D71         0.0308
     13 C42        28.7720    9.4190   18.2340 C.ar      1 D71         0.0132
     14 C43        27.5470    8.6010   18.0380 C.ar      1 D71         0.0788
     15 C22        26.4070    9.1600   17.5230 C.ar      1 D71         0.2897
     16 N13        25.2100    8.3110   17.3510 N.am      1 D71         0.0070
     17 N4         25.0070    7.8570   19.7310 N.ar      1 D71        -0.1725
     18 O52        25.1890    8.6440   15.0670 O.2       1 D71        -0.2866
     19 N15        23.4740    7.2720   15.8330 N.am      1 D71        -0.1064
     20 C16        22.8490    6.6060   16.9220 C.2       1 D71         0.2880
     21 O50        21.8240    5.8860   16.7150 O.2       1 D71        -0.3499
     22 C24        22.9400    7.0450   14.4600 C.3       1 D71         0.1048
     23 C26        23.9070    6.2280   13.6530 C.ar      1 D71         0.0041
     24 C32        24.7040    6.7310   12.6790 C.ar      1 D71        -0.0301
     25 C31        25.6440    5.8030   11.9630 C.ar      1 D71         0.0031
     26 N30        25.6770    4.5340   12.2870 N.ar      1 D71        -0.3066
     27 C29        24.8480    4.0100   13.3310 C.ar      1 D71         0.0031
     28 C28        24.0060    4.8020   14.0200 C.ar      1 D71        -0.0301
     29 H1         21.9463    5.5530   19.1805 H         1 D71         0.0914
     30 H2         24.7933    7.3537   21.8381 H         1 D71         0.1057
     31 H3         22.8457    5.9338   21.5494 H         1 D71         0.1100
     32 H4         25.5273   11.0623   16.7713 H         1 D71         0.1173
     33 H5         29.6644   11.3216   18.0795 H         1 D71         0.1198
     34 H6         29.6704    8.9583   18.6285 H         1 D71         0.0823
     35 H7         27.5554    7.5505   18.3054 H         1 D71         0.1125
     36 H8         22.7846    8.0155   13.9661 H         1 D71         0.0770
     37 H9         21.9812    6.5101   14.5274 H         1 D71         0.0770
     38 H10        24.6640    7.7832   12.4214 H         1 D71         0.0652
     39 H11        26.2924    6.1820   11.1813 H         1 D71         0.0803
     40 H12        24.8999    2.9542   13.5709 H         1 D71         0.0803
     41 H13        23.4103    4.3992   14.8312 H         1 D71         0.0652
@<TRIPOS>BOND
     1    2    1 ar 
     2    1    5 ar 
     3    3    2 ar 
     4    2   20 1  
     5   16    3 1  
     6    3   17 ar 
     7    4    5 ar 
     8   17    4 ar 
     9   16    6 am 
    10    6   18 2  
    11    6   19 am 
    12    8    7 2  
    13    8    9 2  
    14   10    8 1  
    15   11   10 ar 
    16   10   12 ar 
    17   15   11 ar 
    18   13   12 ar 
    19   14   13 ar 
    20   15   14 ar 
    21   15   16 1  
    22   19   20 am 
    23   19   22 1  
    24   20   21 2  
    25   22   23 1  
    26   23   24 ar 
    27   23   28 ar 
    28   24   25 ar 
    29   25   26 ar 
    30   26   27 ar 
    31   27   28 ar 
    32    1   29 1  
    33    4   30 1  
    34    5   31 1  
    35   11   32 1  
    36   12   33 1  
    37   13   34 1  
    38   14   35 1  
    39   22   36 1  
    40   22   37 1  
    41   24   38 1  
    42   25   39 1  
    43   27   40 1  
    44   28   41 1  
@<TRIPOS>SUBSTRUCTURE
     1 D71         1

