### 
### Created by X-TOOL on Mon Sep 10 21:13:03 2018
### 

@<TRIPOS>MOLECULE
3g4i_ligand
   41    44     1     0     0
SMALL
GAST_HUCK


@<TRIPOS>ATOM
      1 C1         22.5110   -1.3240   34.6220 C.ar      1 D71         0.0310
      2 C2         22.4680   -2.3810   33.7660 C.ar      1 D71         0.2041
      3 C3         22.5330   -3.7720   34.3510 C.ar      1 D71         0.3612
      4 C5         22.6670   -2.8330   36.5500 C.ar      1 D71         0.0702
      5 C6         22.6100   -1.5580   36.0770 C.ar      1 D71         0.0175
      6 C14        22.3910   -4.6890   31.9970 C.2       1 D71         0.5024
      7 O56        25.7760   -8.7430   32.6360 O.2       1 D71        -0.4857
      8 N54        24.9730   -9.1890   33.4010 N.2       1 D71        -0.1990
      9 O58        25.1210  -10.4680   33.7810 O.2       1 D71        -0.4857
     10 C40        23.8740   -8.4150   33.8750 C.ar      1 D71         0.1512
     11 C39        23.7120   -7.1110   33.4770 C.ar      1 D71         0.1084
     12 C41        22.8410   -8.9990   34.7970 C.ar      1 D71         0.0308
     13 C42        21.7830   -8.2720   35.2220 C.ar      1 D71         0.0132
     14 C43        21.6200   -6.8500   34.7830 C.ar      1 D71         0.0788
     15 C22        22.5530   -6.3010   33.9440 C.ar      1 D71         0.2897
     16 N13        22.4900   -4.9170   33.4590 N.am      1 D71         0.0070
     17 N4         22.6260   -3.9390   35.6500 N.ar      1 D71        -0.1725
     18 O52        22.3550   -5.6570   31.2290 O.2       1 D71        -0.2866
     19 N15        22.3490   -3.3360   31.4350 N.am      1 D71        -0.1064
     20 C16        22.3750   -2.1890   32.2930 C.2       1 D71         0.2880
     21 O50        22.3380   -1.0260   31.7870 O.2       1 D71        -0.3499
     22 C24        22.2500   -3.1620   29.9550 C.3       1 D71         0.1048
     23 C26        20.8820   -3.5660   29.4500 C.ar      1 D71         0.0041
     24 C32        20.6260   -4.6480   28.6710 C.ar      1 D71        -0.0301
     25 C31        19.2210   -4.9050   28.2730 C.ar      1 D71         0.0031
     26 N30        18.2720   -4.1070   28.6930 N.ar      1 D71        -0.3066
     27 C29        18.5380   -2.9720   29.5220 C.ar      1 D71         0.0031
     28 C28        19.7840   -2.6880   29.9130 C.ar      1 D71        -0.0301
     29 H1         22.4726   -0.3116   34.2365 H         1 D71         0.0914
     30 H2         22.7440   -3.0090   37.6168 H         1 D71         0.1057
     31 H3         22.6371   -0.7197   36.7637 H         1 D71         0.1100
     32 H4         24.4407   -6.6632   32.8110 H         1 D71         0.1173
     33 H5         22.9463  -10.0256   35.1287 H         1 D71         0.1198
     34 H6         21.0502   -8.7205   35.8830 H         1 D71         0.0823
     35 H7         20.7751   -6.2630   35.1245 H         1 D71         0.1125
     36 H8         23.0122   -3.7878   29.4678 H         1 D71         0.0770
     37 H9         22.4280   -2.1058   29.7046 H         1 D71         0.0770
     38 H10        21.4258   -5.3052   28.3492 H         1 D71         0.0652
     39 H11        18.9808   -5.7496   27.6373 H         1 D71         0.0803
     40 H12        17.7194   -2.3349   29.8367 H         1 D71         0.0803
     41 H13        19.9854   -1.8365   30.5528 H         1 D71         0.0652
@<TRIPOS>BOND
     1    2    1 ar 
     2    1    5 ar 
     3    3    2 ar 
     4    2   20 1  
     5   16    3 1  
     6    3   17 ar 
     7    4    5 ar 
     8   17    4 ar 
     9   16    6 am 
    10    6   18 2  
    11    6   19 am 
    12    8    7 2  
    13    8    9 2  
    14   10    8 1  
    15   11   10 ar 
    16   10   12 ar 
    17   15   11 ar 
    18   13   12 ar 
    19   14   13 ar 
    20   15   14 ar 
    21   15   16 1  
    22   19   20 am 
    23   19   22 1  
    24   20   21 2  
    25   22   23 1  
    26   23   24 ar 
    27   23   28 ar 
    28   24   25 ar 
    29   25   26 ar 
    30   26   27 ar 
    31   27   28 ar 
    32    1   29 1  
    33    4   30 1  
    34    5   31 1  
    35   11   32 1  
    36   12   33 1  
    37   13   34 1  
    38   14   35 1  
    39   22   36 1  
    40   22   37 1  
    41   24   38 1  
    42   25   39 1  
    43   27   40 1  
    44   28   41 1  
@<TRIPOS>SUBSTRUCTURE
     1 D71         1

