### 
### Created by X-TOOL on Mon Sep 10 21:13:03 2018
### 

@<TRIPOS>MOLECULE
3g4k_ligand
   41    43     1     0     0
SMALL
GAST_HUCK


@<TRIPOS>ATOM
      1 C5         21.1670   -2.8930   31.0380 C.ar      1 ROL        -0.0554
      2 C6         21.5800   -4.0560   31.6800 C.ar      1 ROL        -0.0393
      3 C7         22.0070   -4.0330   33.0190 C.ar      1 ROL         0.1139
      4 C8         22.0030   -2.7630   33.7650 C.ar      1 ROL         0.1122
      5 C9         21.5810   -1.6220   33.0910 C.ar      1 ROL        -0.0479
      6 C10        21.1710   -1.6880   31.7490 C.ar      1 ROL        -0.0796
      7 C3         20.7290   -3.0200   29.6160 C.3       1 ROL         0.0221
      8 C2         19.2980   -2.5240   29.3680 C.3       1 ROL         0.0499
      9 C1         19.3640   -1.8970   27.9890 C.2       1 ROL         0.1782
     10 O1         18.3800   -1.5490   27.3350 O.2       1 ROL        -0.3969
     11 N1         20.6410   -1.7940   27.6220 N.am      1 ROL        -0.2847
     12 C4         21.6000   -2.2700   28.6110 C.3       1 ROL         0.0437
     13 O3         22.4110   -5.1560   33.6860 O.3       1 ROL        -0.3201
     14 C11        22.5040   -6.4230   33.0320 C.3       1 ROL         0.0787
     15 C15        21.1120   -7.0060   32.9320 C.3       1 ROL        -0.0226
     16 C14        20.9030   -7.8180   34.1940 C.3       1 ROL        -0.0503
     17 C13        22.2750   -8.0640   34.7910 C.3       1 ROL        -0.0503
     18 C12        23.2920   -7.4120   33.8780 C.3       1 ROL        -0.0226
     19 O2         22.4190   -2.7790   35.0820 O.3       1 ROL        -0.3294
     20 C16        22.3180   -1.6500   35.9490 C.3       1 ROL         0.0554
     21 H1         21.5724   -4.9952   31.1388 H         1 ROL         0.0450
     22 H2         21.5683   -0.6693   33.6080 H         1 ROL         0.0493
     23 H3         20.8490   -0.7807   31.2508 H         1 ROL         0.0436
     24 H4         20.7705   -4.0915   29.3706 H         1 ROL         0.0483
     25 H5         19.0054   -1.7794   30.1229 H         1 ROL         0.0526
     26 H6         18.5851   -3.3616   29.3835 H         1 ROL         0.0526
     27 H7         20.9194   -1.4195   26.7375 H         1 ROL         0.1852
     28 H8         22.3386   -2.9429   28.1510 H         1 ROL         0.0544
     29 H9         22.1201   -1.4284   29.0918 H         1 ROL         0.0544
     30 H10        22.9620   -6.3060   32.0388 H         1 ROL         0.0645
     31 H11        21.0317   -7.6519   32.0452 H         1 ROL         0.0294
     32 H12        20.3650   -6.2011   32.8683 H         1 ROL         0.0294
     33 H13        20.4185   -8.7754   33.9520 H         1 ROL         0.0266
     34 H14        20.2761   -7.2589   34.9042 H         1 ROL         0.0266
     35 H15        22.4678   -9.1450   34.8566 H         1 ROL         0.0266
     36 H16        22.3327   -7.6196   35.7955 H         1 ROL         0.0266
     37 H17        24.0582   -6.8880   34.4682 H         1 ROL         0.0294
     38 H18        23.7739   -8.1663   33.2387 H         1 ROL         0.0294
     39 H19        22.7139   -1.9130   36.9410 H         1 ROL         0.0570
     40 H20        21.2631   -1.3525   36.0423 H         1 ROL         0.0570
     41 H21        22.8992   -0.8143   35.5321 H         1 ROL         0.0570
@<TRIPOS>BOND
     1    1    2 ar 
     2    1    6 ar 
     3    1    7 1  
     4    2    3 ar 
     5    3    4 ar 
     6    3   13 1  
     7    4    5 ar 
     8    4   19 1  
     9    5    6 ar 
    10    7    8 1  
    11    7   12 1  
    12    8    9 1  
    13    9   10 2  
    14    9   11 am 
    15   11   12 1  
    16   13   14 1  
    17   14   15 1  
    18   14   18 1  
    19   15   16 1  
    20   16   17 1  
    21   17   18 1  
    22   19   20 1  
    23    2   21 1  
    24    5   22 1  
    25    6   23 1  
    26    7   24 1  
    27    8   25 1  
    28    8   26 1  
    29   11   27 1  
    30   12   28 1  
    31   12   29 1  
    32   14   30 1  
    33   15   31 1  
    34   15   32 1  
    35   16   33 1  
    36   16   34 1  
    37   17   35 1  
    38   17   36 1  
    39   18   37 1  
    40   18   38 1  
    41   20   39 1  
    42   20   40 1  
    43   20   41 1  
@<TRIPOS>SUBSTRUCTURE
     1 ROL         1

