### 
### Created by X-TOOL on Mon Sep 10 21:13:04 2018
### 

@<TRIPOS>MOLECULE
3g4l_ligand
   40    42     1     0     0
SMALL
GAST_HUCK


@<TRIPOS>ATOM
      1 O24        20.7990   -4.7950   28.8480 O.2       1 ROF        -0.3758
      2 C23        23.5250   -8.9900   34.2760 C.3       1 ROF        -0.0475
      3 C22        22.6750   -9.6160   33.1710 C.3       1 ROF        -0.0475
      4 C21        22.4660   -8.1640   33.5680 C.3       1 ROF        -0.0136
      5 C8         21.1530   -3.6730   29.1700 C.2       1 ROF         0.2263
      6 C9         21.5620   -3.5750   30.6070 C.ar      1 ROF         0.0368
      7 C10        21.4300   -2.4010   31.3460 C.ar      1 ROF        -0.0609
      8 C11        21.7650   -2.3880   32.7040 C.ar      1 ROF        -0.0346
      9 C12        22.2140   -3.5590   33.3370 C.ar      1 ROF         0.1317
     10 O15        22.5580   -3.6370   34.6670 O.3       1 ROF        -0.2569
     11 C16        22.7660   -2.5200   35.5070 C.3       1 ROF         0.3654
     12 F18        23.5790   -1.6130   34.8790 F         1 ROF        -0.1739
     13 F17        21.5450   -1.9960   35.7840 F         1 ROF        -0.1739
     14 C13        22.3140   -4.7370   32.6110 C.ar      1 ROF         0.1258
     15 O19        22.7580   -5.8640   33.2730 O.3       1 ROF        -0.3204
     16 C20        23.0240   -7.1110   32.6350 C.3       1 ROF         0.0708
     17 C14        21.9670   -4.7420   31.2530 C.ar      1 ROF        -0.0211
     18 N7         21.0250   -2.6100   28.3610 N.am      1 ROF        -0.2241
     19 C6         20.4070   -2.7050   27.1270 C.ar      1 ROF         0.1144
     20 C5         20.9470   -1.9530   26.1130 C.ar      1 ROF         0.0873
     21 CL26       22.2250   -0.7930   26.5400 Cl        1 ROF        -0.0731
     22 C4         20.5110   -2.0710   24.7980 C.ar      1 ROF         0.0077
     23 N3         19.5640   -2.9490   24.4520 N.ar      1 ROF        -0.3187
     24 C2         19.0120   -3.7260   25.3920 C.ar      1 ROF         0.0077
     25 C1         19.4110   -3.6240   26.7320 C.ar      1 ROF         0.0873
     26 CL25       18.5560   -4.7120   27.8740 Cl        1 ROF        -0.0731
     27 H1         24.5914   -8.7847   34.1007 H         1 ROF         0.0269
     28 H2         23.3773   -9.2937   35.3229 H         1 ROF         0.0269
     29 H3         21.9146  -10.3703   33.4216 H         1 ROF         0.0269
     30 H4         23.1287   -9.8614   32.1994 H         1 ROF         0.0269
     31 H5         21.5449   -7.8291   34.0673 H         1 ROF         0.0326
     32 H6         21.0677   -1.4978   30.8685 H         1 ROF         0.0551
     33 H7         21.6776   -1.4686   33.2715 H         1 ROF         0.0524
     34 H8         23.2468   -2.8411   36.4428 H         1 ROF         0.1418
     35 H9         22.5227   -7.1580   31.6570 H         1 ROF         0.0612
     36 H10        24.1066   -7.2511   32.4993 H         1 ROF         0.0612
     37 H11        22.0144   -5.6701   30.6950 H         1 ROF         0.0557
     38 H12        21.3859   -1.7259   28.6580 H         1 ROF         0.2309
     39 H13        20.9489   -1.4366   24.0359 H         1 ROF         0.0777
     40 H14        18.2476   -4.4424   25.1138 H         1 ROF         0.0777
@<TRIPOS>BOND
     1    5    1 2  
     2    3    2 1  
     3    4    2 1  
     4    4    3 1  
     5   16    4 1  
     6    6    5 1  
     7    5   18 am 
     8    6    7 ar 
     9   17    6 ar 
    10    8    7 ar 
    11    9    8 ar 
    12    9   10 1  
    13   14    9 ar 
    14   10   11 1  
    15   11   12 1  
    16   11   13 1  
    17   15   14 1  
    18   14   17 ar 
    19   15   16 1  
    20   18   19 1  
    21   19   20 ar 
    22   19   25 ar 
    23   20   21 1  
    24   20   22 ar 
    25   22   23 ar 
    26   23   24 ar 
    27   24   25 ar 
    28   25   26 1  
    29    2   27 1  
    30    2   28 1  
    31    3   29 1  
    32    3   30 1  
    33    4   31 1  
    34    7   32 1  
    35    8   33 1  
    36   11   34 1  
    37   16   35 1  
    38   16   36 1  
    39   17   37 1  
    40   18   38 1  
    41   22   39 1  
    42   24   40 1  
@<TRIPOS>SUBSTRUCTURE
     1 ROF         1

