### 
### Created by X-TOOL on Mon Sep 10 21:13:02 2018
### 

@<TRIPOS>MOLECULE
3g58_ligand
   41    44     1     0     0
SMALL
GAST_HUCK


@<TRIPOS>ATOM
      1 C1         21.9110   -1.2690   34.0930 C.ar      1 988         0.0414
      2 C2         21.9300   -2.3400   33.2120 C.ar      1 988         0.1374
      3 C3         22.2390   -3.6770   33.7620 C.ar      1 988         0.1799
      4 N4         22.4800   -3.8310   35.0880 N.ar      1 988        -0.1997
      5 C5         22.4470   -2.7720   35.9250 C.ar      1 988         0.0843
      6 C6         22.1580   -1.4870   35.4510 C.ar      1 988         0.0358
      7 C13        21.7050   -2.2000   31.8380 C.ar      1 988         0.0896
      8 C15        21.7340   -3.3020   30.9650 C.ar      1 988         0.1086
      9 C17        22.0150   -4.5840   31.4400 C.ar      1 988         0.0747
     10 C19        22.2690   -4.8040   32.7930 C.ar      1 988         0.1314
     11 C22        22.5460   -6.1650   33.2760 C.ar      1 988         0.0982
     12 C24        23.5710   -6.9250   32.7260 C.ar      1 988         0.0402
     13 C25        23.7950   -8.2130   33.2220 C.ar      1 988         0.1317
     14 C26        22.9800   -8.7000   34.2450 C.ar      1 988         0.0165
     15 C27        21.9560   -7.9310   34.7750 C.ar      1 988        -0.0064
     16 C28        21.7390   -6.6540   34.2900 C.ar      1 988         0.0107
     17 C35        21.4870   -3.0780   29.4820 C.3       1 988         0.0652
     18 C37        20.5770   -4.1160   28.8650 C.ar      1 988         0.0023
     19 C39        19.1950   -3.9860   28.9680 C.ar      1 988        -0.0260
     20 C40        18.3790   -4.9520   28.3900 C.ar      1 988         0.0064
     21 N41        18.9280   -6.0030   27.7490 N.ar      1 988        -0.3033
     22 C42        20.2610   -6.1560   27.6330 C.ar      1 988         0.0064
     23 C43        21.1200   -5.2120   28.1900 C.ar      1 988        -0.0260
     24 N50        24.8100   -9.0480   32.7160 N.2       1 988        -0.2034
     25 O52        25.4840   -8.7320   31.7420 O.2       1 988        -0.4865
     26 O54        25.0380  -10.2720   33.3310 O.2       1 988        -0.4865
     27 H1         21.7057   -0.2684   33.7301 H         1 988         0.1294
     28 H2         22.6474   -2.9192   36.9801 H         1 988         0.1180
     29 H3         22.1255   -0.6537   36.1435 H         1 988         0.1009
     30 H4         21.5026   -1.2142   31.4352 H         1 988         0.1796
     31 H5         22.0360   -5.4186   30.7486 H         1 988         0.1127
     32 H6         24.1858   -6.5266   31.9270 H         1 988         0.1027
     33 H7         23.1510   -9.6980   34.6321 H         1 988         0.1073
     34 H8         21.3288   -8.3280   35.5650 H         1 988         0.0774
     35 H9         20.9443   -6.0412   34.6999 H         1 988         0.0984
     36 H10        22.4541   -3.1059   28.9586 H         1 988         0.0767
     37 H11        21.0271   -2.0875   29.3501 H         1 988         0.0767
     38 H12        18.7605   -3.1425   29.4921 H         1 988         0.0675
     39 H13        17.3009   -4.8599   28.4549 H         1 988         0.0811
     40 H14        20.6649   -7.0132   27.1065 H         1 988         0.0811
     41 H15        22.1943   -5.3259   28.1011 H         1 988         0.0675
@<TRIPOS>BOND
     1    1    2 ar 
     2    1    6 ar 
     3    2    3 ar 
     4    2    7 ar 
     5    3    4 ar 
     6    3   10 ar 
     7    4    5 ar 
     8    5    6 ar 
     9    7    8 ar 
    10    8    9 ar 
    11    8   17 1  
    12    9   10 ar 
    13   10   11 1  
    14   11   12 ar 
    15   11   16 ar 
    16   12   13 ar 
    17   13   14 ar 
    18   13   24 1  
    19   14   15 ar 
    20   15   16 ar 
    21   17   18 1  
    22   18   19 ar 
    23   18   23 ar 
    24   19   20 ar 
    25   20   21 ar 
    26   21   22 ar 
    27   22   23 ar 
    28   24   25 2  
    29   24   26 2  
    30    1   27 1  
    31    5   28 1  
    32    6   29 1  
    33    7   30 1  
    34    9   31 1  
    35   12   32 1  
    36   14   33 1  
    37   15   34 1  
    38   16   35 1  
    39   17   36 1  
    40   17   37 1  
    41   19   38 1  
    42   20   39 1  
    43   22   40 1  
    44   23   41 1  
@<TRIPOS>SUBSTRUCTURE
     1 988         1

