### 
### Created by X-TOOL on Mon Sep 10 21:13:01 2018
### 

@<TRIPOS>MOLECULE
3g5d_ligand
   60    63     1     0     0
SMALL
GAST_HUCK


@<TRIPOS>ATOM
      1 C1          7.8170  -34.4980   -6.8290 C.2       1 1N1        -0.0104
      2 C2          6.8840  -35.4430   -6.6510 C.2       1 1N1         0.1128
      3 C3          5.4680  -35.4380   -7.2070 C.2       1 1N1         0.2261
      4 N6         14.1320  -40.8660   -0.5180 N.4       1 1N1         0.2397
      5 C7          1.3900  -34.2460   -9.7540 C.ar      1 1N1        -0.0834
      6 C8          2.4170  -34.8960  -10.4300 C.ar      1 1N1        -0.0735
      7 C9          3.6950  -34.9810   -9.8630 C.ar      1 1N1        -0.0235
      8 C10         4.8160  -35.6940  -10.6160 C.3       1 1N1        -0.0351
      9 C11        10.0720  -37.5090   -4.1670 C.ar      1 1N1         0.1348
     10 C12        11.2620  -38.0280   -3.6710 C.ar      1 1N1         0.0208
     11 C13        11.2050  -39.2350   -2.9670 C.ar      1 1N1         0.1091
     12 C14         8.8810  -39.3390   -3.3080 C.ar      1 1N1         0.0703
     13 C15         7.5460  -40.0600   -3.0910 C.3       1 1N1        -0.0028
     14 C16        12.1320  -41.2480   -1.8640 C.3       1 1N1         0.0716
     15 C19        13.6830  -39.2940   -2.3820 C.3       1 1N1         0.0716
     16 C20        14.6020  -41.0110    0.8820 C.3       1 1N1        -0.0080
     17 C21        15.6760  -39.9760    1.2470 C.3       1 1N1         0.0841
     18 N          10.0700  -36.3630   -4.8530 N.pl3     1 1N1        -0.2165
     19 C           9.0170  -35.9160   -5.5410 C.2       1 1N1         0.2125
     20 N1          8.9930  -34.7500   -6.2150 N.2       1 1N1        -0.2981
     21 S           7.4970  -36.6730   -5.6880 S.3       1 1N1         0.0354
     22 N2          5.1820  -34.4560   -8.0630 N.am      1 1N1        -0.2384
     23 C4          3.9520  -34.3870   -8.6140 C.ar      1 1N1         0.0817
     24 C5          2.9240  -33.7320   -7.9480 C.ar      1 1N1         0.0531
     25 C6          1.6440  -33.6630   -8.5050 C.ar      1 1N1        -0.0685
     26 CL          3.2530  -33.0200   -6.4030 Cl        1 1N1        -0.0853
     27 O           4.6560  -36.2870   -6.8390 O.2       1 1N1        -0.3859
     28 N3         10.0190  -39.8600   -2.8240 N.ar      1 1N1        -0.2701
     29 N4          8.9190  -38.1740   -3.9710 N.ar      1 1N1        -0.2662
     30 N5         12.3330  -39.8800   -2.4140 N.pl3     1 1N1        -0.2818
     31 C17        12.7390  -41.3330   -0.4810 C.3       1 1N1        -0.0108
     32 C18        14.2660  -39.4650   -0.9800 C.3       1 1N1        -0.0108
     33 O1         16.6660  -40.6120    2.0890 O.3       1 1N1        -0.3898
     34 H1          7.6414  -33.6005   -7.4202 H         1 1N1         0.0652
     35 H2         14.6731  -41.4565   -1.1300 H         1 1N1         0.2036
     36 H3          0.3993  -34.1906  -10.1904 H         1 1N1         0.0471
     37 H4          2.2274  -35.3392  -11.4009 H         1 1N1         0.0515
     38 H5          4.4257  -36.0909  -11.5647 H         1 1N1         0.0362
     39 H6          5.2008  -36.5221  -10.0027 H         1 1N1         0.0362
     40 H7          5.6290  -34.9825  -10.8230 H         1 1N1         0.0362
     41 H8         12.2038  -37.5139   -3.8248 H         1 1N1         0.0519
     42 H9          7.7189  -40.9910   -2.5312 H         1 1N1         0.0460
     43 H10         7.0944  -40.2967   -4.0657 H         1 1N1         0.0460
     44 H11         6.8666  -39.4098   -2.5203 H         1 1N1         0.0460
     45 H12        12.6181  -41.9826   -2.5229 H         1 1N1         0.0577
     46 H13        11.0551  -41.4643   -1.8050 H         1 1N1         0.0577
     47 H14        13.6266  -38.2238   -2.6300 H         1 1N1         0.0577
     48 H15        14.3251  -39.8065   -3.1135 H         1 1N1         0.0577
     49 H16        15.0238  -42.0187    1.0109 H         1 1N1         0.0837
     50 H17        13.7438  -40.8835    1.5582 H         1 1N1         0.0837
     51 H18        15.2133  -39.1376    1.7883 H         1 1N1         0.0610
     52 H19        16.1553  -39.6010    0.3307 H         1 1N1         0.0610
     53 H20        10.9279  -35.7930   -4.8511 H         1 1N1         0.2300
     54 H21         5.8756  -33.7742   -8.2954 H         1 1N1         0.2226
     55 H22         0.8472  -33.1583   -7.9707 H         1 1N1         0.0526
     56 H23        12.1609  -40.7026    0.2106 H         1 1N1         0.0835
     57 H24        12.7130  -42.3767   -0.1346 H         1 1N1         0.0835
     58 H25        15.3314  -39.1921   -0.9975 H         1 1N1         0.0835
     59 H26        13.7294  -38.8035   -0.2839 H         1 1N1         0.0835
     60 H27        17.3360  -39.9798    2.3210 H         1 1N1         0.2096
@<TRIPOS>BOND
     1    2    1 2  
     2    1   20 1  
     3    3    2 1  
     4    2   21 1  
     5   22    3 am 
     6    3   27 2  
     7    4   16 1  
     8   31    4 1  
     9   32    4 1  
    10    6    5 ar 
    11    5   25 ar 
    12    7    6 ar 
    13    7    8 1  
    14   23    7 ar 
    15    9   10 ar 
    16   18    9 1  
    17    9   29 ar 
    18   10   11 ar 
    19   11   28 ar 
    20   11   30 1  
    21   12   13 1  
    22   12   28 ar 
    23   29   12 ar 
    24   30   14 1  
    25   14   31 1  
    26   30   15 1  
    27   15   32 1  
    28   16   17 1  
    29   17   33 1  
    30   19   18 1  
    31   19   20 2  
    32   21   19 1  
    33   22   23 1  
    34   23   24 ar 
    35   24   25 ar 
    36   24   26 1  
    37    1   34 1  
    38    4   35 1  
    39    5   36 1  
    40    6   37 1  
    41    8   38 1  
    42    8   39 1  
    43    8   40 1  
    44   10   41 1  
    45   13   42 1  
    46   13   43 1  
    47   13   44 1  
    48   14   45 1  
    49   14   46 1  
    50   15   47 1  
    51   15   48 1  
    52   16   49 1  
    53   16   50 1  
    54   17   51 1  
    55   17   52 1  
    56   18   53 1  
    57   22   54 1  
    58   25   55 1  
    59   31   56 1  
    60   31   57 1  
    61   32   58 1  
    62   32   59 1  
    63   33   60 1  
@<TRIPOS>SUBSTRUCTURE
     1 1N1         1

