### 
### Created by X-TOOL on Mon Sep 10 21:12:59 2018
### 

@<TRIPOS>MOLECULE
3g5k_ligand
   62    62     1     0     0
SMALL
GAST_HUCK


@<TRIPOS>ATOM
      1 C5         33.3760   12.8130   12.0480 C.3       1 BB2         0.0585
      2 C3         31.9010   12.9620   12.0570 C.2       1 BB2         0.2013
      3 O4         31.0180   12.2060   12.5790 O.2       1 BB2        -0.3968
      4 N1         31.2830   13.8200   11.3500 N.am      1 BB2        -0.1641
      5 O2         29.8530   13.7860   11.4270 O.3       1 BB2        -0.2717
      6 C6         33.7960   11.8750   10.8610 C.3       1 BB2         0.0654
      7 C12        35.1290   11.4290   11.0940 C.2       1 BB2         0.1836
      8 O13        36.0550   12.1480   10.8560 O.2       1 BB2        -0.3965
      9 C7         33.7260   12.4420    9.4330 C.3       1 BB2        -0.0311
     10 C8         34.1960   11.4750    8.2700 C.3       1 BB2        -0.0506
     11 C9         33.3820   10.1690    8.2320 C.3       1 BB2        -0.0532
     12 C10        33.7410    9.3870    6.9400 C.3       1 BB2        -0.0559
     13 C11        35.2730    8.9950    6.8200 C.3       1 BB2        -0.0653
     14 N14        35.4310   10.0850   11.3730 N.am      1 BB2        -0.2650
     15 C15        36.8270    9.5770   11.4930 C.3       1 BB2         0.1332
     16 C16        37.0490    9.1710   12.9770 C.3       1 BB2        -0.0063
     17 C18        36.1330    8.0580   13.3450 C.3       1 BB2        -0.0584
     18 C17        37.1240   10.4620   13.7410 C.3       1 BB2        -0.0584
     19 C19        36.9100    8.3580   10.5090 C.2       1 BB2         0.2047
     20 O20        35.8670    7.7390   10.1260 O.2       1 BB2        -0.3943
     21 N21        38.1140    7.8940   10.1780 N.am      1 BB2        -0.2661
     22 C22        38.3630    6.7580    9.2960 C.3       1 BB2         0.0681
     23 C23        39.3660    8.6750   10.5210 C.3       1 BB2         0.0344
     24 C24        40.5010    8.0330    9.7660 C.3       1 BB2        -0.0303
     25 C25        39.8470    7.0250    8.8090 C.3       1 BB2        -0.0257
     26 C26        38.3570    5.4860   10.1450 C.3       1 BB2         0.0673
     27 O27        38.3070    4.4310    9.1070 O.3       1 BB2        -0.3927
     28 H1         33.7065   12.3714   12.9997 H         1 BB2         0.0529
     29 H2         33.8442   13.8000   11.9195 H         1 BB2         0.0529
     30 H3         31.7668   14.4793   10.7744 H         1 BB2         0.2216
     31 H4         29.5417   12.9351   11.1413 H         1 BB2         0.2490
     32 H5         33.1224   11.0059   10.8907 H         1 BB2         0.0563
     33 H6         34.3592   13.3408    9.3979 H         1 BB2         0.0294
     34 H7         32.6809   12.7217    9.2343 H         1 BB2         0.0294
     35 H8         35.2565   11.2265    8.4233 H         1 BB2         0.0267
     36 H9         34.0764   11.9945    7.3078 H         1 BB2         0.0267
     37 H10        32.3074   10.4040    8.2342 H         1 BB2         0.0265
     38 H11        33.6253    9.5570    9.1130 H         1 BB2         0.0265
     39 H12        33.4763   10.0117    6.0742 H         1 BB2         0.0263
     40 H13        33.1460    8.4620    6.9204 H         1 BB2         0.0263
     41 H14        35.4387    8.4468    5.8808 H         1 BB2         0.0230
     42 H15        35.5563    8.3583    7.6710 H         1 BB2         0.0230
     43 H16        35.8866    9.9079    6.8248 H         1 BB2         0.0230
     44 H17        34.6759    9.4412   11.4964 H         1 BB2         0.1883
     45 H18        37.5580   10.3469   11.2051 H         1 BB2         0.0802
     46 H19        38.0544    8.7321   13.0579 H         1 BB2         0.0343
     47 H20        36.2986    7.7792   14.3961 H         1 BB2         0.0234
     48 H21        36.3328    7.1900   12.6996 H         1 BB2         0.0234
     49 H22        35.0903    8.3819   13.2115 H         1 BB2         0.0234
     50 H23        37.8718   11.1207   13.2752 H         1 BB2         0.0234
     51 H24        37.4145   10.2559   14.7817 H         1 BB2         0.0234
     52 H25        36.1408   10.9549   13.7255 H         1 BB2         0.0234
     53 H26        37.6451    6.6957    8.4649 H         1 BB2         0.0581
     54 H27        39.5569    8.6280   11.6033 H         1 BB2         0.0522
     55 H28        39.2532    9.7252   10.2138 H         1 BB2         0.0522
     56 H29        41.1802    7.5171   10.4606 H         1 BB2         0.0285
     57 H30        41.0620    8.7909    9.1996 H         1 BB2         0.0285
     58 H31        39.8343    7.4365    7.7890 H         1 BB2         0.0289
     59 H32        40.4153    6.0832    8.8174 H         1 BB2         0.0289
     60 H33        37.4744    5.4456   10.8002 H         1 BB2         0.0580
     61 H34        39.2696    5.4062   10.7538 H         1 BB2         0.0580
     62 H35        37.5194    4.5375    8.5865 H         1 BB2         0.2095
@<TRIPOS>BOND
     1    1    2 1  
     2    1    6 1  
     3    2    3 2  
     4    2    4 am 
     5    4    5 1  
     6    6    7 1  
     7    6    9 1  
     8    7    8 2  
     9    7   14 am 
    10    9   10 1  
    11   10   11 1  
    12   11   12 1  
    13   12   13 1  
    14   14   15 1  
    15   15   16 1  
    16   15   19 1  
    17   16   17 1  
    18   16   18 1  
    19   19   20 2  
    20   19   21 am 
    21   21   22 1  
    22   21   23 1  
    23   22   25 1  
    24   22   26 1  
    25   23   24 1  
    26   24   25 1  
    27   26   27 1  
    28    1   28 1  
    29    1   29 1  
    30    4   30 1  
    31    5   31 1  
    32    6   32 1  
    33    9   33 1  
    34    9   34 1  
    35   10   35 1  
    36   10   36 1  
    37   11   37 1  
    38   11   38 1  
    39   12   39 1  
    40   12   40 1  
    41   13   41 1  
    42   13   42 1  
    43   13   43 1  
    44   14   44 1  
    45   15   45 1  
    46   16   46 1  
    47   17   47 1  
    48   17   48 1  
    49   17   49 1  
    50   18   50 1  
    51   18   51 1  
    52   18   52 1  
    53   22   53 1  
    54   23   54 1  
    55   23   55 1  
    56   24   56 1  
    57   24   57 1  
    58   25   58 1  
    59   25   59 1  
    60   26   60 1  
    61   26   61 1  
    62   27   62 1  
@<TRIPOS>SUBSTRUCTURE
     1 BB2         1

