### 
### Created by X-TOOL on Mon Sep 10 21:13:01 2018
### 

@<TRIPOS>MOLECULE
3g6g_ligand
   85    90     1     0     0
SMALL
GAST_HUCK


@<TRIPOS>ATOM
      1 C1         15.3240   38.0830    5.6990 C.ar      1 G6G        -0.0453
      2 C2         15.4190   39.2840    4.9690 C.ar      1 G6G        -0.0415
      3 C3         14.2580   39.9660    4.5920 C.ar      1 G6G         0.0798
      4 C4         13.0210   39.4200    4.9660 C.ar      1 G6G        -0.0415
      5 C5         12.9430   38.2270    5.7040 C.ar      1 G6G        -0.0453
      6 C6         14.0870   37.5440    6.0870 C.ar      1 G6G         0.0578
      7 C8         15.6520   41.4590    3.3330 C.3       1 G6G         0.0570
      8 C10        13.0540   35.8060    7.4560 C.ar      1 G6G         0.2190
      9 C12        10.8710   35.9070    8.3140 C.ar      1 G6G         0.1255
     10 C14        12.1980   34.0130    8.6400 C.ar      1 G6G         0.0831
     11 C41        -1.1130   29.0840    6.8250 C.3       1 G6G         0.0110
     12 C42        -2.4800   29.7700    7.0010 C.3       1 G6G         0.0092
     13 N43        -3.4970   28.7220    6.8850 N.4       1 G6G         0.2405
     14 C46        -4.8520   29.3030    6.7730 C.3       1 G6G        -0.0427
     15 C44        -3.4110   27.6770    7.9390 C.3       1 G6G         0.0092
     16 C45        -2.0120   27.0400    7.9010 C.3       1 G6G         0.0110
     17 N40        -0.9600   28.0990    7.9270 N.4       1 G6G         0.2553
     18 C39         0.4010   27.5160    8.0760 C.3       1 G6G         0.0045
     19 C36         1.4650   28.5640    8.3850 C.ar      1 G6G         0.0061
     20 C37         2.6140   28.5870    7.6000 C.ar      1 G6G        -0.0494
     21 C38         3.5980   29.5380    7.8430 C.ar      1 G6G        -0.0479
     22 C35         1.3150   29.4900    9.4080 C.ar      1 G6G        -0.0494
     23 C34         2.3130   30.4440    9.6550 C.ar      1 G6G        -0.0479
     24 C32         3.4580   30.4650    8.8700 C.ar      1 G6G         0.0485
     25 C31         4.6010   31.4760    9.0740 C.2       1 G6G         0.2255
     26 O33         5.4760   31.5530    8.2070 O.2       1 G6G        -0.3771
     27 N30         4.5620   32.1840   10.2270 N.am      1 G6G        -0.2404
     28 C25         5.4640   33.0670   10.6830 C.ar      1 G6G         0.0494
     29 C24         6.5630   33.5540    9.9370 C.ar      1 G6G        -0.0246
     30 C26         5.3140   33.5010   11.9960 C.ar      1 G6G        -0.0589
     31 C27         6.2260   34.4080   12.5440 C.ar      1 G6G        -0.0821
     32 C28         7.3000   34.9070   11.8070 C.ar      1 G6G        -0.0359
     33 C29         8.2710   35.9050   12.4890 C.3       1 G6G        -0.0401
     34 C23         7.4760   34.4900   10.4740 C.ar      1 G6G         0.0529
     35 N22         8.5240   34.9560    9.7370 N.pl3     1 G6G        -0.2611
     36 C21         8.5540   36.1790    9.1750 C.ar      1 G6G         0.1506
     37 N20         7.4540   36.9420    9.2660 N.ar      1 G6G        -0.2738
     38 C19         7.3760   38.1630    8.7300 C.ar      1 G6G         0.0023
     39 C18         8.4610   38.6890    8.0210 C.ar      1 G6G        -0.0410
     40 C17         9.6290   37.9170    7.8670 C.ar      1 G6G        -0.0349
     41 C16         9.6890   36.6500    8.4670 C.ar      1 G6G         0.0746
     42 N11        11.8930   36.4630    7.6490 N.ar      1 G6G        -0.2234
     43 N13        11.0400   34.6610    8.8170 N.ar      1 G6G        -0.2531
     44 N15        13.2000   34.5610    7.9740 N.ar      1 G6G        -0.2262
     45 N9         14.0740   36.3800    6.7820 N.pl3     1 G6G        -0.2418
     46 O7         14.3030   41.1520    3.8660 O.3       1 G6G        -0.3282
     47 H1         16.2336   37.5590    5.9694 H         1 G6G         0.0515
     48 H2         16.3917   39.6793    4.6996 H         1 G6G         0.0517
     49 H3         12.1074   39.9286    4.6800 H         1 G6G         0.0517
     50 H4         11.9710   37.8336    5.9788 H         1 G6G         0.0515
     51 H5         15.6181   42.4047    2.7721 H         1 G6G         0.0573
     52 H6         15.9755   40.6476    2.6645 H         1 G6G         0.0573
     53 H7         16.3632   41.5526    4.1669 H         1 G6G         0.0573
     54 H8         12.3167   33.0173    9.0517 H         1 G6G         0.1173
     55 H9         -0.3083   29.8322    6.8763 H         1 G6G         0.0868
     56 H10        -1.0738   28.5693    5.8537 H         1 G6G         0.0868
     57 H11        -2.6268   30.5285    6.2180 H         1 G6G         0.0868
     58 H12        -2.5395   30.2477    7.9901 H         1 G6G         0.0868
     59 H13        -3.3156   28.2502    6.0129 H         1 G6G         0.2035
     60 H14        -5.5920   28.4937    6.6876 H         1 G6G         0.0778
     61 H15        -4.9039   29.9430    5.8799 H         1 G6G         0.0778
     62 H16        -5.0682   29.9045    7.6682 H         1 G6G         0.0778
     63 H17        -4.1726   26.9048    7.7555 H         1 G6G         0.0868
     64 H18        -3.5815   28.1333    8.9253 H         1 G6G         0.0868
     65 H19        -1.9078   26.4476    6.9801 H         1 G6G         0.0868
     66 H20        -1.8881   26.3839    8.7751 H         1 G6G         0.0868
     67 H21        -1.1187   28.6240    8.7727 H         1 G6G         0.2053
     68 H22         0.6702   27.0087    7.1378 H         1 G6G         0.0991
     69 H23         0.3812   26.7835    8.8964 H         1 G6G         0.0991
     70 H24         2.7411   27.8652    6.8013 H         1 G6G         0.0572
     71 H25         4.4871   29.5574    7.2232 H         1 G6G         0.0652
     72 H26         0.4205   29.4758   10.0202 H         1 G6G         0.0572
     73 H27         2.1907   31.1632   10.4568 H         1 G6G         0.0652
     74 H28         3.7641   32.0305   10.8099 H         1 G6G         0.2227
     75 H29         6.7093   33.1988    8.9234 H         1 G6G         0.0398
     76 H30         4.4883   33.1352   12.5956 H         1 G6G         0.0394
     77 H31         6.0948   34.7324   13.5700 H         1 G6G         0.0490
     78 H32         7.9431   36.0870   13.5231 H         1 G6G         0.0342
     79 H33         8.2723   36.8538   11.9324 H         1 G6G         0.0342
     80 H34         9.2865   35.4823   12.4954 H         1 G6G         0.0342
     81 H35         9.3374   34.3385    9.6028 H         1 G6G         0.2138
     82 H36         6.4702   38.7473    8.8447 H         1 G6G         0.0825
     83 H37         8.4034   39.6834    7.5933 H         1 G6G         0.0617
     84 H38        10.4679   38.2955    7.2943 H         1 G6G         0.0755
     85 H39        14.9643   35.8623    6.7982 H         1 G6G         0.2187
@<TRIPOS>BOND
     1    1    2 ar 
     2    6    1 ar 
     3    2    3 ar 
     4    4    3 ar 
     5    3   46 1  
     6    5    4 ar 
     7    6    5 ar 
     8   45    6 1  
     9   46    7 1  
    10   42    8 ar 
    11    8   44 ar 
    12    8   45 1  
    13   41    9 1  
    14    9   42 ar 
    15    9   43 ar 
    16   43   10 ar 
    17   10   44 ar 
    18   11   12 1  
    19   17   11 1  
    20   12   13 1  
    21   13   14 1  
    22   15   13 1  
    23   16   15 1  
    24   17   16 1  
    25   18   17 1  
    26   19   18 1  
    27   20   19 ar 
    28   22   19 ar 
    29   21   20 ar 
    30   24   21 ar 
    31   23   22 ar 
    32   24   23 ar 
    33   25   24 1  
    34   25   26 2  
    35   27   25 am 
    36   28   27 1  
    37   29   28 ar 
    38   28   30 ar 
    39   34   29 ar 
    40   31   30 ar 
    41   32   31 ar 
    42   32   33 1  
    43   34   32 ar 
    44   35   34 1  
    45   36   35 1  
    46   36   37 ar 
    47   36   41 ar 
    48   37   38 ar 
    49   38   39 ar 
    50   39   40 ar 
    51   40   41 ar 
    52    1   47 1  
    53    2   48 1  
    54    4   49 1  
    55    5   50 1  
    56    7   51 1  
    57    7   52 1  
    58    7   53 1  
    59   10   54 1  
    60   11   55 1  
    61   11   56 1  
    62   12   57 1  
    63   12   58 1  
    64   13   59 1  
    65   14   60 1  
    66   14   61 1  
    67   14   62 1  
    68   15   63 1  
    69   15   64 1  
    70   16   65 1  
    71   16   66 1  
    72   17   67 1  
    73   18   68 1  
    74   18   69 1  
    75   20   70 1  
    76   21   71 1  
    77   22   72 1  
    78   23   73 1  
    79   27   74 1  
    80   29   75 1  
    81   30   76 1  
    82   31   77 1  
    83   33   78 1  
    84   33   79 1  
    85   33   80 1  
    86   35   81 1  
    87   38   82 1  
    88   39   83 1  
    89   40   84 1  
    90   45   85 1  
@<TRIPOS>SUBSTRUCTURE
     1 G6G         1

