### 
### Created by X-TOOL on Mon Sep 10 21:13:01 2018
### 

@<TRIPOS>MOLECULE
3g6h_ligand
   74    78     1     0     0
SMALL
GAST_HUCK


@<TRIPOS>ATOM
      1 CBQ        -5.1300  -39.2600  -27.4970 C.3       1 G6H         0.0562
      2 OBP        -3.9640  -40.0300  -27.1470 O.3       1 G6H        -0.3305
      3 CAB        -2.7750  -39.5030  -27.5970 C.ar      1 G6H         0.1030
      4 CAC        -2.7560  -38.3830  -28.4490 C.ar      1 G6H        -0.0279
      5 CAA        -1.5710  -40.1080  -27.1790 C.ar      1 G6H         0.1355
      6 OBO        -1.6250  -41.1880  -26.3340 O.3       1 G6H        -0.3365
      7 CBR        -2.1110  -40.8130  -24.9710 C.3       1 G6H         0.0518
      8 CAF        -0.3410  -39.5860  -27.6070 C.ar      1 G6H         0.1030
      9 OBS         0.8930  -40.1230  -27.2520 O.3       1 G6H        -0.3305
     10 CBT         1.1580  -40.6590  -25.9040 C.3       1 G6H         0.0562
     11 CAE        -0.3600  -38.4700  -28.4680 C.ar      1 G6H        -0.0279
     12 CAD        -1.5450  -37.8480  -28.8950 C.ar      1 G6H         0.0408
     13 NAG        -1.4840  -36.7870  -29.7370 N.pl3     1 G6H        -0.2461
     14 CAH        -2.5120  -36.2160  -30.4050 C.ar      1 G6H         0.2189
     15 NAI        -3.7360  -36.7930  -30.5080 N.ar      1 G6H        -0.2233
     16 NAM        -2.3320  -35.0230  -30.9900 N.ar      1 G6H        -0.2261
     17 CAL        -3.3290  -34.4200  -31.6350 C.ar      1 G6H         0.0831
     18 NAK        -4.5330  -34.9850  -31.7420 N.ar      1 G6H        -0.2530
     19 CAJ        -4.7620  -36.2010  -31.1790 C.ar      1 G6H         0.1255
     20 CAN        -6.0230  -36.8520  -31.2220 C.ar      1 G6H         0.0746
     21 CAO        -6.1370  -38.0650  -30.5390 C.ar      1 G6H        -0.0349
     22 CAP        -7.3480  -38.7710  -30.5160 C.ar      1 G6H        -0.0410
     23 CAQ        -8.4580  -38.2390  -31.1750 C.ar      1 G6H         0.0023
     24 NAR        -8.3440  -37.0790  -31.8150 N.ar      1 G6H        -0.2738
     25 CAS        -7.1920  -36.3630  -31.8650 C.ar      1 G6H         0.1506
     26 NAT        -7.2260  -35.1950  -32.5410 N.pl3     1 G6H        -0.2610
     27 CAU        -8.3060  -34.8060  -33.2840 C.ar      1 G6H         0.0529
     28 CAV        -9.2640  -33.8950  -32.7680 C.ar      1 G6H        -0.0245
     29 CAZ        -8.4820  -35.2910  -34.5980 C.ar      1 G6H        -0.0359
     30 CBA        -7.5090  -36.2760  -35.2740 C.3       1 G6H        -0.0401
     31 CAY        -9.5730  -34.8750  -35.3490 C.ar      1 G6H        -0.0821
     32 CAX       -10.5120  -33.9960  -34.8270 C.ar      1 G6H        -0.0588
     33 CAW       -10.3850  -33.4980  -33.5390 C.ar      1 G6H         0.0496
     34 NBB       -11.3450  -32.6300  -33.1780 N.am      1 G6H        -0.2388
     35 CBC       -11.4990  -31.9970  -32.0140 C.2       1 G6H         0.2376
     36 OBD       -10.8300  -32.2120  -31.0110 O.2       1 G6H        -0.3731
     37 CBE       -12.6630  -30.9910  -31.9410 C.ar      1 G6H         0.0849
     38 CBJ       -12.5520  -29.8780  -31.1070 C.ar      1 G6H        -0.0107
     39 CBF       -13.8260  -31.1640  -32.6870 C.ar      1 G6H        -0.0141
     40 CBG       -14.8650  -30.2310  -32.5970 C.ar      1 G6H        -0.0272
     41 CBH       -14.7420  -29.1290  -31.7510 C.ar      1 G6H        -0.0278
     42 CBI       -13.5840  -28.9470  -30.9990 C.ar      1 G6H         0.0540
     43 CBK       -13.4240  -27.7320  -30.0530 C.3       1 G6H         0.3783
     44 FBL       -13.4520  -28.1260  -28.7880 F         1 G6H        -0.2197
     45 FBM       -14.4160  -26.8710  -30.1790 F         1 G6H        -0.2197
     46 FBN       -12.2680  -27.1190  -30.3070 F         1 G6H        -0.2197
     47 H1         -6.0286  -39.7536  -27.0983 H         1 G6H         0.0572
     48 H2         -5.2067  -39.1878  -28.5919 H         1 G6H         0.0572
     49 H3         -5.0453  -38.2507  -27.0680 H         1 G6H         0.0572
     50 H4         -3.6902  -37.9310  -28.7622 H         1 G6H         0.0349
     51 H5         -2.1371  -41.7080  -24.3320 H         1 G6H         0.0564
     52 H6         -3.1223  -40.3869  -25.0466 H         1 G6H         0.0564
     53 H7         -1.4312  -40.0683  -24.5313 H         1 G6H         0.0564
     54 H8          2.1931  -41.0278  -25.8530 H         1 G6H         0.0572
     55 H9          0.4634  -41.4860  -25.6951 H         1 G6H         0.0572
     56 H10         1.0153  -39.8631  -25.1583 H         1 G6H         0.0572
     57 H11         0.5859  -38.0724  -28.8176 H         1 G6H         0.0349
     58 H12        -0.5535  -36.3705  -29.8839 H         1 G6H         0.2186
     59 H13        -3.1584  -33.4479  -32.0833 H         1 G6H         0.1173
     60 H14        -5.2753  -38.4670  -30.0184 H         1 G6H         0.0755
     61 H15        -7.4216  -39.7178  -29.9933 H         1 G6H         0.0617
     62 H16        -9.4046  -38.7671  -31.1650 H         1 G6H         0.0825
     63 H17        -6.4066  -34.5726  -32.4953 H         1 G6H         0.2138
     64 H18        -9.1363  -33.4964  -31.7681 H         1 G6H         0.0398
     65 H19        -7.8627  -36.5010  -36.2910 H         1 G6H         0.0342
     66 H20        -7.4624  -37.2057  -34.6880 H         1 G6H         0.0342
     67 H21        -6.5073  -35.8245  -35.3257 H         1 G6H         0.0342
     68 H22        -9.6938  -35.2433  -36.3614 H         1 G6H         0.0490
     69 H23       -11.3571  -33.6944  -35.4352 H         1 G6H         0.0394
     70 H24       -12.0353  -32.4324  -33.8740 H         1 G6H         0.2229
     71 H25       -11.6448  -29.7343  -30.5313 H         1 G6H         0.0912
     72 H26       -13.9268  -32.0239  -33.3393 H         1 G6H         0.0902
     73 H27       -15.7658  -30.3648  -33.1850 H         1 G6H         0.0708
     74 H28       -15.5511  -28.4112  -31.6785 H         1 G6H         0.0883
@<TRIPOS>BOND
     1    1    2 1  
     2    2    3 1  
     3    3    4 ar 
     4    3    5 ar 
     5    4   12 ar 
     6    5    6 1  
     7    5    8 ar 
     8    6    7 1  
     9    8    9 1  
    10    8   11 ar 
    11    9   10 1  
    12   11   12 ar 
    13   12   13 1  
    14   13   14 1  
    15   14   15 ar 
    16   14   16 ar 
    17   15   19 ar 
    18   16   17 ar 
    19   17   18 ar 
    20   18   19 ar 
    21   19   20 1  
    22   20   21 ar 
    23   20   25 ar 
    24   21   22 ar 
    25   22   23 ar 
    26   23   24 ar 
    27   24   25 ar 
    28   25   26 1  
    29   26   27 1  
    30   27   28 ar 
    31   27   29 ar 
    32   28   33 ar 
    33   29   30 1  
    34   29   31 ar 
    35   31   32 ar 
    36   32   33 ar 
    37   33   34 1  
    38   34   35 am 
    39   35   36 2  
    40   35   37 1  
    41   37   38 ar 
    42   37   39 ar 
    43   38   42 ar 
    44   39   40 ar 
    45   40   41 ar 
    46   41   42 ar 
    47   42   43 1  
    48   43   44 1  
    49   43   45 1  
    50   43   46 1  
    51    1   47 1  
    52    1   48 1  
    53    1   49 1  
    54    4   50 1  
    55    7   51 1  
    56    7   52 1  
    57    7   53 1  
    58   10   54 1  
    59   10   55 1  
    60   10   56 1  
    61   11   57 1  
    62   13   58 1  
    63   17   59 1  
    64   21   60 1  
    65   22   61 1  
    66   23   62 1  
    67   26   63 1  
    68   28   64 1  
    69   30   65 1  
    70   30   66 1  
    71   30   67 1  
    72   31   68 1  
    73   32   69 1  
    74   34   70 1  
    75   38   71 1  
    76   39   72 1  
    77   40   73 1  
    78   41   74 1  
@<TRIPOS>SUBSTRUCTURE
     1 G6H         1

