### 
### Created by X-TOOL on Mon Sep 10 21:13:03 2018
### 

@<TRIPOS>MOLECULE
3g6m_ligand
   24    25     1     0     0
SMALL
GAST_HUCK


@<TRIPOS>ATOM
      1 N1         15.2600    5.9240    2.8320 N.am      1 CFF        -0.1740
      2 C2         14.1060    6.2370    2.1590 C.2       1 CFF         0.3177
      3 C10        16.5670    6.1750    2.1950 C.3       1 CFF         0.0477
      4 C6         15.2370    5.3900    4.0810 C.2       1 CFF         0.2297
      5 N3         12.8500    6.0490    2.6570 N.am      1 CFF        -0.2025
      6 O11        14.1940    6.7360    1.0040 O.2       1 CFF        -0.3873
      7 C12        11.6640    6.4170    1.8610 C.3       1 CFF         0.0446
      8 C4         12.7160    5.5360    3.8810 C.2       1 CFF         0.1377
      9 C5         13.8880    5.1700    4.6660 C.2       1 CFF         0.1624
     10 N9         11.6280    5.2440    4.6210 N.2       1 CFF        -0.2859
     11 O13        16.2790    5.0880    4.7050 O.2       1 CFF        -0.4007
     12 N7         13.4500    4.6840    5.8340 N.pl3     1 CFF        -0.2541
     13 C8         12.0960    4.7370    5.7970 C.2       1 CFF         0.0975
     14 C14        14.2420    4.1800    6.9650 C.3       1 CFF         0.0424
     15 H1         16.4108    6.6055    1.1949 H         1 CFF         0.0539
     16 H2         17.1187    5.2277    2.1043 H         1 CFF         0.0539
     17 H3         17.1459    6.8790    2.8108 H         1 CFF         0.0539
     18 H4         11.9853    6.8187    0.8887 H         1 CFF         0.0548
     19 H5         11.0835    7.1806    2.3994 H         1 CFF         0.0548
     20 H6         11.0388    5.5262    1.7012 H         1 CFF         0.0548
     21 H7         11.4544    4.4113    6.6144 H         1 CFF         0.1263
     22 H8         15.3128    4.2532    6.7242 H         1 CFF         0.0575
     23 H9         13.9803    3.1289    7.1564 H         1 CFF         0.0575
     24 H10        14.0257    4.7807    7.8607 H         1 CFF         0.0575
@<TRIPOS>BOND
     1    1    2 am 
     2    1    3 1  
     3    1    4 am 
     4    2    5 am 
     5    2    6 2  
     6    4    9 1  
     7    4   11 2  
     8    5    7 1  
     9    5    8 1  
    10    8    9 2  
    11    8   10 1  
    12    9   12 1  
    13   10   13 2  
    14   12   13 1  
    15   12   14 1  
    16    3   15 1  
    17    3   16 1  
    18    3   17 1  
    19    7   18 1  
    20    7   19 1  
    21    7   20 1  
    22   13   21 1  
    23   14   22 1  
    24   14   23 1  
    25   14   24 1  
@<TRIPOS>SUBSTRUCTURE
     1 CFF         1

