### 
### Created by X-TOOL on Mon Sep 10 21:13:00 2018
### 

@<TRIPOS>MOLECULE
3g6z_ligand
   84    89     1     0     0
SMALL
GAST_HUCK


@<TRIPOS>ATOM
      1 O26        -4.6560  -16.7670   -9.8910 O.2       1 A7T        -0.3976
      2 C23        -5.5920  -16.5480  -10.6630 C.2       1 A7T         0.1955
      3 N27        -6.2480  -15.3740  -10.5730 N.am      1 A7T        -0.2636
      4 C32        -5.9410  -14.4040   -9.5210 C.3       1 A7T         0.0624
      5 C36        -4.7480  -13.4890   -9.6020 C.ar      1 A7T        -0.0258
      6 C38        -3.8650  -13.4990  -10.6790 C.ar      1 A7T        -0.0718
      7 C41        -2.7960  -12.5950  -10.6750 C.ar      1 A7T        -0.0819
      8 C42        -2.6240  -11.7060   -9.6130 C.ar      1 A7T        -0.0739
      9 C39        -3.5250  -11.6840   -8.5470 C.ar      1 A7T        -0.0508
     10 C43        -3.3500  -10.7130   -7.3940 C.3       1 A7T        -0.0353
     11 C37        -4.5810  -12.5780   -8.5480 C.ar      1 A7T        -0.0408
     12 C40        -5.5460  -12.5660   -7.3910 C.3       1 A7T        -0.0363
     13 C31        -7.4260  -14.9300  -11.3520 C.3       1 A7T         0.0458
     14 C35        -7.1820  -15.0560  -12.8490 C.3       1 A7T        -0.0276
     15 C34        -6.9970  -13.7070  -12.1650 C.3       1 A7T        -0.0276
     16 C21        -5.9460  -17.5960  -11.6450 C.2       1 A7T         0.0721
     17 C24        -4.9410  -18.0100  -12.6900 C.3       1 A7T         0.0515
     18 N28        -5.6170  -18.6720  -13.8000 N.4       1 A7T         0.2502
     19 C29        -3.9340  -18.9970  -12.1030 C.3       1 A7T         0.0176
     20 N33        -4.5860  -20.2900  -11.8880 N.4       1 A7T         0.2363
     21 C30        -5.5460  -20.8770  -12.8170 C.3       1 A7T         0.0126
     22 C25        -6.4260  -19.8200  -13.4710 C.3       1 A7T         0.0288
     23 C22        -7.5300  -19.3980  -12.5040 C.3       1 A7T         0.0275
     24 C20        -7.1420  -18.2440  -11.5760 C.2       1 A7T        -0.0208
     25 C19        -8.1940  -17.8670  -10.5630 C.ar      1 A7T        -0.0285
     26 C17        -9.4900  -17.6670  -11.0130 C.ar      1 A7T        -0.0614
     27 C15       -10.4970  -17.3120  -10.1300 C.ar      1 A7T        -0.0310
     28 C18        -7.8940  -17.6970   -9.1990 C.ar      1 A7T        -0.0614
     29 C16        -8.9080  -17.3370   -8.3070 C.ar      1 A7T        -0.0310
     30 C14       -10.2060  -17.1460   -8.7780 C.ar      1 A7T         0.0935
     31 O13       -11.1970  -16.7980   -7.9080 O.3       1 A7T        -0.3138
     32 C12       -12.4270  -16.2250   -8.3530 C.3       1 A7T         0.0986
     33 C8        -12.6610  -14.9330   -7.5880 C.3       1 A7T         0.0972
     34 O5        -12.4710  -13.8180   -8.4510 O.3       1 A7T        -0.3179
     35 C3        -12.0100  -12.6340   -7.9500 C.ar      1 A7T         0.1129
     36 C6        -10.5680  -12.2990   -7.9700 C.ar      1 A7T         0.0623
     37 CL9        -9.3570  -13.4410   -8.6520 Cl        1 A7T        -0.0805
     38 C10       -10.1670  -11.0750   -7.4380 C.ar      1 A7T        -0.0548
     39 C7        -11.0840  -10.1680   -6.9030 C.ar      1 A7T        -0.0557
     40 C11       -10.6180   -8.8480   -6.3400 C.3       1 A7T        -0.0362
     41 C4        -12.4380  -10.4440   -6.8730 C.ar      1 A7T        -0.0548
     42 C2        -12.9410  -11.6330   -7.3690 C.ar      1 A7T         0.0623
     43 CL1       -14.7140  -11.9170   -7.3080 Cl        1 A7T        -0.0805
     44 H1         -5.8221  -14.9832   -8.5934 H         1 A7T         0.0667
     45 H2         -6.8232  -13.7525   -9.4360 H         1 A7T         0.0667
     46 H3         -4.0024  -14.1912  -11.5019 H         1 A7T         0.0482
     47 H4         -2.0965  -12.5855  -11.5031 H         1 A7T         0.0525
     48 H5         -1.7809  -11.0246   -9.6160 H         1 A7T         0.0482
     49 H6         -2.4619  -10.0888   -7.5719 H         1 A7T         0.0374
     50 H7         -3.2212  -11.2753   -6.4574 H         1 A7T         0.0374
     51 H8         -4.2399  -10.0710   -7.3169 H         1 A7T         0.0374
     52 H9         -6.3183  -13.3330   -7.5498 H         1 A7T         0.0361
     53 H10        -6.0211  -11.5765   -7.3200 H         1 A7T         0.0361
     54 H11        -5.0032  -12.7799   -6.4585 H         1 A7T         0.0361
     55 H12        -8.4030  -15.0707  -10.8665 H         1 A7T         0.0558
     56 H13        -8.0296  -15.2136  -13.5322 H         1 A7T         0.0288
     57 H14        -6.3058  -15.6093  -13.2179 H         1 A7T         0.0288
     58 H15        -5.9879  -13.2878  -12.0381 H         1 A7T         0.0288
     59 H16        -7.7117  -12.8921  -12.3524 H         1 A7T         0.0288
     60 H17        -4.4127  -17.1175  -13.0565 H         1 A7T         0.1032
     61 H18        -4.9104  -18.9728  -14.4529 H         1 A7T         0.2036
     62 H19        -6.2159  -17.9925  -14.2424 H         1 A7T         0.2036
     63 H20        -3.5593  -18.6114  -11.1434 H         1 A7T         0.0891
     64 H21        -3.0934  -19.1220  -12.8013 H         1 A7T         0.0891
     65 H22        -5.0697  -20.2106  -11.0072 H         1 A7T         0.2020
     66 H23        -3.8402  -20.9627  -11.8024 H         1 A7T         0.2020
     67 H24        -6.1868  -21.5821  -12.2673 H         1 A7T         0.0872
     68 H25        -4.9962  -21.4167  -13.6021 H         1 A7T         0.0872
     69 H26        -6.8764  -20.2304  -14.3868 H         1 A7T         0.0928
     70 H27        -7.7954  -20.2662  -11.8829 H         1 A7T         0.0481
     71 H28        -8.4053  -19.0876  -13.0935 H         1 A7T         0.0481
     72 H29        -9.7177  -17.7895  -12.0657 H         1 A7T         0.0600
     73 H30       -11.5086  -17.1639  -10.4904 H         1 A7T         0.0550
     74 H31        -6.8813  -17.8445   -8.8416 H         1 A7T         0.0600
     75 H32        -8.6861  -17.2069   -7.2539 H         1 A7T         0.0550
     76 H33       -13.2535  -16.9249   -8.1609 H         1 A7T         0.0642
     77 H34       -12.3692  -16.0128   -9.4308 H         1 A7T         0.0642
     78 H35       -11.9505  -14.8712   -6.7505 H         1 A7T         0.0639
     79 H36       -13.6895  -14.9212   -7.1980 H         1 A7T         0.0639
     80 H37        -9.1135  -10.8198   -7.4395 H         1 A7T         0.0537
     81 H38       -11.4848   -8.2806   -5.9702 H         1 A7T         0.0370
     82 H39       -10.1116   -8.2715   -7.1281 H         1 A7T         0.0370
     83 H40        -9.9180   -9.0295   -5.5112 H         1 A7T         0.0370
     84 H41       -13.1196   -9.7136   -6.4521 H         1 A7T         0.0537
@<TRIPOS>BOND
     1    1    2 2  
     2    2    3 am 
     3    2   16 1  
     4    3    4 1  
     5    3   13 1  
     6    4    5 1  
     7    5    6 ar 
     8    5   11 ar 
     9    6    7 ar 
    10    7    8 ar 
    11    8    9 ar 
    12    9   10 1  
    13    9   11 ar 
    14   11   12 1  
    15   13   14 1  
    16   13   15 1  
    17   14   15 1  
    18   16   17 1  
    19   16   24 2  
    20   17   18 1  
    21   17   19 1  
    22   18   22 1  
    23   19   20 1  
    24   20   21 1  
    25   21   22 1  
    26   22   23 1  
    27   23   24 1  
    28   24   25 1  
    29   25   26 ar 
    30   25   28 ar 
    31   26   27 ar 
    32   27   30 ar 
    33   28   29 ar 
    34   29   30 ar 
    35   30   31 1  
    36   31   32 1  
    37   32   33 1  
    38   33   34 1  
    39   34   35 1  
    40   35   36 ar 
    41   35   42 ar 
    42   36   37 1  
    43   36   38 ar 
    44   38   39 ar 
    45   39   40 1  
    46   39   41 ar 
    47   41   42 ar 
    48   42   43 1  
    49    4   44 1  
    50    4   45 1  
    51    6   46 1  
    52    7   47 1  
    53    8   48 1  
    54   10   49 1  
    55   10   50 1  
    56   10   51 1  
    57   12   52 1  
    58   12   53 1  
    59   12   54 1  
    60   13   55 1  
    61   14   56 1  
    62   14   57 1  
    63   15   58 1  
    64   15   59 1  
    65   17   60 1  
    66   18   61 1  
    67   18   62 1  
    68   19   63 1  
    69   19   64 1  
    70   20   65 1  
    71   20   66 1  
    72   21   67 1  
    73   21   68 1  
    74   22   69 1  
    75   23   70 1  
    76   23   71 1  
    77   26   72 1  
    78   27   73 1  
    79   28   74 1  
    80   29   75 1  
    81   32   76 1  
    82   32   77 1  
    83   33   78 1  
    84   33   79 1  
    85   38   80 1  
    86   40   81 1  
    87   40   82 1  
    88   40   83 1  
    89   41   84 1  
@<TRIPOS>SUBSTRUCTURE
     1 A7T         1

