### 
### Created by X-TOOL on Mon Sep 10 21:13:00 2018
### 

@<TRIPOS>MOLECULE
3g70_ligand
   75    80     1     0     0
SMALL
GAST_HUCK


@<TRIPOS>ATOM
      1 CLA        -2.3890    5.6060    3.9480 Cl        1 A5T        -0.0719
      2 C36        -0.6840    5.6200    4.4970 C.ar      1 A5T         0.0478
      3 C33         0.3190    5.4440    3.5600 C.ar      1 A5T         0.0569
      4 CLR3       -0.1150    5.1910    1.8440 Cl        1 A5T        -0.0765
      5 C38        -0.3540    5.8280    5.8400 C.ar      1 A5T        -0.0543
      6 C37         0.9810    5.8310    6.2450 C.ar      1 A5T        -0.0678
      7 C34         1.9830    5.6330    5.2910 C.ar      1 A5T        -0.0577
      8 C32         1.6550    5.4450    3.9530 C.ar      1 A5T        -0.0065
      9 C29         2.6910    5.2330    2.8780 C.3       1 A5T         0.0670
     10 N26         4.0510    5.6960    3.1270 N.am      1 A5T        -0.2616
     11 C28         4.2690    7.0630    2.5970 C.3       1 A5T         0.0461
     12 C31         3.4040    8.0690    3.3630 C.3       1 A5T        -0.0276
     13 C30         4.8810    7.9540    3.6740 C.3       1 A5T        -0.0276
     14 C22         4.9680    4.8770    3.6990 C.2       1 A5T         0.1988
     15 O25         4.6410    3.7320    4.0830 O.2       1 A5T        -0.3957
     16 C20         6.3890    5.2640    3.9070 C.2       1 A5T         0.0761
     17 C23         6.8960    5.2820    5.3310 C.3       1 A5T         0.0534
     18 N27         8.0530    6.1670    5.4800 N.4       1 A5T         0.2509
     19 C24         9.1410    5.7470    4.6250 C.3       1 A5T         0.0289
     20 C21         8.7220    5.8900    3.1520 C.3       1 A5T         0.0282
     21 C           7.2750    3.8680    5.7810 C.3       1 A5T         0.0182
     22 NB          8.3870    3.3880    4.9600 N.4       1 A5T         0.2364
     23 CA          9.5380    4.3010    4.9800 C.3       1 A5T         0.0126
     24 C19         7.2500    5.5370    2.8780 C.2       1 A5T        -0.0164
     25 C18         6.8720    5.5410    1.4050 C.ar      1 A5T        -0.0235
     26 C16         6.0470    4.5670    0.8310 C.ar      1 A5T        -0.0588
     27 C14         5.7350    4.6150   -0.5280 C.ar      1 A5T        -0.0614
     28 C17         7.3920    6.5440    0.5780 C.ar      1 A5T        -0.0588
     29 C15         7.1070    6.5900   -0.7810 C.ar      1 A5T        -0.0614
     30 C13         6.2780    5.6180   -1.3380 C.ar      1 A5T        -0.0406
     31 C12         5.9510    5.6690   -2.7840 C.2       1 A5T        -0.0638
     32 C10         4.7380    6.0670   -3.1990 C.2       1 A5T        -0.0433
     33 C8          3.8590    6.9630   -2.3650 C.3       1 A5T         0.1027
     34 O5          3.2180    8.0010   -3.1320 O.3       1 A5T        -0.3024
     35 C3          1.8610    8.0410   -2.8180 C.ar      1 A5T         0.1409
     36 C6          1.3300    7.8870   -1.5340 C.ar      1 A5T         0.1561
     37 F1          2.1240    7.6740   -0.4840 F         1 A5T        -0.1935
     38 C2          0.9770    8.2530   -3.8470 C.ar      1 A5T         0.0993
     39 CL11        1.7120    8.4620   -5.4750 Cl        1 A5T        -0.0816
     40 C4         -0.3990    8.3000   -3.6140 C.ar      1 A5T         0.1339
     41 F2         -1.2690    8.5130   -4.6110 F         1 A5T        -0.1889
     42 C7         -0.9170    8.1460   -2.3410 C.ar      1 A5T        -0.0405
     43 C9         -0.0420    7.9250   -1.2960 C.ar      1 A5T        -0.0383
     44 H1         -1.1394    5.9877    6.5699 H         1 A5T         0.0565
     45 H2          1.2380    5.9850    7.2868 H         1 A5T         0.0601
     46 H3          3.0231    5.6260    5.5963 H         1 A5T         0.0559
     47 H4          2.3324    5.7474    1.9742 H         1 A5T         0.0686
     48 H5          2.7453    4.1511    2.6870 H         1 A5T         0.0686
     49 H6          4.5027    7.1219    1.5237 H         1 A5T         0.0558
     50 H7          2.6598    7.7124    4.0903 H         1 A5T         0.0288
     51 H8          3.0180    8.9633    2.8519 H         1 A5T         0.0288
     52 H9          5.5662    8.7662    3.3898 H         1 A5T         0.0288
     53 H10         5.2081    7.5153    4.6282 H         1 A5T         0.0288
     54 H11         6.0885    5.6531    5.9792 H         1 A5T         0.1042
     55 H12         8.3615    6.1474    6.4394 H         1 A5T         0.2037
     56 H13         7.7834    7.1063    5.2328 H         1 A5T         0.2037
     57 H14        10.0084    6.3994    4.8037 H         1 A5T         0.0928
     58 H15         9.3548    5.2239    2.5471 H         1 A5T         0.0480
     59 H16         8.8894    6.9331    2.8454 H         1 A5T         0.0480
     60 H17         6.4109    3.1983    5.6591 H         1 A5T         0.0892
     61 H18         7.5784    3.8864    6.8381 H         1 A5T         0.0892
     62 H19         8.0680    3.2913    4.0087 H         1 A5T         0.2020
     63 H20         8.6816    2.4893    5.3087 H         1 A5T         0.2020
     64 H21         9.9795    4.2921    5.9875 H         1 A5T         0.0872
     65 H22        10.2821    3.9488    4.2504 H         1 A5T         0.0872
     66 H23         5.6475    3.7694    1.4469 H         1 A5T         0.0608
     67 H24         5.0706    3.8737   -0.9570 H         1 A5T         0.0580
     68 H25         8.0334    7.3041    1.0091 H         1 A5T         0.0608
     69 H26         7.5252    7.3740   -1.4018 H         1 A5T         0.0580
     70 H27         6.7031    5.3804   -3.5168 H         1 A5T         0.0436
     71 H28         4.3773    5.7314   -4.1702 H         1 A5T         0.0764
     72 H29         4.4777    7.4343   -1.5871 H         1 A5T         0.0820
     73 H30         3.0806    6.3468   -1.8912 H         1 A5T         0.0820
     74 H31        -1.9858    8.1976   -2.1675 H         1 A5T         0.0501
     75 H32        -0.4224    7.7812   -0.2912 H         1 A5T         0.0567
@<TRIPOS>BOND
     1    1    2 1  
     2    2    3 ar 
     3    2    5 ar 
     4    3    4 1  
     5    3    8 ar 
     6    5    6 ar 
     7    6    7 ar 
     8    7    8 ar 
     9    8    9 1  
    10    9   10 1  
    11   10   11 1  
    12   10   14 am 
    13   11   12 1  
    14   11   13 1  
    15   12   13 1  
    16   14   15 2  
    17   14   16 1  
    18   16   17 1  
    19   16   24 2  
    20   17   18 1  
    21   17   21 1  
    22   18   19 1  
    23   19   20 1  
    24   19   23 1  
    25   20   24 1  
    26   21   22 1  
    27   22   23 1  
    28   24   25 1  
    29   25   26 ar 
    30   25   28 ar 
    31   26   27 ar 
    32   27   30 ar 
    33   28   29 ar 
    34   29   30 ar 
    35   30   31 1  
    36   31   32 2  
    37   32   33 1  
    38   33   34 1  
    39   34   35 1  
    40   35   36 ar 
    41   35   38 ar 
    42   36   37 1  
    43   36   43 ar 
    44   38   39 1  
    45   38   40 ar 
    46   40   41 1  
    47   40   42 ar 
    48   42   43 ar 
    49    5   44 1  
    50    6   45 1  
    51    7   46 1  
    52    9   47 1  
    53    9   48 1  
    54   11   49 1  
    55   12   50 1  
    56   12   51 1  
    57   13   52 1  
    58   13   53 1  
    59   17   54 1  
    60   18   55 1  
    61   18   56 1  
    62   19   57 1  
    63   20   58 1  
    64   20   59 1  
    65   21   60 1  
    66   21   61 1  
    67   22   62 1  
    68   22   63 1  
    69   23   64 1  
    70   23   65 1  
    71   26   66 1  
    72   27   67 1  
    73   28   68 1  
    74   29   69 1  
    75   31   70 1  
    76   32   71 1  
    77   33   72 1  
    78   33   73 1  
    79   42   74 1  
    80   43   75 1  
@<TRIPOS>SUBSTRUCTURE
     1 A5T         1

