### 
### Created by X-TOOL on Mon Sep 10 21:13:00 2018
### 

@<TRIPOS>MOLECULE
3g72_ligand
   77    82     1     0     0
SMALL
GAST_HUCK


@<TRIPOS>ATOM
      1 C           7.1870    5.3190    6.1650 C.3       1 A6T         0.0179
      2 CLA        -2.2450    5.1660    3.8450 Cl        1 A6T        -0.0719
      3 C36        -0.5760    5.3190    4.4240 C.ar      1 A6T         0.0478
      4 C33         0.4240    5.2500    3.5040 C.ar      1 A6T         0.0569
      5 CLR3        0.0580    4.9520    1.7810 Cl        1 A6T        -0.0765
      6 C38        -0.3130    5.5370    5.7700 C.ar      1 A6T        -0.0543
      7 C37         1.0020    5.6510    6.1710 C.ar      1 A6T        -0.0678
      8 C34         2.0240    5.5680    5.2260 C.ar      1 A6T        -0.0577
      9 C32         1.7380    5.3490    3.8920 C.ar      1 A6T        -0.0065
     10 C29         2.7880    5.2340    2.7950 C.3       1 A6T         0.0670
     11 N26         4.1940    5.4940    3.0970 N.am      1 A6T        -0.2618
     12 C28         4.6970    6.8420    2.6580 C.3       1 A6T         0.0460
     13 C31         3.8720    7.9590    3.2880 C.3       1 A6T        -0.0276
     14 C30         5.2810    7.7450    3.7780 C.3       1 A6T        -0.0276
     15 C22         4.9270    4.4760    3.6020 C.2       1 A6T         0.1977
     16 O25         4.4040    3.3870    3.8660 O.2       1 A6T        -0.3963
     17 C20         6.3590    4.5190    3.8640 C.2       1 A6T         0.0746
     18 C23         6.8610    4.1420    5.2340 C.3       1 A6T         0.0526
     19 N27         8.0500    3.3150    4.9840 N.4       1 A6T         0.2506
     20 C24         9.1450    4.0800    4.3840 C.3       1 A6T         0.0289
     21 C21         8.7390    4.7210    3.0550 C.3       1 A6T         0.0280
     22 NB          8.4300    6.0140    5.7820 N.4       1 A6T         0.2363
     23 CA          9.5370    5.1810    5.3580 C.3       1 A6T         0.0126
     24 C19         7.2200    4.7560    2.8530 C.2       1 A6T        -0.0179
     25 C18         6.8530    5.0520    1.4300 C.ar      1 A6T        -0.0251
     26 C16         6.0080    4.1720    0.7560 C.ar      1 A6T        -0.0603
     27 C14         5.6890    4.3660   -0.5790 C.ar      1 A6T        -0.0591
     28 C17         7.4330    6.1390    0.7380 C.ar      1 A6T        -0.0603
     29 C15         7.1170    6.3420   -0.6110 C.ar      1 A6T        -0.0591
     30 C13         6.2600    5.4380   -1.2760 C.ar      1 A6T        -0.0420
     31 C12         5.9110    5.6080   -2.7100 C.3       1 A6T        -0.0163
     32 C10         5.2370    6.6920   -3.0800 C.3       1 A6T        -0.0152
     33 C8          3.7780    6.6370   -2.7460 C.3       1 A6T         0.0716
     34 O5          3.1840    7.8770   -3.1070 O.3       1 A6T        -0.3177
     35 C3          1.8410    7.8440   -2.8070 C.ar      1 A6T         0.1372
     36 C6          1.3630    7.6550   -1.5140 C.ar      1 A6T         0.1558
     37 F1          2.2120    7.4620   -0.4910 F         1 A6T        -0.1935
     38 C2          0.9550    8.0440   -3.8350 C.ar      1 A6T         0.0990
     39 CL11        1.6670    8.3270   -5.4690 Cl        1 A6T        -0.0816
     40 C4         -0.4080    8.0150   -3.5690 C.ar      1 A6T         0.1339
     41 F2         -1.3030    8.2060   -4.5420 F         1 A6T        -0.1889
     42 C7         -0.8930    7.8210   -2.2900 C.ar      1 A6T        -0.0405
     43 C9          0.0020    7.6480   -1.2600 C.ar      1 A6T        -0.0383
     44 H1          7.2979    4.9374    7.1907 H         1 A6T         0.0892
     45 H2          6.3554    6.0381    6.1292 H         1 A6T         0.0892
     46 H3         -1.1213    5.6157    6.4880 H         1 A6T         0.0565
     47 H4          1.2401    5.8046    7.2173 H         1 A6T         0.0601
     48 H5          3.0553    5.6766    5.5417 H         1 A6T         0.0559
     49 H6          2.4979    5.9400    2.0029 H         1 A6T         0.0686
     50 H7          2.7315    4.2057    2.4084 H         1 A6T         0.0686
     51 H8          5.0759    6.8553    1.6254 H         1 A6T         0.0558
     52 H9          3.0233    7.7083    3.9414 H         1 A6T         0.0288
     53 H10         3.6294    8.8563    2.6998 H         1 A6T         0.0288
     54 H11         6.0642    8.4800    3.5405 H         1 A6T         0.0288
     55 H12         5.4580    7.3320    4.7820 H         1 A6T         0.0288
     56 H13         6.0918    3.5341    5.7328 H         1 A6T         0.1038
     57 H14         7.7977    2.5658    4.3586 H         1 A6T         0.2037
     58 H15         8.3663    2.9294    5.8600 H         1 A6T         0.2037
     59 H16        10.0012    3.4111    4.2124 H         1 A6T         0.0928
     60 H17         9.1896    4.1439    2.2341 H         1 A6T         0.0481
     61 H18         9.1207    5.7523    3.0309 H         1 A6T         0.0481
     62 H19         8.7383    6.5496    6.5783 H         1 A6T         0.2020
     63 H20         8.2091    6.6384    5.0222 H         1 A6T         0.2020
     64 H21        10.2862    5.8228    4.8714 H         1 A6T         0.0872
     65 H22         9.9789    4.7127    6.2499 H         1 A6T         0.0872
     66 H23         5.5932    3.3214    1.2847 H         1 A6T         0.0606
     67 H24         5.0026    3.6928   -1.0797 H         1 A6T         0.0561
     68 H25         8.1162    6.8095    1.2467 H         1 A6T         0.0606
     69 H26         7.5294    7.1913   -1.1436 H         1 A6T         0.0561
     70 H27         5.3067    4.7363   -3.0014 H         1 A6T         0.0431
     71 H28         6.8547    5.6054   -3.2751 H         1 A6T         0.0431
     72 H29         5.3397    6.8100   -4.1688 H         1 A6T         0.0314
     73 H30         5.6765    7.5639   -2.5735 H         1 A6T         0.0314
     74 H31         3.6509    6.4653   -1.6670 H         1 A6T         0.0614
     75 H32         3.2999    5.8199   -3.3062 H         1 A6T         0.0614
     76 H33        -1.9604    7.8054   -2.1015 H         1 A6T         0.0501
     77 H34        -0.3588    7.5059   -0.2477 H         1 A6T         0.0567
@<TRIPOS>BOND
     1   18    1 1  
     2    1   22 1  
     3    3    2 1  
     4    4    3 ar 
     5    3    6 ar 
     6    4    5 1  
     7    9    4 ar 
     8    7    6 ar 
     9    8    7 ar 
    10    9    8 ar 
    11   10    9 1  
    12   11   10 1  
    13   11   12 1  
    14   15   11 am 
    15   12   13 1  
    16   12   14 1  
    17   14   13 1  
    18   15   16 2  
    19   17   15 1  
    20   17   18 1  
    21   17   24 2  
    22   18   19 1  
    23   19   20 1  
    24   20   21 1  
    25   20   23 1  
    26   21   24 1  
    27   22   23 1  
    28   24   25 1  
    29   25   26 ar 
    30   25   28 ar 
    31   26   27 ar 
    32   27   30 ar 
    33   28   29 ar 
    34   29   30 ar 
    35   30   31 1  
    36   31   32 1  
    37   32   33 1  
    38   33   34 1  
    39   34   35 1  
    40   35   36 ar 
    41   35   38 ar 
    42   36   37 1  
    43   36   43 ar 
    44   38   39 1  
    45   38   40 ar 
    46   40   41 1  
    47   40   42 ar 
    48   42   43 ar 
    49    1   44 1  
    50    1   45 1  
    51    6   46 1  
    52    7   47 1  
    53    8   48 1  
    54   10   49 1  
    55   10   50 1  
    56   12   51 1  
    57   13   52 1  
    58   13   53 1  
    59   14   54 1  
    60   14   55 1  
    61   18   56 1  
    62   19   57 1  
    63   19   58 1  
    64   20   59 1  
    65   21   60 1  
    66   21   61 1  
    67   22   62 1  
    68   22   63 1  
    69   23   64 1  
    70   23   65 1  
    71   26   66 1  
    72   27   67 1  
    73   28   68 1  
    74   29   69 1  
    75   31   70 1  
    76   31   71 1  
    77   32   72 1  
    78   32   73 1  
    79   33   74 1  
    80   33   75 1  
    81   42   76 1  
    82   43   77 1  
@<TRIPOS>SUBSTRUCTURE
     1 A6T         1

