### 
### Created by X-TOOL on Mon Sep 10 21:13:02 2018
### 

@<TRIPOS>MOLECULE
3g76_ligand
   64    66     1     0     0
SMALL
GAST_HUCK


@<TRIPOS>ATOM
      1 CAU        18.7870   29.4510    5.3180 C.ar      1 CZ3        -0.0466
      2 CAQ        18.2510   30.1210    4.1650 C.ar      1 CZ3        -0.0672
      3 CAO        19.0030   31.1320    3.5540 C.ar      1 CZ3        -0.0683
      4 CAR        20.2610   31.4900    4.0490 C.ar      1 CZ3        -0.0672
      5 CAV        20.7770   30.8380    5.1690 C.ar      1 CZ3        -0.0466
      6 CCA        20.0490   29.8200    5.7940 C.ar      1 CZ3         0.0397
      7 SBU        20.7210   29.0230    7.1980 S.3       1 CZ3         0.0262
      8 CCC        20.2570   30.2100    8.3630 C.2       1 CZ3         0.2439
      9 NBK        19.6760   31.3860    8.1560 N.2       1 CZ3        -0.2097
     10 NBI        19.5310   31.8810    9.2800 N.2       1 CZ3        -0.1516
     11 NBM        19.9670   31.1220   10.1630 N.2       1 CZ3        -0.0692
     12 NCO        20.4160   30.0920    9.6500 N.pl3     1 CZ3        -0.1240
     13 CBG        21.0170   28.9200   10.3120 C.3       1 CZ3         0.1067
     14 CCI        20.1370   28.4120   11.4710 C.3       1 CZ3         0.0754
     15 CBC        20.2930   29.3630   12.6660 C.3       1 CZ3        -0.0251
     16 CBA        20.2680   28.4410   13.8740 C.3       1 CZ3        -0.0303
     17 CBE        21.0340   27.2170   13.3870 C.3       1 CZ3         0.0344
     18 NCM        20.6750   27.1380   11.9620 N.am      1 CZ3        -0.2654
     19 CBY        20.8230   26.0420   11.2210 C.2       1 CZ3         0.2070
     20 OAI        20.4930   26.0310   10.0350 O.2       1 CZ3        -0.3942
     21 CCK        21.4190   24.7900   11.8290 C.3       1 CZ3         0.1569
     22 NBO        20.6980   23.6610   11.2070 N.am      1 CZ3        -0.2586
     23 C          19.9620   22.8270   11.9440 C.2       1 CZ3         0.2266
     24 O          19.8480   22.9070   13.1690 O.2       1 CZ3        -0.3907
     25 CA         19.2540   21.7110   11.1780 C.3       1 CZ3         0.0637
     26 CB         17.9010   22.2300   10.7120 C.3       1 CZ3        -0.0039
     27 N          19.0460   20.5570   12.0630 N.4       1 CZ3         0.2438
     28 CAA        20.3220   20.0490   12.6090 C.3       1 CZ3        -0.0428
     29 CCG        22.9500   24.8230   11.5500 C.3       1 CZ3         0.0955
     30 CAE        23.6230   23.4840   11.8960 C.3       1 CZ3        -0.0343
     31 OBS        23.2350   25.2410   10.1620 O.3       1 CZ3        -0.3754
     32 CAY        24.4660   26.0260    9.9920 C.3       1 CZ3         0.0371
     33 H1         18.2205   28.6700    5.8121 H         1 CZ3         0.0571
     34 H2         17.2778   29.8474    3.7737 H         1 CZ3         0.0601
     35 H3         18.6046   31.6441    2.6856 H         1 CZ3         0.0562
     36 H4         20.8336   32.2721    3.5636 H         1 CZ3         0.0601
     37 H5         21.7483   31.1220    5.5575 H         1 CZ3         0.0571
     38 H6         22.0036   29.2008   10.7091 H         1 CZ3         0.0671
     39 H7         21.1350   28.1137    9.5731 H         1 CZ3         0.0671
     40 H8         19.0877   28.3187   11.1545 H         1 CZ3         0.0588
     41 H9         19.4612   30.0817   12.7052 H         1 CZ3         0.0289
     42 H10        21.2466   29.9085   12.6100 H         1 CZ3         0.0289
     43 H11        19.2360   28.1778   14.1492 H         1 CZ3         0.0285
     44 H12        20.7704   28.9047   14.7357 H         1 CZ3         0.0285
     45 H13        20.7141   26.3123   13.9247 H         1 CZ3         0.0522
     46 H14        22.1180   27.3546   13.5132 H         1 CZ3         0.0522
     47 H15        21.2555   24.7687   12.9166 H         1 CZ3         0.0826
     48 H16        20.7624   23.5196   10.2191 H         1 CZ3         0.1885
     49 H17        19.8603   21.4098   10.3110 H         1 CZ3         0.1096
     50 H18        17.3759   21.4384   10.1574 H         1 CZ3         0.0310
     51 H19        18.0483   23.1009   10.0565 H         1 CZ3         0.0310
     52 H20        17.3011   22.5256   11.5853 H         1 CZ3         0.0310
     53 H21        18.5985   19.8207   11.5398 H         1 CZ3         0.2032
     54 H22        18.4512   20.8350   12.8278 H         1 CZ3         0.2032
     55 H23        20.1235   19.1881   13.2643 H         1 CZ3         0.0777
     56 H24        20.8157   20.8438   13.1874 H         1 CZ3         0.0777
     57 H25        20.9765   19.7369   11.7818 H         1 CZ3         0.0777
     58 H26        23.3851   25.5843   12.2141 H         1 CZ3         0.0642
     59 H27        24.7005   23.5499   11.6849 H         1 CZ3         0.0257
     60 H28        23.1786   22.6823   11.2879 H         1 CZ3         0.0257
     61 H29        23.4713   23.2622   12.9627 H         1 CZ3         0.0257
     62 H30        24.5901   26.2880    8.9309 H         1 CZ3         0.0524
     63 H31        25.3291   25.4316   10.3262 H         1 CZ3         0.0524
     64 H32        24.4000   26.9459   10.5915 H         1 CZ3         0.0524
@<TRIPOS>BOND
     1    1    2 ar 
     2    1    6 ar 
     3    2    3 ar 
     4    3    4 ar 
     5    4    5 ar 
     6    5    6 ar 
     7    6    7 1  
     8    7    8 1  
     9    8    9 2  
    10    8   12 1  
    11    9   10 1  
    12   10   11 2  
    13   11   12 1  
    14   12   13 1  
    15   13   14 1  
    16   14   15 1  
    17   14   18 1  
    18   15   16 1  
    19   16   17 1  
    20   17   18 1  
    21   18   19 am 
    22   19   20 2  
    23   19   21 1  
    24   21   22 1  
    25   21   29 1  
    26   22   23 am 
    27   23   24 2  
    28   23   25 1  
    29   25   26 1  
    30   25   27 1  
    31   27   28 1  
    32   29   30 1  
    33   29   31 1  
    34   31   32 1  
    35    1   33 1  
    36    2   34 1  
    37    3   35 1  
    38    4   36 1  
    39    5   37 1  
    40   13   38 1  
    41   13   39 1  
    42   14   40 1  
    43   15   41 1  
    44   15   42 1  
    45   16   43 1  
    46   16   44 1  
    47   17   45 1  
    48   17   46 1  
    49   21   47 1  
    50   22   48 1  
    51   25   49 1  
    52   26   50 1  
    53   26   51 1  
    54   26   52 1  
    55   27   53 1  
    56   27   54 1  
    57   28   55 1  
    58   28   56 1  
    59   28   57 1  
    60   29   58 1  
    61   30   59 1  
    62   30   60 1  
    63   30   61 1  
    64   32   62 1  
    65   32   63 1  
    66   32   64 1  
@<TRIPOS>SUBSTRUCTURE
     1 CZ3         1

