### 
### Created by X-TOOL on Mon Sep 10 21:13:00 2018
### 

@<TRIPOS>MOLECULE
3g86_ligand
   57    61     1     0     0
SMALL
GAST_HUCK


@<TRIPOS>ATOM
      1 C1         -9.0130    9.9200  -16.2850 C.ar      1 T18        -0.0542
      2 C2         -9.7650    9.0210  -17.0540 C.ar      1 T18         0.0525
      3 C3         -8.8250    9.7360  -14.9250 C.ar      1 T18        -0.0522
      4 C4        -10.3490    7.9360  -16.4060 C.ar      1 T18        -0.0300
      5 C5         -9.3920    8.6270  -14.2840 C.ar      1 T18         0.0666
      6 C6        -10.1480    7.7330  -15.0510 C.ar      1 T18         0.0915
      7 S7        -10.8310    6.2830  -14.3010 S.o2      1 T18        -0.0141
      8 C8        -10.7810    6.6650  -12.5730 C.2       1 T18         0.0301
      9 C9         -9.9380    7.6060  -12.0930 C.2       1 T18         0.0530
     10 N10        -9.1820    8.4290  -12.9150 N.pl3     1 T18        -0.2867
     11 N11        -9.9580    9.2510  -18.4400 N.am      1 T18        -0.1984
     12 S12       -10.3320    8.1130  -19.5940 S.o2      1 T18         0.0552
     13 C13       -12.1510    8.0910  -19.5850 C.3       1 T18         0.0783
     14 O14        -9.8450    8.6690  -20.8110 O.2       1 T18        -0.1506
     15 O15        -9.7540    6.8770  -19.1720 O.2       1 T18        -0.1506
     16 O16       -12.1800    6.1680  -14.7510 O.2       1 T18        -0.1755
     17 O17        -9.9050    5.2190  -14.6000 O.2       1 T18        -0.1755
     18 C18       -12.0850    7.2630   -6.3170 C.ar      1 T18         0.1235
     19 C19       -11.5330    8.4550   -5.8400 C.ar      1 T18        -0.0342
     20 C20       -10.7030    9.1990   -6.6570 C.ar      1 T18        -0.0310
     21 C21       -11.8080    6.8000   -7.5770 C.ar      1 T18        -0.0209
     22 C22       -10.9040    7.5040   -8.3840 C.ar      1 T18         0.0553
     23 C23       -10.3720    8.7320   -7.9390 C.ar      1 T18         0.0954
     24 N24        -9.5820    9.4850   -8.7900 N.am      1 T18        -0.2071
     25 C25        -9.4890    9.1620  -10.1190 C.2       1 T18         0.2102
     26 C26       -10.0500    7.9340  -10.6460 C.2       1 T18         0.0983
     27 C27       -10.7040    7.0600   -9.7580 C.2       1 T18         0.1256
     28 F28       -12.8920    6.5400   -5.5510 F         1 T18        -0.1935
     29 O29       -11.2180    5.8580  -10.1090 O.3       1 T18        -0.3161
     30 C30        -8.9690   10.7110   -8.2510 C.3       1 T18         0.0912
     31 O31        -8.8330    9.9070  -10.8560 O.2       1 T18        -0.4092
     32 C32        -7.6580   10.2440   -7.6600 C.ar      1 T18        -0.0176
     33 C33        -6.6770    9.7180   -8.5010 C.ar      1 T18        -0.0595
     34 C34        -5.2310    9.3290   -6.6300 C.ar      1 T18         0.1248
     35 C35        -6.1920    9.8560   -5.7620 C.ar      1 T18        -0.0348
     36 C36        -5.4660    9.2720   -8.0000 C.ar      1 T18        -0.0348
     37 C37        -7.4070   10.3190   -6.2850 C.ar      1 T18        -0.0595
     38 F38        -4.0450    8.8740   -6.1550 F         1 T18        -0.1893
     39 H1         -8.5668   10.7821  -16.7674 H         1 T18         0.0456
     40 H2         -8.2394   10.4498  -14.3570 H         1 T18         0.0493
     41 H3        -10.9665    7.2440  -16.9671 H         1 T18         0.0475
     42 H4        -11.4391    6.1340  -11.8868 H         1 T18         0.0250
     43 H5         -8.3991    8.9378  -12.4802 H         1 T18         0.2042
     44 H6         -9.8590   10.1946  -18.7561 H         1 T18         0.2115
     45 H7        -12.5125    7.3605  -20.3237 H         1 T18         0.0487
     46 H8        -12.5311    9.0908  -19.8418 H         1 T18         0.0487
     47 H9        -12.5094    7.8084  -18.5842 H         1 T18         0.0487
     48 H10       -11.7547    8.7942   -4.8346 H         1 T18         0.0617
     49 H11       -10.3066   10.1453   -6.3072 H         1 T18         0.0524
     50 H12       -12.2834    5.8983   -7.9456 H         1 T18         0.0612
     51 H13       -11.8801    5.9814  -10.7790 H         1 T18         0.2600
     52 H14        -9.6086   11.1582   -7.4758 H         1 T18         0.0761
     53 H15        -8.7960   11.4448   -9.0519 H         1 T18         0.0761
     54 H16        -6.8665    9.6574   -9.5666 H         1 T18         0.0548
     55 H17        -5.9995    9.9059   -4.6964 H         1 T18         0.0587
     56 H18        -4.7077    8.8819   -8.6692 H         1 T18         0.0587
     57 H19        -8.1556   10.7370   -5.6218 H         1 T18         0.0548
@<TRIPOS>BOND
     1    1    2 ar 
     2    3    1 ar 
     3    4    2 ar 
     4    2   11 1  
     5    5    3 ar 
     6    6    4 ar 
     7    5    6 ar 
     8   10    5 1  
     9    7    6 1  
    10    8    7 1  
    11    7   16 2  
    12    7   17 2  
    13    9    8 2  
    14    9   10 1  
    15   26    9 1  
    16   11   12 am 
    17   12   13 1  
    18   12   14 2  
    19   12   15 2  
    20   19   18 ar 
    21   21   18 ar 
    22   18   28 1  
    23   20   19 ar 
    24   23   20 ar 
    25   22   21 ar 
    26   23   22 ar 
    27   22   27 1  
    28   24   23 1  
    29   24   25 am 
    30   30   24 1  
    31   25   26 1  
    32   25   31 2  
    33   26   27 2  
    34   27   29 1  
    35   32   30 1  
    36   33   32 ar 
    37   32   37 ar 
    38   36   33 ar 
    39   34   35 ar 
    40   34   36 ar 
    41   34   38 1  
    42   35   37 ar 
    43    1   39 1  
    44    3   40 1  
    45    4   41 1  
    46    8   42 1  
    47   10   43 1  
    48   11   44 1  
    49   13   45 1  
    50   13   46 1  
    51   13   47 1  
    52   19   48 1  
    53   20   49 1  
    54   21   50 1  
    55   29   51 1  
    56   30   52 1  
    57   30   53 1  
    58   33   54 1  
    59   35   55 1  
    60   36   56 1  
    61   37   57 1  
@<TRIPOS>SUBSTRUCTURE
     1 T18         1

