### 
### Created by X-TOOL on Mon Sep 10 21:13:02 2018
### 

@<TRIPOS>MOLECULE
3g8e_ligand
   77    80     1     0     0
SMALL
GAST_HUCK


@<TRIPOS>ATOM
      1 CAM        44.6400   -3.5970  -10.7760 C.ar      1 IS1        -0.0419
      2 CAI        44.4400   -3.4380   -9.4100 C.ar      1 IS1        -0.0562
      3 CAH        45.1820   -2.5030   -8.6970 C.ar      1 IS1        -0.0575
      4 CAJ        46.1250   -1.7310   -9.3630 C.ar      1 IS1        -0.0562
      5 CAN        46.3260   -1.8940  -10.7280 C.ar      1 IS1        -0.0419
      6 CBE        45.5840   -2.8250  -11.4410 C.ar      1 IS1         0.0500
      7 CBC        45.7900   -2.9590  -12.9520 C.2       1 IS1         0.2074
      8 OAB        46.9000   -3.2330  -13.3990 O.2       1 IS1        -0.3845
      9 NBK        44.7810   -2.7740  -13.7920 N.am      1 IS1        -0.2724
     10 CAY        45.0280   -2.8730  -15.2500 C.3       1 IS1         0.0336
     11 CAW        43.8380   -3.4910  -15.9930 C.3       1 IS1        -0.0297
     12 CAX        43.4610   -2.4200  -13.2200 C.3       1 IS1         0.0336
     13 CAV        42.3230   -3.0650  -14.0070 C.3       1 IS1        -0.0297
     14 CBF        42.8080   -4.0970  -15.0380 C.3       1 IS1        -0.0374
     15 CAU        41.5910   -4.6250  -15.7990 C.3       1 IS1        -0.0500
     16 CAS        41.0340   -5.7060  -14.8710 C.3       1 IS1        -0.0510
     17 CAR        39.6080   -6.1050  -15.2360 C.3       1 IS1        -0.0330
     18 CAT        39.5820   -7.3920  -16.0590 C.3       1 IS1         0.0292
     19 NAZ        38.1660   -7.7270  -16.2270 N.am      1 IS1        -0.2932
     20 CBB        37.4670   -8.2690  -15.2300 C.2       1 IS1         0.1693
     21 OAA        37.9360   -8.5840  -14.1450 O.2       1 IS1        -0.4054
     22 CAF        36.1280   -8.5150  -15.5180 C.2       1 IS1        -0.0173
     23 CAG        35.3510   -9.1820  -14.5880 C.2       1 IS1        -0.0680
     24 CBD        34.0150   -9.4190  -14.8960 C.2       1 IS1        -0.0177
     25 CAP        33.2120   -9.9920  -13.9310 C.2       1 IS1         0.0428
     26 CAL        33.4480   -9.0140  -16.1010 C.2       1 IS1        -0.0867
     27 CAK        32.0950   -9.1830  -16.3740 C.2       1 IS1        -0.0732
     28 CAO        31.2810   -9.7460  -15.4000 C.3       1 IS1         0.0598
     29 NBL        31.8480  -10.1240  -14.1860 N.pl3     1 IS1        -0.2541
     30 C1'        31.0100  -10.3370  -12.9910 C.3       1 IS1         0.1804
     31 O4'        29.6040  -10.0600  -13.0730 O.3       1 IS1        -0.3414
     32 C4'        29.1930   -9.8840  -11.8200 C.3       1 IS1         0.1130
     33 C5'        28.1080   -8.7500  -11.7390 C.3       1 IS1         0.0730
     34 O5'        27.4220   -8.8430  -10.4830 O.3       1 IS1        -0.3924
     35 C3'        30.4280  -10.1450  -10.9090 C.3       1 IS1         0.1140
     36 O3'        30.5370  -11.1930   -9.9940 O.3       1 IS1        -0.3864
     37 C2'        31.3710   -9.4110  -11.8460 C.3       1 IS1         0.1332
     38 O2'        32.7460   -9.4970  -11.4470 O.3       1 IS1        -0.3842
     39 H1         44.0565   -4.3270  -11.3252 H         1 IS1         0.0669
     40 H2         43.7024   -4.0455   -8.8982 H         1 IS1         0.0629
     41 H3         45.0260   -2.3778   -7.6316 H         1 IS1         0.0653
     42 H4         46.7066   -0.9982   -8.8155 H         1 IS1         0.0629
     43 H5         47.0670   -1.2902  -11.2392 H         1 IS1         0.0669
     44 H6         45.9161   -3.5000  -15.4181 H         1 IS1         0.0522
     45 H7         45.2105   -1.8642  -15.6487 H         1 IS1         0.0522
     46 H8         44.2100   -4.2823  -16.6603 H         1 IS1         0.0287
     47 H9         43.3485   -2.7077  -16.5903 H         1 IS1         0.0287
     48 H10        43.3405   -1.3270  -13.2471 H         1 IS1         0.0522
     49 H11        43.4175   -2.7680  -12.1774 H         1 IS1         0.0522
     50 H12        41.7722   -2.2739  -14.5369 H         1 IS1         0.0287
     51 H13        41.6496   -3.5690  -13.2982 H         1 IS1         0.0287
     52 H14        43.2836   -4.9335  -14.5051 H         1 IS1         0.0302
     53 H15        41.8879   -5.0529  -16.7679 H         1 IS1         0.0268
     54 H16        40.8518   -3.8268  -15.9616 H         1 IS1         0.0268
     55 H17        41.0412   -5.3244  -13.8393 H         1 IS1         0.0266
     56 H18        41.6779   -6.5953  -14.9376 H         1 IS1         0.0266
     57 H19        39.1491   -5.2957  -15.8229 H         1 IS1         0.0284
     58 H20        39.0320   -6.2597  -14.3117 H         1 IS1         0.0284
     59 H21        40.1062   -8.1988  -15.5258 H         1 IS1         0.0517
     60 H22        40.0566   -7.2307  -17.0381 H         1 IS1         0.0517
     61 H23        37.7173   -7.5465  -17.1023 H         1 IS1         0.1826
     62 H24        35.6975   -8.1868  -16.4629 H         1 IS1         0.0420
     63 H25        35.7736   -9.5127  -13.6404 H         1 IS1         0.0670
     64 H26        33.6359  -10.3345  -12.9882 H         1 IS1         0.1196
     65 H27        34.0840   -8.5502  -16.8536 H         1 IS1         0.0380
     66 H28        31.6812   -8.8793  -17.3344 H         1 IS1         0.0523
     67 H29        30.8278  -10.6470  -15.8391 H         1 IS1         0.0695
     68 H30        30.4932   -9.0123  -15.1739 H         1 IS1         0.0695
     69 H31        31.1523  -11.3863  -12.6931 H         1 IS1         0.0927
     70 H32        28.5744  -10.7660  -11.5976 H         1 IS1         0.0647
     71 H33        27.3876   -8.8705  -12.5615 H         1 IS1         0.0584
     72 H34        28.5959   -7.7674  -11.8199 H         1 IS1         0.0584
     73 H35        26.7652   -8.1587  -10.4308 H         1 IS1         0.2095
     74 H36        30.3059   -9.3759  -10.1321 H         1 IS1         0.0648
     75 H37        31.3793  -11.1443   -9.5573 H         1 IS1         0.2100
     76 H38        31.1005   -8.3592  -12.0204 H         1 IS1         0.0670
     77 H39        32.8479   -9.1177  -10.5820 H         1 IS1         0.2101
@<TRIPOS>BOND
     1    1    2 ar 
     2    1    6 ar 
     3    2    3 ar 
     4    3    4 ar 
     5    4    5 ar 
     6    5    6 ar 
     7    6    7 1  
     8    7    8 2  
     9    7    9 am 
    10    9   10 1  
    11    9   12 1  
    12   10   11 1  
    13   11   14 1  
    14   12   13 1  
    15   13   14 1  
    16   14   15 1  
    17   15   16 1  
    18   16   17 1  
    19   17   18 1  
    20   18   19 1  
    21   19   20 am 
    22   20   21 2  
    23   20   22 1  
    24   22   23 2  
    25   23   24 1  
    26   24   25 2  
    27   24   26 1  
    28   25   29 1  
    29   26   27 2  
    30   27   28 1  
    31   28   29 1  
    32   29   30 1  
    33   30   31 1  
    34   30   37 1  
    35   31   32 1  
    36   32   33 1  
    37   32   35 1  
    38   33   34 1  
    39   35   36 1  
    40   35   37 1  
    41   37   38 1  
    42    1   39 1  
    43    2   40 1  
    44    3   41 1  
    45    4   42 1  
    46    5   43 1  
    47   10   44 1  
    48   10   45 1  
    49   11   46 1  
    50   11   47 1  
    51   12   48 1  
    52   12   49 1  
    53   13   50 1  
    54   13   51 1  
    55   14   52 1  
    56   15   53 1  
    57   15   54 1  
    58   16   55 1  
    59   16   56 1  
    60   17   57 1  
    61   17   58 1  
    62   18   59 1  
    63   18   60 1  
    64   19   61 1  
    65   22   62 1  
    66   23   63 1  
    67   25   64 1  
    68   26   65 1  
    69   27   66 1  
    70   28   67 1  
    71   28   68 1  
    72   30   69 1  
    73   32   70 1  
    74   33   71 1  
    75   33   72 1  
    76   34   73 1  
    77   35   74 1  
    78   36   75 1  
    79   37   76 1  
    80   38   77 1  
@<TRIPOS>SUBSTRUCTURE
     1 IS1         1

