### 
### Created by X-TOOL on Mon Sep 10 21:13:01 2018
### 

@<TRIPOS>MOLECULE
3g8i_ligand
   53    56     1     0     0
SMALL
GAST_HUCK


@<TRIPOS>ATOM
      1 C25        45.5950   33.3750   37.1100 C.3       1 RO7        -0.0015
      2 C7         46.7530   32.4120   37.1250 C.2       1 RO7         0.1140
      3 O3         47.7480   32.5800   38.0350 O.3       1 RO7        -0.2356
      4 C2         48.6300   31.5530   37.7480 C.2       1 RO7         0.1880
      5 C16        49.8280   31.1940   38.3710 C.ar      1 RO7         0.0316
      6 C26        50.5750   30.0860   37.9470 C.ar      1 RO7        -0.0496
      7 C29        51.7760   29.7400   38.5810 C.ar      1 RO7        -0.0613
      8 C31        52.2240   30.5280   39.6630 C.ar      1 RO7        -0.0620
      9 C30        51.4860   31.6320   40.0920 C.ar      1 RO7        -0.0613
     10 C27        50.2900   31.9670   39.4470 C.ar      1 RO7        -0.0496
     11 N1         48.2380   30.7570   36.7070 N.2       1 RO7        -0.3129
     12 C4         47.0720   31.2530   36.2680 C.2       1 RO7         0.0156
     13 C20        46.1820   30.7880   35.1620 C.3       1 RO7         0.0013
     14 C23        46.4810   31.5270   33.8790 C.3       1 RO7         0.0741
     15 O22        45.6220   32.6470   33.8060 O.3       1 RO7        -0.3221
     16 C13        45.8420   33.6110   32.8740 C.ar      1 RO7         0.0833
     17 C19        46.6850   33.4120   31.7720 C.ar      1 RO7        -0.0495
     18 C17        46.8820   34.4300   30.8210 C.ar      1 RO7        -0.0784
     19 C5         45.1200   34.8690   33.0480 C.ar      1 RO7         0.0011
     20 C15        44.2050   35.1840   34.1210 C.2       1 RO7        -0.0654
     21 C12        43.7710   36.4980   33.8890 C.2       1 RO7        -0.0099
     22 C6         45.3020   35.9310   32.0820 C.ar      1 RO7         0.0327
     23 S9         44.4160   37.2470   32.4990 S.3       1 RO7        -0.0489
     24 C8         46.2250   35.6790   30.9340 C.ar      1 RO7        -0.0376
     25 C11        46.5010   36.7250   29.8760 C.3       1 RO7         0.0120
     26 C14        47.7790   37.4680   30.2810 C.3       1 RO7         0.1174
     27 O24        47.4970   38.3590   31.3810 O.3       1 RO7        -0.3640
     28 C28        48.6880   39.0080   31.8670 C.3       1 RO7         0.0392
     29 C10        48.3050   38.1990   29.0840 C.2       1 RO7         0.0653
     30 O21        49.0280   37.5890   28.2940 O.co2     1 RO7        -0.5662
     31 O18        47.9770   39.3710   28.8980 O.co2     1 RO7        -0.5662
     32 H1         44.8905   33.0889   36.3151 H         1 RO7         0.0409
     33 H2         45.9670   34.3929   36.9214 H         1 RO7         0.0409
     34 H3         45.0817   33.3465   38.0825 H         1 RO7         0.0409
     35 H4         50.2183   29.4879   37.1163 H         1 RO7         0.0626
     36 H5         52.3501   28.8834   38.2468 H         1 RO7         0.0617
     37 H6         53.1501   30.2732   40.1655 H         1 RO7         0.0615
     38 H7         51.8390   32.2298   40.9245 H         1 RO7         0.0617
     39 H8         49.7189   32.8262   39.7797 H         1 RO7         0.0626
     40 H9         45.1340   30.9670   35.4442 H         1 RO7         0.0384
     41 H10        46.3398   29.7112   35.0019 H         1 RO7         0.0384
     42 H11        46.3047   30.8654   33.0181 H         1 RO7         0.0627
     43 H12        47.5292   31.8605   33.8766 H         1 RO7         0.0627
     44 H13        47.1918   32.4614   31.6509 H         1 RO7         0.0449
     45 H14        47.5499   34.2546   29.9854 H         1 RO7         0.0474
     46 H15        43.9116   34.5332   34.9434 H         1 RO7         0.0413
     47 H16        43.0704   37.0048   34.5510 H         1 RO7         0.0744
     48 H17        45.6593   37.4308   29.8178 H         1 RO7         0.0436
     49 H18        46.6423   36.2413   28.8982 H         1 RO7         0.0436
     50 H19        48.5337   36.7377   30.6083 H         1 RO7         0.0785
     51 H20        48.4273   39.6752   32.7018 H         1 RO7         0.0525
     52 H21        49.1422   39.5960   31.0559 H         1 RO7         0.0525
     53 H22        49.4037   38.2484   32.2144 H         1 RO7         0.0525
@<TRIPOS>BOND
     1    1    2 1  
     2    2    3 1  
     3    2   12 2  
     4    3    4 1  
     5    4    5 1  
     6    4   11 2  
     7    5    6 ar 
     8    5   10 ar 
     9    6    7 ar 
    10    7    8 ar 
    11    8    9 ar 
    12    9   10 ar 
    13   11   12 1  
    14   12   13 1  
    15   13   14 1  
    16   14   15 1  
    17   15   16 1  
    18   16   17 ar 
    19   16   19 ar 
    20   17   18 ar 
    21   18   24 ar 
    22   19   20 1  
    23   19   22 ar 
    24   20   21 2  
    25   21   23 1  
    26   22   23 1  
    27   22   24 ar 
    28   24   25 1  
    29   25   26 1  
    30   26   27 1  
    31   26   29 1  
    32   27   28 1  
    33   29   30 ar 
    34   29   31 ar 
    35    1   32 1  
    36    1   33 1  
    37    1   34 1  
    38    6   35 1  
    39    7   36 1  
    40    8   37 1  
    41    9   38 1  
    42   10   39 1  
    43   13   40 1  
    44   13   41 1  
    45   14   42 1  
    46   14   43 1  
    47   17   44 1  
    48   18   45 1  
    49   20   46 1  
    50   21   47 1  
    51   25   48 1  
    52   25   49 1  
    53   26   50 1  
    54   28   51 1  
    55   28   52 1  
    56   28   53 1  
@<TRIPOS>SUBSTRUCTURE
     1 RO7         1

