### 
### Created by X-TOOL on Mon Sep 10 21:13:03 2018
### 

@<TRIPOS>MOLECULE
3g8o_ligand
   40    40     1     0     0
SMALL
GAST_HUCK


@<TRIPOS>ATOM
      1 C10        -3.9950   -7.4150   26.4570 C.ar      1 30X        -0.0038
      2 C13        -3.7480   -9.8240   29.3570 C.1       1 30X         0.1080
      3 C15        -2.1880   -9.4800   27.3460 C.ar      1 30X         0.0678
      4 C16        -1.9400   -8.7520   26.1500 C.ar      1 30X        -0.0032
      5 C17        -1.1540  -10.5800   27.7410 C.3       1 30X         0.3789
      6 C24        -3.7970   -5.2590   20.6200 C.3       1 30X         0.0223
      7 C25        -4.8770   -6.6730   22.4470 C.3       1 30X         0.0223
      8 C1         -2.0080   -4.6930   25.2740 C.3       1 30X        -0.0245
      9 C2         -2.9840   -5.5600   24.4390 C.3       1 30X         0.1269
     10 N3         -2.5310   -6.9980   24.4150 N.pl3     1 30X        -0.2690
     11 C4         -1.0750   -7.1030   24.0600 C.3       1 30X         0.1269
     12 C5         -0.8690   -8.0270   22.8410 C.3       1 30X         0.4095
     13 F6         -1.6980   -7.6830   21.8710 F         1 30X        -0.1685
     14 F7          0.3860   -7.9070   22.4100 F         1 30X        -0.1685
     15 F8         -1.1090   -9.2930   23.1740 F         1 30X        -0.1685
     16 C9         -2.8250   -7.7150   25.6830 C.ar      1 30X         0.0827
     17 C11        -4.2650   -8.1240   27.6570 C.ar      1 30X        -0.0098
     18 C12        -3.3900   -9.1510   28.1190 C.ar      1 30X         0.1093
     19 N14        -4.0370  -10.3590   30.3370 N.1       1 30X        -0.3234
     20 F18        -0.7140  -11.1890   26.6510 F         1 30X        -0.2188
     21 F19        -1.6750  -11.5230   28.5170 F         1 30X        -0.2188
     22 F20        -0.1210  -10.0170   28.3500 F         1 30X        -0.2188
     23 C21        -3.0460   -5.0620   22.9740 C.2       1 30X         0.2032
     24 O22        -2.3330   -4.1130   22.6290 O.2       1 30X        -0.3944
     25 N23        -3.8770   -5.6470   22.0510 N.am      1 30X        -0.2774
     26 H          -4.6813   -6.6375   26.1215 H         1 30X         0.0780
     27 H          -1.0498   -8.9864   25.5663 H         1 30X         0.0783
     28 H          -3.5532   -6.1359   20.0202 H         1 30X         0.0486
     29 H          -4.7572   -4.8542   20.3004 H         1 30X         0.0486
     30 H          -3.0221   -4.5031   20.4926 H         1 30X         0.0486
     31 H          -4.3644   -7.5239   22.8957 H         1 30X         0.0486
     32 H          -5.5705   -6.2427   23.1695 H         1 30X         0.0486
     33 H          -5.4268   -7.0021   21.5652 H         1 30X         0.0486
     34 H          -1.9733   -5.0695   26.2963 H         1 30X         0.0277
     35 H          -1.0123   -4.7423   24.8333 H         1 30X         0.0277
     36 H          -2.3543   -3.6595   25.2776 H         1 30X         0.0277
     37 H          -3.9658   -5.4799   24.9057 H         1 30X         0.0796
     38 H          -0.5366   -7.5207   24.9107 H         1 30X         0.0609
     39 H          -0.7025   -6.1089   23.8126 H         1 30X         0.0609
     40 H          -5.1561   -7.8793   28.2350 H         1 30X         0.0774
@<TRIPOS>BOND
     1   16    1 ar 
     2    1   17 ar 
     3   18    2 1  
     4    2   19 3  
     5    4    3 ar 
     6    3    5 1  
     7    3   18 ar 
     8   16    4 ar 
     9    5   20 1  
    10    5   21 1  
    11    5   22 1  
    12   25    6 1  
    13   25    7 1  
    14    9    8 1  
    15    9   10 1  
    16   23    9 1  
    17   10   11 1  
    18   10   16 1  
    19   11   12 1  
    20   12   13 1  
    21   12   14 1  
    22   12   15 1  
    23   17   18 ar 
    24   23   24 2  
    25   23   25 am 
    26    1   26 1  
    27    4   27 1  
    28    6   28 1  
    29    6   29 1  
    30    6   30 1  
    31    7   31 1  
    32    7   32 1  
    33    7   33 1  
    34    8   34 1  
    35    8   35 1  
    36    8   36 1  
    37    9   37 1  
    38   11   38 1  
    39   11   39 1  
    40   17   40 1  
@<TRIPOS>SUBSTRUCTURE
     1 30X         1

