### 
### Created by X-TOOL on Mon Sep 10 21:13:01 2018
### 

@<TRIPOS>MOLECULE
3g90_ligand
   37    40     1     0     0
SMALL
GAST_HUCK


@<TRIPOS>ATOM
      1 O1         17.5090    8.2080   33.6570 O.3       1 J72        -0.2355
      2 N2         18.0150    7.1540   32.8760 N.2       1 J72        -0.1208
      3 C3         19.1420    7.2980   32.2410 C.2       1 J72         0.1575
      4 C4         19.7520    6.2560   31.3970 C.2       1 J72         0.2474
      5 O5         19.2880    5.1520   31.1940 O.2       1 J72        -0.3732
      6 N6         20.8890    6.7470   30.8990 N.am      1 J72        -0.2125
      7 C7         21.7540    5.9940   29.9990 C.3       1 J72         0.0835
      8 C8         22.6890    5.1150   30.7820 C.ar      1 J72         0.0059
      9 C9         22.2080    4.1770   31.6910 C.ar      1 J72        -0.0398
     10 C10        23.0960    3.3710   32.3870 C.ar      1 J72         0.1077
     11 F11        22.6280    2.4550   33.2630 F         1 J72        -0.1963
     12 C12        24.4620    3.5030   32.1870 C.ar      1 J72        -0.0400
     13 C13        24.9380    4.4370   31.2860 C.ar      1 J72         0.0040
     14 C14        26.4170    4.5830   31.0720 C.3       1 J72         0.0805
     15 O15        26.6690    5.4070   29.9220 O.3       1 J72        -0.3399
     16 C16        25.8790    6.5990   29.8420 C.3       1 J72         0.1680
     17 O17        24.5180    6.1770   29.6950 O.3       1 J72        -0.3012
     18 C18        24.0570    5.2470   30.5790 C.ar      1 J72         0.0974
     19 C19        21.1260    8.0530   31.3200 C.ar      1 J72         0.0742
     20 C20        22.1780    8.9300   31.0400 C.ar      1 J72        -0.0430
     21 C21        22.1940   10.2020   31.5840 C.ar      1 J72        -0.0428
     22 C22        21.1500   10.6020   32.4120 C.ar      1 J72         0.1148
     23 F23        21.1610   11.8420   32.9320 F         1 J72        -0.1966
     24 C24        20.0930    9.7450   32.6990 C.ar      1 J72        -0.0349
     25 C25        20.0790    8.4570   32.1560 C.ar      1 J72         0.0233
     26 H1         16.6858    7.9426   34.0498 H         1 J72         0.2918
     27 H2         22.3420    6.6963   29.3899 H         1 J72         0.0723
     28 H3         21.1342    5.3676   29.3407 H         1 J72         0.0723
     29 H4         21.1411    4.0768   31.8545 H         1 J72         0.0460
     30 H5         25.1547    2.8753   32.7359 H         1 J72         0.0460
     31 H6         26.8617    3.5896   30.9126 H         1 J72         0.0699
     32 H7         26.8692    5.0490   31.9599 H         1 J72         0.0699
     33 H8         26.1860    7.2006   28.9738 H         1 J72         0.0921
     34 H9         25.9951    7.1940   30.7599 H         1 J72         0.0921
     35 H10        22.9867    8.6113   30.3923 H         1 J72         0.0492
     36 H11        23.0116   10.8800   31.3673 H         1 J72         0.0556
     37 H12        19.2838   10.0743   33.3408 H         1 J72         0.0552
@<TRIPOS>BOND
     1    1    2 1  
     2    2    3 2  
     3    3    4 1  
     4    3   25 1  
     5    4    5 2  
     6    4    6 am 
     7    6    7 1  
     8    6   19 1  
     9    7    8 1  
    10    8    9 ar 
    11    8   18 ar 
    12    9   10 ar 
    13   10   11 1  
    14   10   12 ar 
    15   12   13 ar 
    16   13   14 1  
    17   13   18 ar 
    18   14   15 1  
    19   15   16 1  
    20   16   17 1  
    21   17   18 1  
    22   19   20 ar 
    23   19   25 ar 
    24   20   21 ar 
    25   21   22 ar 
    26   22   23 1  
    27   22   24 ar 
    28   24   25 ar 
    29    1   26 1  
    30    7   27 1  
    31    7   28 1  
    32    9   29 1  
    33   12   30 1  
    34   14   31 1  
    35   14   32 1  
    36   16   33 1  
    37   16   34 1  
    38   20   35 1  
    39   21   36 1  
    40   24   37 1  
@<TRIPOS>SUBSTRUCTURE
     1 J72         1

