### 
### Created by X-TOOL on Mon Sep 10 21:13:01 2018
### 

@<TRIPOS>MOLECULE
3g9e_ligand
   53    56     1     0     0
SMALL
GAST_HUCK


@<TRIPOS>ATOM
      1 C25         8.6760   27.4020   16.8050 C.3       1 RO7        -0.0015
      2 C7          8.0010   26.0540   16.6370 C.2       1 RO7         0.1140
      3 O3          7.7850   25.6650   15.3460 O.3       1 RO7        -0.2356
      4 C2          7.2280   24.4250   15.4530 C.2       1 RO7         0.1880
      5 C16         6.8410   23.5540   14.2800 C.ar      1 RO7         0.0316
      6 C26         6.1470   22.3510   14.5440 C.ar      1 RO7        -0.0496
      7 C29         5.7850   21.5090   13.4830 C.ar      1 RO7        -0.0613
      8 C31         6.1150   21.8640   12.1420 C.ar      1 RO7        -0.0620
      9 C30         6.8080   23.0710   11.8810 C.ar      1 RO7        -0.0613
     10 C27         7.1610   23.9060   12.9700 C.ar      1 RO7        -0.0496
     11 N1          7.0920   24.0920   16.7170 N.2       1 RO7        -0.3129
     12 C4          7.5200   25.0790   17.4540 C.2       1 RO7         0.0156
     13 C20         7.3280   24.8050   18.9150 C.3       1 RO7         0.0013
     14 C23         7.3100   25.9360   19.7640 C.3       1 RO7         0.0741
     15 O22         6.4130   26.9610   19.3420 O.3       1 RO7        -0.3221
     16 C13         5.1160   27.2920   19.7290 C.ar      1 RO7         0.0833
     17 C19         4.0430   26.4380   20.0400 C.ar      1 RO7        -0.0495
     18 C17         2.7830   26.9990   20.3740 C.ar      1 RO7        -0.0784
     19 C5          4.9770   28.6840   19.7630 C.ar      1 RO7         0.0011
     20 C15         6.0040   29.6560   19.5620 C.2       1 RO7        -0.0654
     21 C12         5.5570   30.9400   19.6120 C.2       1 RO7        -0.0099
     22 C6          3.7380   29.2420   20.0230 C.ar      1 RO7         0.0327
     23 S9          3.8430   30.9980   19.8180 S.3       1 RO7        -0.0489
     24 C8          2.6360   28.3910   20.4070 C.ar      1 RO7        -0.0376
     25 C11         1.3790   29.0180   20.8410 C.3       1 RO7         0.0120
     26 C14         0.4490   29.2260   19.6160 C.3       1 RO7         0.1174
     27 O24         0.9730   30.2260   18.7800 O.3       1 RO7        -0.3640
     28 C28         0.5930   30.0560   17.4000 C.3       1 RO7         0.0392
     29 C10        -0.9340   29.5870   20.0830 C.2       1 RO7         0.0653
     30 O21        -1.3170   30.7370   19.9340 O.co2     1 RO7        -0.5662
     31 O18        -1.6310   28.7040   20.6010 O.co2     1 RO7        -0.5662
     32 H1          8.8020   27.6180   17.8762 H         1 RO7         0.0409
     33 H2          8.0541   28.1835   16.3441 H         1 RO7         0.0409
     34 H3          9.6614   27.3821   16.3167 H         1 RO7         0.0409
     35 H4          5.8956   22.0805   15.5632 H         1 RO7         0.0626
     36 H5          5.2530   20.5859   13.6826 H         1 RO7         0.0617
     37 H6          5.8357   21.2107   11.3233 H         1 RO7         0.0615
     38 H7          7.0640   23.3513   10.8656 H         1 RO7         0.0617
     39 H8          7.6886   24.8339   12.7811 H         1 RO7         0.0626
     40 H9          8.1484   24.1506   19.2447 H         1 RO7         0.0384
     41 H10         6.3691   24.2797   19.0351 H         1 RO7         0.0384
     42 H11         8.3252   26.3578   19.8006 H         1 RO7         0.0627
     43 H12         7.0124   25.6084   20.7710 H         1 RO7         0.0627
     44 H13         4.1769   25.3624   20.0248 H         1 RO7         0.0449
     45 H14         1.9412   26.3551   20.6017 H         1 RO7         0.0474
     46 H15         7.0462   29.3941   19.3854 H         1 RO7         0.0413
     47 H16         6.1969   31.8175   19.5324 H         1 RO7         0.0744
     48 H17         1.5967   29.9916   21.3044 H         1 RO7         0.0436
     49 H18         0.8792   28.3669   21.5733 H         1 RO7         0.0436
     50 H19         0.3943   28.2859   19.0475 H         1 RO7         0.0785
     51 H20         1.0309   30.8650   16.7968 H         1 RO7         0.0525
     52 H21        -0.5032   30.0875   17.3150 H         1 RO7         0.0525
     53 H22         0.9614   29.0859   17.0350 H         1 RO7         0.0525
@<TRIPOS>BOND
     1    1    2 1  
     2    2    3 1  
     3    2   12 2  
     4    3    4 1  
     5    4    5 1  
     6    4   11 2  
     7    5    6 ar 
     8    5   10 ar 
     9    6    7 ar 
    10    7    8 ar 
    11    8    9 ar 
    12    9   10 ar 
    13   11   12 1  
    14   12   13 1  
    15   13   14 1  
    16   14   15 1  
    17   15   16 1  
    18   16   17 ar 
    19   16   19 ar 
    20   17   18 ar 
    21   18   24 ar 
    22   19   20 1  
    23   19   22 ar 
    24   20   21 2  
    25   21   23 1  
    26   22   23 1  
    27   22   24 ar 
    28   24   25 1  
    29   25   26 1  
    30   26   27 1  
    31   26   29 1  
    32   27   28 1  
    33   29   30 ar 
    34   29   31 ar 
    35    1   32 1  
    36    1   33 1  
    37    1   34 1  
    38    6   35 1  
    39    7   36 1  
    40    8   37 1  
    41    9   38 1  
    42   10   39 1  
    43   13   40 1  
    44   13   41 1  
    45   14   42 1  
    46   14   43 1  
    47   17   44 1  
    48   18   45 1  
    49   20   46 1  
    50   21   47 1  
    51   25   48 1  
    52   25   49 1  
    53   26   50 1  
    54   28   51 1  
    55   28   52 1  
    56   28   53 1  
@<TRIPOS>SUBSTRUCTURE
     1 RO7         1

