### 
### Created by X-TOOL on Mon Sep 10 21:13:01 2018
### 

@<TRIPOS>MOLECULE
3g9l_ligand
   51    55     1     0     0
SMALL
GAST_HUCK


@<TRIPOS>ATOM
      1 O1         17.9830    6.2560   33.0480 O.3       1 J67        -0.2352
      2 N2         18.7530    7.4310   32.9490 N.2       1 J67        -0.1206
      3 C3         19.7720    7.3550   32.1670 C.2       1 J67         0.1591
      4 C4         20.2170    6.1770   31.3870 C.2       1 J67         0.2487
      5 O5         19.6450    5.1050   31.3070 O.2       1 J67        -0.3724
      6 N6         21.3730    6.4990   30.7980 N.am      1 J67        -0.2104
      7 C7         22.0690    5.5860   29.8960 C.3       1 J67         0.0842
      8 C8         23.0050    4.6740   30.6320 C.ar      1 J67         0.0060
      9 C9         22.5260    3.7480   31.5350 C.ar      1 J67        -0.0398
     10 C10        23.4250    2.9250   32.1940 C.ar      1 J67         0.1077
     11 F11        22.9570    2.0100   33.0750 F         1 J67        -0.1963
     12 C12        24.7930    3.0290   31.9410 C.ar      1 J67        -0.0400
     13 C13        25.2620    3.9650   31.0260 C.ar      1 J67         0.0040
     14 C14        26.7330    4.1040   30.7210 C.3       1 J67         0.0805
     15 O15        26.8710    4.6480   29.3900 O.3       1 J67        -0.3399
     16 C16        26.1800    5.8900   29.1980 C.3       1 J67         0.1680
     17 O17        24.7740    5.7130   29.4570 O.3       1 J67        -0.3012
     18 C18        24.3620    4.7820   30.3650 C.ar      1 J67         0.0974
     19 C19        21.7240    7.8280   31.0670 C.ar      1 J67         0.0784
     20 C20        22.7800    8.6270   30.6390 C.ar      1 J67        -0.0413
     21 C21        22.8600    9.9510   31.0300 C.ar      1 J67        -0.0754
     22 C22        21.8970   10.5100   31.8590 C.ar      1 J67        -0.0703
     23 C23        20.8110    9.7330   32.2940 C.ar      1 J67        -0.0312
     24 C24        19.7460   10.2870   33.1510 C.2       1 J67        -0.0585
     25 C25        19.6210   11.6220   33.2210 C.2       1 J67        -0.0553
     26 C26        18.5870   12.2930   34.0320 C.ar      1 J67        -0.0259
     27 C27        18.1490   11.7400   35.2520 C.ar      1 J67        -0.0550
     28 C28        17.1780   12.3910   35.9940 C.ar      1 J67        -0.0615
     29 C29        16.6360   13.5860   35.5310 C.ar      1 J67        -0.0620
     30 C30        17.0570   14.1440   34.3230 C.ar      1 J67        -0.0615
     31 C31        18.0310   13.5050   33.5700 C.ar      1 J67        -0.0550
     32 C32        20.7400    8.4020   31.8820 C.ar      1 J67         0.0320
     33 H1         17.2569    6.4037   33.6425 H         1 J67         0.2923
     34 H2         22.6465    6.1762   29.1693 H         1 J67         0.0724
     35 H3         21.3242    4.9761   29.3638 H         1 J67         0.0724
     36 H4         21.4622    3.6653   31.7263 H         1 J67         0.0460
     37 H5         25.4905    2.3799   32.4579 H         1 J67         0.0460
     38 H6         27.2182    3.1181   30.7719 H         1 J67         0.0699
     39 H7         27.2016    4.7814   31.4500 H         1 J67         0.0699
     40 H8         26.3201    6.2290   28.1610 H         1 J67         0.0921
     41 H9         26.5861    6.6440   29.8883 H         1 J67         0.0921
     42 H10        23.5449    8.2087   29.9948 H         1 J67         0.0504
     43 H11        23.6866   10.5611   30.6842 H         1 J67         0.0569
     44 H12        21.9831   11.5448   32.1702 H         1 J67         0.0497
     45 H13        19.0801    9.6320   33.7109 H         1 J67         0.0618
     46 H14        20.3155   12.2386   32.6524 H         1 J67         0.0614
     47 H15        18.5712   10.8074   35.6086 H         1 J67         0.0621
     48 H16        16.8405   11.9703   36.9343 H         1 J67         0.0617
     49 H17        15.8762   14.0906   36.1167 H         1 J67         0.0615
     50 H18        16.6239   15.0745   33.9741 H         1 J67         0.0617
     51 H19        18.3633   13.9343   32.6317 H         1 J67         0.0621
@<TRIPOS>BOND
     1    1    2 1  
     2    2    3 2  
     3    3    4 1  
     4    3   32 1  
     5    4    5 2  
     6    4    6 am 
     7    6    7 1  
     8    6   19 1  
     9    7    8 1  
    10    8    9 ar 
    11    8   18 ar 
    12    9   10 ar 
    13   10   11 1  
    14   10   12 ar 
    15   12   13 ar 
    16   13   14 1  
    17   13   18 ar 
    18   14   15 1  
    19   15   16 1  
    20   16   17 1  
    21   17   18 1  
    22   19   20 ar 
    23   19   32 ar 
    24   20   21 ar 
    25   21   22 ar 
    26   22   23 ar 
    27   23   24 1  
    28   23   32 ar 
    29   24   25 2  
    30   25   26 1  
    31   26   27 ar 
    32   26   31 ar 
    33   27   28 ar 
    34   28   29 ar 
    35   29   30 ar 
    36   30   31 ar 
    37    1   33 1  
    38    7   34 1  
    39    7   35 1  
    40    9   36 1  
    41   12   37 1  
    42   14   38 1  
    43   14   39 1  
    44   16   40 1  
    45   16   41 1  
    46   20   42 1  
    47   21   43 1  
    48   22   44 1  
    49   24   45 1  
    50   25   46 1  
    51   27   47 1  
    52   28   48 1  
    53   29   49 1  
    54   30   50 1  
    55   31   51 1  
@<TRIPOS>SUBSTRUCTURE
     1 J67         1

