### 
### Created by X-TOOL on Mon Sep 10 21:13:01 2018
### 

@<TRIPOS>MOLECULE
3g9n_ligand
   47    51     1     0     0
SMALL
GAST_HUCK


@<TRIPOS>ATOM
      1 O1         18.0180   29.6100   20.8440 O.3       1 J88        -0.2354
      2 N2         18.7760   28.4110   20.8220 N.2       1 J88        -0.1208
      3 C3         19.9320   28.3700   21.4380 C.2       1 J88         0.1591
      4 C4         20.4830   29.4920   22.2080 C.2       1 J88         0.2486
      5 O5         19.9650   30.5860   22.2730 O.2       1 J88        -0.3725
      6 N6         21.5930   29.0600   22.8140 N.am      1 J88        -0.2104
      7 C7         22.4190   29.8590   23.7080 C.3       1 J88         0.0843
      8 C8         23.2760   30.8480   22.9880 C.ar      1 J88         0.0060
      9 C9         22.7090   31.7570   22.1190 C.ar      1 J88        -0.0398
     10 C10        23.5110   32.6720   21.4710 C.ar      1 J88         0.1077
     11 F11        22.9400   33.5430   20.6200 F         1 J88        -0.1963
     12 C12        24.8860   32.6860   21.7000 C.ar      1 J88        -0.0400
     13 C13        25.4490   31.7710   22.5800 C.ar      1 J88         0.0040
     14 C14        26.9300   31.7660   22.8420 C.3       1 J88         0.0805
     15 O15        27.1540   31.1600   24.1240 O.3       1 J88        -0.3399
     16 C16        26.5980   29.8390   24.2180 C.3       1 J88         0.1680
     17 O17        25.1690   29.9360   24.1060 O.3       1 J88        -0.3012
     18 C18        24.6430   30.8480   23.2330 C.ar      1 J88         0.0974
     19 C19        21.8800   27.7400   22.5000 C.ar      1 J88         0.0784
     20 C20        22.9540   26.9210   22.8790 C.ar      1 J88        -0.0416
     21 C21        23.0500   25.6160   22.4170 C.ar      1 J88        -0.0758
     22 C22        22.0790   25.1210   21.5710 C.ar      1 J88        -0.0701
     23 C23        20.9930   25.9130   21.1620 C.ar      1 J88        -0.0243
     24 C24        20.9020   27.2520   21.6200 C.ar      1 J88         0.0325
     25 C25        19.9810   25.3210   20.2350 C.ar      1 J88        -0.0221
     26 C26        18.9930   26.0990   19.6240 C.ar      1 J88        -0.0548
     27 C27        18.0710   25.5410   18.7630 C.ar      1 J88        -0.0615
     28 C28        18.1240   24.1850   18.4880 C.ar      1 J88        -0.0620
     29 C29        19.0870   23.3860   19.0790 C.ar      1 J88        -0.0615
     30 C30        20.0080   23.9520   19.9450 C.ar      1 J88        -0.0548
     31 H1         17.2119   29.4827   20.3578 H         1 J88         0.2920
     32 H2         23.0708   29.1825   24.2803 H         1 J88         0.0724
     33 H3         21.7599   30.4049   24.3990 H         1 J88         0.0724
     34 H4         21.6388   31.7518   21.9467 H         1 J88         0.0460
     35 H5         25.5141   33.4092   21.1925 H         1 J88         0.0460
     36 H6         27.3115   32.7977   22.8455 H         1 J88         0.0699
     37 H7         27.4449   31.1873   22.0610 H         1 J88         0.0699
     38 H8         26.8646   29.3925   25.1873 H         1 J88         0.0921
     39 H9         26.9920   29.2120   23.4046 H         1 J88         0.0921
     40 H10        23.7182   27.3123   23.5408 H         1 J88         0.0502
     41 H11        23.8820   24.9900   22.7186 H         1 J88         0.0567
     42 H12        22.1556   24.1001   21.2146 H         1 J88         0.0495
     43 H13        18.9507   27.1622   19.8311 H         1 J88         0.0621
     44 H14        17.3091   26.1607   18.3042 H         1 J88         0.0617
     45 H15        17.4059   23.7461   17.8048 H         1 J88         0.0615
     46 H16        19.1204   22.3237   18.8655 H         1 J88         0.0617
     47 H17        20.7622   23.3243   20.4058 H         1 J88         0.0621
@<TRIPOS>BOND
     1    1    2 1  
     2    2    3 2  
     3    3    4 1  
     4    3   24 1  
     5    4    5 2  
     6    4    6 am 
     7    6    7 1  
     8    6   19 1  
     9    7    8 1  
    10    8    9 ar 
    11    8   18 ar 
    12    9   10 ar 
    13   10   11 1  
    14   10   12 ar 
    15   12   13 ar 
    16   13   14 1  
    17   13   18 ar 
    18   14   15 1  
    19   15   16 1  
    20   16   17 1  
    21   17   18 1  
    22   19   20 ar 
    23   19   24 ar 
    24   20   21 ar 
    25   21   22 ar 
    26   22   23 ar 
    27   23   24 ar 
    28   23   25 1  
    29   25   26 ar 
    30   25   30 ar 
    31   26   27 ar 
    32   27   28 ar 
    33   28   29 ar 
    34   29   30 ar 
    35    1   31 1  
    36    7   32 1  
    37    7   33 1  
    38    9   34 1  
    39   12   35 1  
    40   14   36 1  
    41   14   37 1  
    42   16   38 1  
    43   16   39 1  
    44   20   40 1  
    45   21   41 1  
    46   22   42 1  
    47   26   43 1  
    48   27   44 1  
    49   28   45 1  
    50   29   46 1  
    51   30   47 1  
@<TRIPOS>SUBSTRUCTURE
     1 J88         1

