### 
### Created by X-TOOL on Mon Sep 10 21:13:00 2018
### 

@<TRIPOS>MOLECULE
3ga5_ligand
   35    35     1     0     0
SMALL
GAST_HUCK


@<TRIPOS>ATOM
      1 O3'        -1.0070   -5.2180   -2.9310 O.3       1 RGG        -0.3924
      2 C3'        -0.1820   -4.1040   -2.5580 C.3       1 RGG         0.0723
      3 C2'         0.6030   -4.4910   -1.3140 C.3       1 RGG         0.1015
      4 O2'         1.7300   -3.6070   -1.2030 O.3       1 RGG        -0.3872
      5 C1'        -0.3480   -4.3050   -0.1340 C.3       1 RGG         0.0788
      6 O1          0.3390   -4.5460    1.0790 O.3       1 RGG        -0.3461
      7 C1         -0.4170   -4.3050    2.2670 C.3       1 RGG         0.1880
      8 C2          0.3820   -4.8360    3.4550 C.3       1 RGG         0.1341
      9 O2          0.3440   -6.2730    3.4080 O.3       1 RGG        -0.3841
     10 C3         -0.1860   -4.3900    4.7930 C.3       1 RGG         0.1141
     11 O3          0.7310   -4.7370    5.8490 O.3       1 RGG        -0.3864
     12 C4         -0.4470   -2.8860    4.7920 C.3       1 RGG         0.1119
     13 O4          0.7970   -2.1780    4.7100 O.3       1 RGG        -0.3865
     14 C5         -1.3330   -2.5080    3.6090 C.3       1 RGG         0.1130
     15 O5         -0.6890   -2.8980    2.3870 O.3       1 RGG        -0.3405
     16 C6         -1.5660   -0.9960    3.5910 C.3       1 RGG         0.0730
     17 O6         -2.0770   -0.5720    2.3160 O.3       1 RGG        -0.3924
     18 H1         -1.6018   -5.4225   -2.2191 H         1 RGG         0.2095
     19 H2         -0.8127   -3.2287   -2.3432 H         1 RGG         0.0583
     20 H3          0.5122   -3.8638   -3.3768 H         1 RGG         0.0583
     21 H4          0.9451   -5.5348   -1.3720 H         1 RGG         0.0639
     22 H5          2.2765   -3.6939   -1.9752 H         1 RGG         0.2100
     23 H6         -1.1859   -5.0118   -0.2255 H         1 RGG         0.0587
     24 H7         -0.7350   -3.2753   -0.1359 H         1 RGG         0.0587
     25 H8         -1.3734   -4.8453    2.2089 H         1 RGG         0.0937
     26 H9          1.4214   -4.4854    3.3732 H         1 RGG         0.0671
     27 H10         0.8362   -6.6258    4.1400 H         1 RGG         0.2101
     28 H11        -1.1389   -4.9120    4.9645 H         1 RGG         0.0648
     29 H12         0.8597   -5.6782    5.8586 H         1 RGG         0.2100
     30 H13        -0.9580   -2.6097    5.7261 H         1 RGG         0.0647
     31 H14         1.3381   -2.4032    5.4576 H         1 RGG         0.2100
     32 H15        -2.2994   -3.0259    3.6972 H         1 RGG         0.0647
     33 H16        -0.6132   -0.4822    3.7862 H         1 RGG         0.0584
     34 H17        -2.2914   -0.7338    4.3752 H         1 RGG         0.0584
     35 H18        -1.4518   -0.7937    1.6359 H         1 RGG         0.2095
@<TRIPOS>BOND
     1    1    2 1  
     2    2    3 1  
     3    3    4 1  
     4    3    5 1  
     5    5    6 1  
     6    6    7 1  
     7    7    8 1  
     8    7   15 1  
     9    8    9 1  
    10    8   10 1  
    11   10   11 1  
    12   10   12 1  
    13   12   13 1  
    14   12   14 1  
    15   14   15 1  
    16   14   16 1  
    17   16   17 1  
    18    1   18 1  
    19    2   19 1  
    20    2   20 1  
    21    3   21 1  
    22    4   22 1  
    23    5   23 1  
    24    5   24 1  
    25    7   25 1  
    26    8   26 1  
    27    9   27 1  
    28   10   28 1  
    29   11   29 1  
    30   12   30 1  
    31   13   31 1  
    32   14   32 1  
    33   16   33 1  
    34   16   34 1  
    35   17   35 1  
@<TRIPOS>SUBSTRUCTURE
     1 RGG         1

