### 
### Created by X-TOOL on Mon Sep 10 21:13:04 2018
### 

@<TRIPOS>MOLECULE
3gb2_ligand
   39    42     1     0     0
SMALL
GAST_HUCK


@<TRIPOS>ATOM
      1 O21        25.2600   15.3140    4.4490 O.3       1 G3B        -0.3165
      2 S24        26.5780   14.6940    4.7990 S.3       1 G3B        -0.0154
      3 C18        26.7030   13.0690    4.0250 C.3       1 G3B         0.0164
      4 C14        27.8280   15.8350    4.1750 C.ar      1 G3B         0.0639
      5 C5         27.4840   16.7070    3.1400 C.ar      1 G3B        -0.0169
      6 C6         29.1080   15.8460    4.7080 C.ar      1 G3B        -0.0169
      7 C3         30.0420   16.7360    4.2050 C.ar      1 G3B        -0.0259
      8 C10        29.6960   17.5970    3.1690 C.ar      1 G3B         0.0328
      9 C2         28.4170   17.5990    2.6300 C.ar      1 G3B        -0.0259
     10 C12        30.7110   18.5390    2.6470 C.2       1 G3B         0.1012
     11 C9         32.0350   18.1740    2.0450 C.ar      1 G3B         0.0658
     12 C13        32.6450   19.4440    1.7090 C.ar      1 G3B         0.1753
     13 O22        31.7880   20.4900    2.0660 O.3       1 G3B        -0.1850
     14 C8         30.5670   19.9290    2.6610 C.2       1 G3B         0.1921
     15 C4         33.8830   19.5230    1.1300 C.ar      1 G3B        -0.0032
     16 C7         32.6880   16.9870    1.7830 C.ar      1 G3B        -0.0203
     17 C11        33.9400   17.0860    1.2030 C.ar      1 G3B         0.0539
     18 C1         34.5070   18.3150    0.8760 C.ar      1 G3B        -0.0347
     19 C15        34.6890   15.8600    0.8600 C.2       1 G3B         0.2182
     20 O23        34.4080   14.5910    1.2630 O.3       1 G3B        -0.1913
     21 C16        35.3360   13.7940    0.6560 C.2       1 G3B         0.1974
     22 C17        35.2290   12.3230    0.9530 C.3       1 G3B         0.0296
     23 N20        36.1750   14.5050   -0.1110 N.2       1 G3B        -0.2476
     24 N19        35.7450   15.8300    0.0230 N.2       1 G3B        -0.2470
     25 H1         24.5564   14.7581    4.7631 H         1 G3B         0.2338
     26 H2         27.6709   12.6139    4.2821 H         1 G3B         0.0394
     27 H3         26.6268   13.1762    2.9329 H         1 G3B         0.0394
     28 H4         25.8876   12.4262    4.3881 H         1 G3B         0.0394
     29 H5         26.4801   16.6871    2.7316 H         1 G3B         0.0674
     30 H6         29.3744   15.1659    5.5090 H         1 G3B         0.0674
     31 H7         31.0435   16.7617    4.6190 H         1 G3B         0.0775
     32 H8         28.1531   18.2810    1.8298 H         1 G3B         0.0775
     33 H9         29.7135   20.4891    3.0402 H         1 G3B         0.1851
     34 H10        34.3452   20.4727    0.8859 H         1 G3B         0.0685
     35 H11        32.2432   16.0271    2.0193 H         1 G3B         0.0826
     36 H12        35.4813   18.3255    0.4010 H         1 G3B         0.0716
     37 H13        36.0210   11.7817    0.4148 H         1 G3B         0.0501
     38 H14        34.2456   11.9536    0.6267 H         1 G3B         0.0501
     39 H15        35.3422   12.1581    2.0347 H         1 G3B         0.0501
@<TRIPOS>BOND
     1    1    2 1  
     2    2    3 1  
     3    2    4 1  
     4    4    5 ar 
     5    4    6 ar 
     6    5    9 ar 
     7    6    7 ar 
     8    7    8 ar 
     9    8    9 ar 
    10    8   10 1  
    11   10   11 1  
    12   10   14 2  
    13   11   12 ar 
    14   11   16 ar 
    15   12   13 1  
    16   12   15 ar 
    17   13   14 1  
    18   15   18 ar 
    19   16   17 ar 
    20   17   18 ar 
    21   17   19 1  
    22   19   20 1  
    23   19   24 2  
    24   20   21 1  
    25   21   22 1  
    26   21   23 2  
    27   23   24 1  
    28    1   25 1  
    29    3   26 1  
    30    3   27 1  
    31    3   28 1  
    32    5   29 1  
    33    6   30 1  
    34    7   31 1  
    35    9   32 1  
    36   14   33 1  
    37   15   34 1  
    38   16   35 1  
    39   18   36 1  
    40   22   37 1  
    41   22   38 1  
    42   22   39 1  
@<TRIPOS>SUBSTRUCTURE
     1 G3B         1

