### 
### Created by X-TOOL on Mon Sep 10 21:12:59 2018
### 

@<TRIPOS>MOLECULE
3gba_ligand
   41    42     1     0     0
SMALL
GAST_HUCK


@<TRIPOS>ATOM
      1 CAA       -12.9450   56.4700   50.2300 C.3       1 DYH        -0.0444
      2 NH        -13.8240   55.3500   49.8840 N.4       1 DYH         0.2308
      3 CAH       -14.9600   55.2470   50.8370 C.3       1 DYH         0.0349
      4 CAG       -15.7400   53.9760   50.5360 C.3       1 DYH         0.1232
      5 OAC       -16.0210   53.8550   49.1380 O.3       1 DYH        -0.3838
      6 CAP       -17.0530   53.9740   51.2990 C.3       1 DYH         0.0794
      7 OAQ       -17.8540   55.0610   50.8870 O.3       1 DYH        -0.3710
      8 CAR       -17.2750   56.3240   51.2770 C.3       1 DYH         0.0923
      9 CAS       -18.0060   57.4090   50.5200 C.3       1 DYH         0.0103
     10 CAI       -15.8580   56.4880   50.7490 C.3       1 DYH         0.1293
     11 OAJ       -16.0140   56.8060   49.3470 O.3       1 DYH        -0.3574
     12 CAK       -17.2830   57.4320   49.1600 C.3       1 DYH         0.1231
     13 CAE       -18.1120   56.6590   48.1350 C.2       1 DYH         0.0769
     14 OAB       -17.7430   55.5050   47.8190 O.co2     1 DYH        -0.5451
     15 OAF       -19.1060   57.2420   47.6900 O.co2     1 DYH        -0.5451
     16 CB        -17.0880   58.8910   48.7430 C.3       1 DYH         0.0363
     17 CA        -16.4560   59.0990   47.3520 C.3       1 DYH         0.0305
     18 C         -16.7420   60.5240   46.9100 C.2       1 DYH         0.0844
     19 OXT       -17.9360   60.8930   46.9840 O.co2     1 DYH        -0.5643
     20 O         -15.7810   61.2340   46.5310 O.co2     1 DYH        -0.5643
     21 N         -15.0090   58.8300   47.3170 N.4       1 DYH         0.2327
     22 H1        -12.1156   56.5213   49.5093 H         1 DYH         0.0777
     23 H2        -12.5421   56.3207   51.2426 H         1 DYH         0.0777
     24 H3        -13.5173   57.4088   50.1978 H         1 DYH         0.0777
     25 H4        -13.2927   54.4939   49.9115 H         1 DYH         0.2015
     26 H5        -14.1863   55.4910   48.9540 H         1 DYH         0.2015
     27 H6        -14.5603   55.1815   51.8597 H         1 DYH         0.0904
     28 H7        -15.1379   53.1120   50.8537 H         1 DYH         0.0674
     29 H8        -16.5369   54.6005   48.8542 H         1 DYH         0.2101
     30 H9        -16.8482   54.0606   52.3763 H         1 DYH         0.0588
     31 H10       -17.5872   53.0329   51.1018 H         1 DYH         0.0588
     32 H11       -17.3245   56.4555   52.3680 H         1 DYH         0.0624
     33 H12       -17.9150   58.3782   51.0322 H         1 DYH         0.0311
     34 H13       -19.0698   57.1574   50.3977 H         1 DYH         0.0311
     35 H14       -15.3687   57.3143   51.2855 H         1 DYH         0.0679
     36 H15       -16.4376   59.3734   49.4875 H         1 DYH         0.0359
     37 H16       -18.0734   59.3799   48.7452 H         1 DYH         0.0359
     38 H17       -16.9415   58.4065   46.6486 H         1 DYH         0.1024
     39 H18       -14.6611   58.9842   46.3836 H         1 DYH         0.2010
     40 H19       -14.8384   57.8735   47.5854 H         1 DYH         0.2010
     41 H20       -14.5367   59.4482   47.9580 H         1 DYH         0.2010
@<TRIPOS>BOND
     1    1    2 1  
     2    2    3 1  
     3    3    4 1  
     4    3   10 1  
     5    4    5 1  
     6    4    6 1  
     7    6    7 1  
     8    7    8 1  
     9    8    9 1  
    10    8   10 1  
    11    9   12 1  
    12   10   11 1  
    13   11   12 1  
    14   12   13 1  
    15   12   16 1  
    16   13   14 ar 
    17   13   15 ar 
    18   16   17 1  
    19   17   18 1  
    20   17   21 1  
    21   18   19 ar 
    22   18   20 ar 
    23    1   22 1  
    24    1   23 1  
    25    1   24 1  
    26    2   25 1  
    27    2   26 1  
    28    3   27 1  
    29    4   28 1  
    30    5   29 1  
    31    6   30 1  
    32    6   31 1  
    33    8   32 1  
    34    9   33 1  
    35    9   34 1  
    36   10   35 1  
    37   16   36 1  
    38   16   37 1  
    39   17   38 1  
    40   21   39 1  
    41   21   40 1  
    42   21   41 1  
@<TRIPOS>SUBSTRUCTURE
     1 DYH         1

