### 
### Created by X-TOOL on Mon Sep 10 21:13:01 2018
### 

@<TRIPOS>MOLECULE
3gbb_ligand
   34    35     1     0     0
SMALL
GAST_HUCK


@<TRIPOS>ATOM
      1 O          -0.8170   45.2370   -0.9810 O.co2     1 MS8        -0.5643
      2 C          -1.0370   44.0780   -0.5690 C.2       1 MS8         0.0844
      3 OXT        -1.5230   43.1350   -1.2330 O.co2     1 MS8        -0.5643
      4 CA         -0.6620   43.7910    0.8850 C.3       1 MS8         0.0305
      5 N          -0.9680   42.3940    1.2250 N.4       1 MS8         0.2327
      6 CB          0.8300   44.0870    1.0630 C.3       1 MS8         0.0363
      7 CAS         1.2030   44.1780    2.5440 C.3       1 MS8         0.1229
      8 CAJ         2.7070   44.4540    2.6510 C.3       1 MS8         0.0101
      9 CAN         0.3910   45.2750    3.2340 C.2       1 MS8         0.0769
     10 OAC        -0.1330   44.9940    4.3340 O.co2     1 MS8        -0.5451
     11 OAE         0.2960   46.3700    2.6380 O.co2     1 MS8        -0.5451
     12 OAL         1.0080   42.9110    3.1830 O.3       1 MS8        -0.3631
     13 CAR         2.1810   42.1810    2.8020 C.3       1 MS8         0.0848
     14 CAQ         3.2570   43.1570    3.2470 C.3       1 MS8         0.0868
     15 CAH         2.2610   40.8620    3.5720 C.3       1 MS8        -0.0222
     16 CAP         2.4000   41.1160    5.0730 C.3       1 MS8        -0.0270
     17 CAG         3.5820   42.0530    5.3200 C.3       1 MS8         0.0482
     18 OAK         3.2970   43.3040    4.6760 O.3       1 MS8        -0.3740
     19 H1         -1.2420   44.4508    1.5469 H         1 MS8         0.1024
     20 H2         -0.7161   42.2190    2.1852 H         1 MS8         0.2010
     21 H3         -0.4437   41.7790    0.6226 H         1 MS8         0.2010
     22 H4         -1.9541   42.2261    1.1004 H         1 MS8         0.2010
     23 H5          1.0670   45.0434    0.5739 H         1 MS8         0.0359
     24 H6          1.4141   43.2810    0.5948 H         1 MS8         0.0359
     25 H7          2.9053   45.3085    3.3146 H         1 MS8         0.0311
     26 H8          3.1439   44.6497    1.6606 H         1 MS8         0.0311
     27 H9          2.2202   41.9883    1.7197 H         1 MS8         0.0620
     28 H10         4.2497   42.8891    2.8561 H         1 MS8         0.0622
     29 H11         3.1336   40.2919    3.2206 H         1 MS8         0.0292
     30 H12         1.3452   40.2811    3.3881 H         1 MS8         0.0292
     31 H13         2.5728   40.1620    5.5926 H         1 MS8         0.0288
     32 H14         1.4781   41.5794    5.4541 H         1 MS8         0.0288
     33 H15         4.4993   41.6163    4.8983 H         1 MS8         0.0560
     34 H16         3.7141   42.2108    6.4006 H         1 MS8         0.0560
@<TRIPOS>BOND
     1    1    2 ar 
     2    2    3 ar 
     3    2    4 1  
     4    4    5 1  
     5    4    6 1  
     6    6    7 1  
     7    7    8 1  
     8    7    9 1  
     9    7   12 1  
    10    8   14 1  
    11    9   10 ar 
    12    9   11 ar 
    13   12   13 1  
    14   13   14 1  
    15   13   15 1  
    16   14   18 1  
    17   15   16 1  
    18   16   17 1  
    19   17   18 1  
    20    4   19 1  
    21    5   20 1  
    22    5   21 1  
    23    5   22 1  
    24    6   23 1  
    25    6   24 1  
    26    8   25 1  
    27    8   26 1  
    28   13   27 1  
    29   14   28 1  
    30   15   29 1  
    31   15   30 1  
    32   16   31 1  
    33   16   32 1  
    34   17   33 1  
    35   17   34 1  
@<TRIPOS>SUBSTRUCTURE
     1 MS8         1

