### 
### Created by X-TOOL on Mon Sep 10 21:12:59 2018
### 

@<TRIPOS>MOLECULE
3gbe_ligand
   25    25     1     0     0
SMALL
GAST_HUCK


@<TRIPOS>ATOM
      1 C1         14.7580   37.5350   43.9990 C.3       1 NOJ        -0.0040
      2 C2         13.6700   38.2030   44.8930 C.3       1 NOJ         0.1231
      3 O2         12.9730   37.2300   45.6300 O.3       1 NOJ        -0.3838
      4 C3         12.6850   38.9840   43.9780 C.3       1 NOJ         0.1171
      5 O3         11.6180   39.5710   44.7120 O.3       1 NOJ        -0.3862
      6 C4         13.4910   40.1120   43.2790 C.3       1 NOJ         0.1280
      7 O4         12.6110   40.8870   42.4100 O.3       1 NOJ        -0.3835
      8 C5         14.6860   39.4810   42.4710 C.3       1 NOJ         0.0301
      9 N5         15.5260   38.5940   43.2680 N.4       1 NOJ         0.2346
     10 C6         15.6330   40.5800   41.8760 C.3       1 NOJ         0.0893
     11 O6         16.2290   41.2760   43.0650 O.3       1 NOJ        -0.3894
     12 H1         14.2746   36.8656   43.2722 H         1 NOJ         0.0840
     13 H2         15.4458   36.9544   44.6313 H         1 NOJ         0.0840
     14 H3         14.1529   38.9031   45.5906 H         1 NOJ         0.0674
     15 H4         12.3148   37.6535   46.1685 H         1 NOJ         0.2101
     16 H5         12.2679   38.2987   43.2254 H         1 NOJ         0.0649
     17 H6         11.1290   38.8892   45.1578 H         1 NOJ         0.2100
     18 H7         13.9029   40.7834   44.0468 H         1 NOJ         0.0678
     19 H8         13.1114   41.5745   41.9864 H         1 NOJ         0.2102
     20 H9         14.2535   38.8999   41.6432 H         1 NOJ         0.0900
     21 H10        16.1852   38.1424   42.6535 H         1 NOJ         0.2019
     22 H11        16.0243   39.1505   43.9448 H         1 NOJ         0.2019
     23 H12        15.0605   41.2900   41.2611 H         1 NOJ         0.0614
     24 H13        16.4222   40.1184   41.2643 H         1 NOJ         0.0614
     25 H14        16.7107   40.6475   43.5899 H         1 NOJ         0.2097
@<TRIPOS>BOND
     1    1    2 1  
     2    1    9 1  
     3    2    3 1  
     4    2    4 1  
     5    4    5 1  
     6    4    6 1  
     7    6    7 1  
     8    6    8 1  
     9    8    9 1  
    10    8   10 1  
    11   10   11 1  
    12    1   12 1  
    13    1   13 1  
    14    2   14 1  
    15    3   15 1  
    16    4   16 1  
    17    5   17 1  
    18    6   18 1  
    19    7   19 1  
    20    8   20 1  
    21    9   21 1  
    22    9   22 1  
    23   10   23 1  
    24   10   24 1  
    25   11   25 1  
@<TRIPOS>SUBSTRUCTURE
     1 NOJ         1

