### 
### Created by X-TOOL on Mon Sep 10 21:12:59 2018
### 

@<TRIPOS>MOLECULE
3gc4_ligand
   50    53     1     0     0
SMALL
GAST_HUCK


@<TRIPOS>ATOM
      1 N1         19.1940   17.7830   18.0840 N.2       1 AAQ        -0.2095
      2 C3         18.4630   17.4240   19.1900 C.ar      1 AAQ         0.1026
      3 C2         18.7390   17.4460   20.5560 C.ar      1 AAQ         0.0077
      4 C4         17.6900   17.0930   21.4020 C.ar      1 AAQ         0.1183
      5 C5         16.4550   16.6170   20.9130 C.ar      1 AAQ         0.1471
      6 C6         16.2410   16.5210   19.5190 C.ar      1 AAQ         0.0832
      7 C7         14.9170   16.1430   18.8990 C.3       1 AAQ         0.0425
      8 C8         15.0480   14.7270   18.3610 C.3       1 AAQ        -0.0189
      9 N2         14.1730   14.5010   17.1950 N.4       1 AAQ         0.2411
     10 C9         12.7390   14.3210   17.5730 C.3       1 AAQ         0.0004
     11 C10        11.9520   15.4770   17.0370 C.ar      1 AAQ         0.0013
     12 C11        11.7080   16.5890   17.8340 C.ar      1 AAQ        -0.0553
     13 C12        10.9800   17.6800   17.3630 C.ar      1 AAQ        -0.0684
     14 C13        10.4960   17.6270   16.0620 C.ar      1 AAQ        -0.0687
     15 C14        10.7350   16.5180   15.2530 C.ar      1 AAQ        -0.0684
     16 C15        11.4640   15.4320   15.7310 C.ar      1 AAQ        -0.0553
     17 C16        17.2660   16.9660   18.6650 C.ar      1 AAQ         0.1425
     18 N3         17.2590   17.0560   17.2950 N.pl3     1 AAQ        -0.1975
     19 C17        18.3810   17.6530   16.9790 C.2       1 AAQ         0.2812
     20 N4         18.9100   17.8630   15.7620 N.pl3     1 AAQ        -0.2505
     21 C1         18.0740   17.7240   14.5990 C.3       1 AAQ         0.0333
     22 N5         15.4210   16.3180   21.8320 N.pl3     1 AAQ        -0.2460
     23 C18        15.5640   16.5040   23.1180 C.cat     1 AAQ         0.1880
     24 N6         14.6120   16.0810   24.0300 N.pl3     1 AAQ        -0.3360
     25 N7         16.7650   16.9430   23.6460 N.am      1 AAQ        -0.2591
     26 C19        17.8760   17.2060   22.8550 C.2       1 AAQ         0.2059
     27 O1         18.9780   17.5150   23.3130 O.2       1 AAQ        -0.3908
     28 H1         19.7149   17.7222   20.9386 H         1 AAQ         0.0918
     29 H2         14.6760   16.8350   18.0786 H         1 AAQ         0.0541
     30 H3         14.1222   16.1835   19.6583 H         1 AAQ         0.0541
     31 H4         14.7731   14.0174   19.1553 H         1 AAQ         0.0847
     32 H5         16.0923   14.5552   18.0611 H         1 AAQ         0.0847
     33 H6         14.4855   13.6723   16.7137 H         1 AAQ         0.2030
     34 H7         14.2462   15.2953   16.5787 H         1 AAQ         0.2030
     35 H8         12.6465   14.2866   18.6686 H         1 AAQ         0.0980
     36 H9         12.3579   13.3829   17.1432 H         1 AAQ         0.0980
     37 H10        12.0934   16.6082   18.8470 H         1 AAQ         0.0558
     38 H11        10.7971   18.5434   17.9925 H         1 AAQ         0.0599
     39 H12         9.9241   18.4605   15.6705 H         1 AAQ         0.0559
     40 H13        10.3491   16.5004   14.2402 H         1 AAQ         0.0599
     41 H14        11.6485   14.5693   15.1011 H         1 AAQ         0.0558
     42 H15        16.5262   16.7241   16.6517 H         1 AAQ         0.2405
     43 H16        19.9023   18.1205   15.6626 H         1 AAQ         0.2094
     44 H17        18.6660   17.9304   13.6951 H         1 AAQ         0.0521
     45 H18        17.2385   18.4368   14.6607 H         1 AAQ         0.0521
     46 H19        17.6786   16.6986   14.5521 H         1 AAQ         0.0521
     47 H20        14.5298   15.9429   21.4772 H         1 AAQ         0.2316
     48 H21        14.7556   16.2433   25.0370 H         1 AAQ         0.1759
     49 H22        13.7602   15.6040   23.7015 H         1 AAQ         0.1759
     50 H23        16.8359   17.0760   24.6346 H         1 AAQ         0.1811
@<TRIPOS>BOND
     1    1    2 1  
     2    1   19 2  
     3    2    3 ar 
     4    2   17 ar 
     5    3    4 ar 
     6    4    5 ar 
     7    4   26 1  
     8    5    6 ar 
     9    5   22 1  
    10    6    7 1  
    11    6   17 ar 
    12    7    8 1  
    13    8    9 1  
    14    9   10 1  
    15   10   11 1  
    16   11   12 ar 
    17   11   16 ar 
    18   12   13 ar 
    19   13   14 ar 
    20   14   15 ar 
    21   15   16 ar 
    22   17   18 1  
    23   18   19 1  
    24   19   20 1  
    25   20   21 1  
    26   22   23 ar 
    27   23   24 ar 
    28   23   25 ar 
    29   25   26 am 
    30   26   27 2  
    31    3   28 1  
    32    7   29 1  
    33    7   30 1  
    34    8   31 1  
    35    8   32 1  
    36    9   33 1  
    37    9   34 1  
    38   10   35 1  
    39   10   36 1  
    40   12   37 1  
    41   13   38 1  
    42   14   39 1  
    43   15   40 1  
    44   16   41 1  
    45   18   42 1  
    46   20   43 1  
    47   21   44 1  
    48   21   45 1  
    49   21   46 1  
    50   22   47 1  
    51   24   48 1  
    52   24   49 1  
    53   25   50 1  
@<TRIPOS>SUBSTRUCTURE
     1 AAQ         1

