### 
### Created by X-TOOL on Mon Sep 10 21:12:59 2018
### 

@<TRIPOS>MOLECULE
3gc5_ligand
   36    38     1     0     0
SMALL
GAST_HUCK


@<TRIPOS>ATOM
      1 C2         17.7530   17.0200   23.2150 C.2       1 2MQ         0.2242
      2 O19        18.8610   17.3540   23.6670 O.2       1 2MQ        -0.3899
      3 N3         16.7300   16.6860   23.9790 N.am      1 2MQ        -0.1824
      4 C4         15.5830   16.2690   23.4620 C.2       1 2MQ         0.2250
      5 N20        14.5810   15.9940   24.2690 N.pl3     1 2MQ        -0.2828
      6 N5         15.4180   16.1260   22.1830 N.2       1 2MQ        -0.3191
      7 C6         16.3800   16.4370   21.2420 C.ar      1 2MQ        -0.0120
      8 C10        16.1120   16.4660   19.8640 C.ar      1 2MQ        -0.0377
      9 C16        14.7760   16.0480   19.2000 C.3       1 2MQ         0.0128
     10 C17        14.9090   14.5750   18.6350 C.3       1 2MQ        -0.0283
     11 N18        13.8940   14.3930   17.5800 N.4       1 2MQ         0.2198
     12 C9         17.1210   16.9270   19.0120 C.ar      1 2MQ         0.0098
     13 N11        17.1880   17.0350   17.6650 N.2       1 2MQ        -0.3170
     14 C12        18.3380   17.5260   17.3620 C.2       1 2MQ         0.2105
     15 N14        18.7880   17.7640   16.1430 N.pl3     1 2MQ        -0.2784
     16 C15        18.0510   17.6040   14.9130 C.3       1 2MQ         0.0222
     17 N13        19.1160   17.6320   18.4150 N.pl3     1 2MQ        -0.2350
     18 C8         18.3990   17.2280   19.4760 C.ar      1 2MQ         0.0665
     19 C7         18.6570   17.2870   20.8440 C.ar      1 2MQ        -0.0391
     20 C1         17.6060   16.9260   21.7080 C.ar      1 2MQ         0.0349
     21 H2         13.6831   15.6689   23.8830 H         1 2MQ         0.1888
     22 H3         14.6944   16.1038   25.2868 H         1 2MQ         0.1888
     23 H5         14.5442   16.7380   18.3753 H         1 2MQ         0.0444
     24 H6         13.9683   16.0836   19.9459 H         1 2MQ         0.0444
     25 H7         14.7396   13.8491   19.4439 H         1 2MQ         0.0834
     26 H8         15.9144   14.4269   18.2140 H         1 2MQ         0.0834
     27 H9         13.9617   13.4594   17.2061 H         1 2MQ         0.1995
     28 H10        14.0516   15.0623   16.8430 H         1 2MQ         0.1995
     29 H11        12.9751   14.5328   17.9700 H         1 2MQ         0.1995
     30 H12        19.7597   18.0962   16.0628 H         1 2MQ         0.1892
     31 H13        18.6922   17.8800   14.0629 H         1 2MQ         0.0490
     32 H14        17.1641   18.2545   14.9296 H         1 2MQ         0.0490
     33 H15        17.7349   16.5556   14.8087 H         1 2MQ         0.0490
     34 H16        20.0915   17.9625   18.4250 H         1 2MQ         0.2288
     35 H17        19.6232   17.5968   21.2256 H         1 2MQ         0.0501
     36 H1         16.8225   16.7491   24.9727 H         1 2MQ         0.2491
@<TRIPOS>BOND
     1    1    2 2  
     2    1    3 am 
     3    1   20 1  
     4    3    4 am 
     5    4    5 1  
     6    4    6 2  
     7    6    7 1  
     8    7    8 ar 
     9    7   20 ar 
    10    8    9 1  
    11    8   12 ar 
    12    9   10 1  
    13   10   11 1  
    14   12   13 1  
    15   12   18 ar 
    16   13   14 2  
    17   14   15 1  
    18   14   17 1  
    19   15   16 1  
    20   17   18 1  
    21   18   19 ar 
    22   19   20 ar 
    23    5   21 1  
    24    5   22 1  
    25    9   23 1  
    26    9   24 1  
    27   10   25 1  
    28   10   26 1  
    29   11   27 1  
    30   11   28 1  
    31   11   29 1  
    32   15   30 1  
    33   16   31 1  
    34   16   32 1  
    35   16   33 1  
    36   17   34 1  
    37   19   35 1  
    38    3   36 1  
@<TRIPOS>SUBSTRUCTURE
     1 2MQ         1

