### 
### Created by X-TOOL on Mon Sep 10 21:13:00 2018
### 

@<TRIPOS>MOLECULE
3gc7_ligand
   64    68     1     0     0
SMALL
GAST_HUCK


@<TRIPOS>ATOM
      1 C6         26.7000   10.6920   33.0660 C.ar      1 B45        -0.0749
      2 C21        17.9970   13.7020   30.2660 C.ar      1 B45        -0.0572
      3 C22        16.6440   13.6790   30.0000 C.ar      1 B45        -0.0282
      4 C1         25.6380   10.2580   33.8250 C.ar      1 B45        -0.0598
      5 C5         26.4910   11.1720   31.7910 C.ar      1 B45        -0.0598
      6 C17        20.5570   14.2810   32.1190 C.ar      1 B45        -0.0730
      7 C19        22.6580   13.1610   32.1710 C.ar      1 B45        -0.0400
      8 C24        16.2430   12.4860   32.0330 C.ar      1 B45        -0.0145
      9 C20        18.4980   13.1210   31.4160 C.ar      1 B45        -0.0162
     10 C16        19.9340   13.1320   31.6670 C.ar      1 B45        -0.0329
     11 C18        21.9150   14.3100   32.3720 C.ar      1 B45        -0.0576
     12 C13        20.7020   11.9930   31.4640 C.ar      1 B45         0.0082
     13 C14        22.0620   12.0010   31.7230 C.ar      1 B45         0.0920
     14 C3         24.1370   10.7870   32.0420 C.ar      1 B45         0.1190
     15 C23        15.7740   13.0700   30.8790 C.ar      1 B45         0.1325
     16 C2         24.3600   10.3100   33.3120 C.ar      1 B45         0.0652
     17 C4         25.2080   11.2100   31.2890 C.ar      1 B45         0.0652
     18 C25        17.5960   12.5240   32.2800 C.ar      1 B45         0.0446
     19 C10        22.2840    9.6250   31.0730 C.2       1 B45         0.3163
     20 C12        20.0510   10.7410   30.9680 C.3       1 B45         0.0615
     21 C29        23.2340   16.1420   31.5880 C.3       1 B45        -0.0009
     22 C33        21.7900   16.6160   33.5240 C.3       1 B45        -0.0009
     23 C30        24.1040   17.3380   31.8980 C.3       1 B45        -0.0297
     24 C32        22.6200   17.8770   33.7850 C.3       1 B45        -0.0297
     25 C28        22.6360   15.5490   32.8430 C.3       1 B45        -0.0039
     26 C35        23.2630   20.6440   33.5090 C.3       1 B45        -0.0218
     27 C36        23.9290   20.3170   31.2060 C.3       1 B45        -0.0218
     28 C34        23.9550   19.6850   32.5770 C.3       1 B45        -0.0266
     29 N11        20.9360    9.6190   30.7580 N.am      1 B45        -0.2544
     30 N9         22.8270   10.8250   31.5100 N.am      1 B45        -0.1582
     31 N31        23.2240   18.3720   32.5070 N.4       1 B45         0.2372
     32 O15        22.9440    8.5980   30.9530 O.2       1 B45        -0.3815
     33 F27        14.4540   13.0350   30.6270 F         1 B45        -0.1836
     34 CL8        23.0230    9.7770   34.2620 Cl        1 B45        -0.0813
     35 CL7        24.9330   11.8040   29.7070 Cl        1 B45        -0.0813
     36 CL26       18.1030   11.7680   33.7350 Cl        1 B45        -0.0714
     37 H1         27.7045   10.6564   33.4720 H         1 B45         0.0498
     38 H2         18.6738   14.1800   29.5670 H         1 B45         0.0605
     39 H3         16.2633   14.1414   29.0965 H         1 B45         0.0605
     40 H4         25.8062    9.8756   34.8253 H         1 B45         0.0588
     41 H5         27.3255   11.5154   31.1904 H         1 B45         0.0588
     42 H6         19.9680   15.1770   32.2780 H         1 B45         0.0424
     43 H7         23.7238   13.1724   32.3684 H         1 B45         0.0439
     44 H8         15.5639   12.0081   32.7298 H         1 B45         0.0609
     45 H9         19.5621   10.9704   30.0097 H         1 B45         0.0649
     46 H10        19.2914   10.4398   31.7044 H         1 B45         0.0649
     47 H11        23.8448   15.3763   31.0874 H         1 B45         0.0340
     48 H12        22.4197   16.4567   30.9188 H         1 B45         0.0340
     49 H13        20.9391   16.8711   32.8753 H         1 B45         0.0340
     50 H14        21.4165   16.2244   34.4817 H         1 B45         0.0340
     51 H15        24.5571   17.7250   30.9734 H         1 B45         0.0816
     52 H16        24.8979   17.0543   32.6046 H         1 B45         0.0816
     53 H17        23.4229   17.6422   34.4993 H         1 B45         0.0816
     54 H18        21.9709   18.6585   34.2067 H         1 B45         0.0816
     55 H19        23.4309   15.2497   33.5419 H         1 B45         0.0450
     56 H20        23.8197   21.5923   33.5389 H         1 B45         0.0284
     57 H21        23.2237   20.2099   34.5189 H         1 B45         0.0284
     58 H22        22.2401   20.8305   33.1500 H         1 B45         0.0284
     59 H23        24.4257   19.6505   30.4856 H         1 B45         0.0284
     60 H24        24.4565   21.2818   31.2369 H         1 B45         0.0284
     61 H25        22.8859   20.4791   30.8967 H         1 B45         0.0284
     62 H26        24.9906   19.5172   32.9078 H         1 B45         0.0846
     63 H27        20.5511    8.7861   30.3604 H         1 B45         0.1882
     64 H28        22.4520   18.5155   31.8750 H         1 B45         0.2036
@<TRIPOS>BOND
     1    4    1 ar 
     2    5    1 ar 
     3    2    3 ar 
     4    9    2 ar 
     5    3   15 ar 
     6   16    4 ar 
     7   17    5 ar 
     8    6   10 ar 
     9   11    6 ar 
    10   11    7 ar 
    11    7   13 ar 
    12    8   15 ar 
    13   18    8 ar 
    14   10    9 1  
    15    9   18 ar 
    16   10   12 ar 
    17   25   11 1  
    18   13   12 ar 
    19   12   20 1  
    20   13   30 1  
    21   14   16 ar 
    22   14   17 ar 
    23   30   14 1  
    24   15   33 1  
    25   16   34 1  
    26   17   35 1  
    27   18   36 1  
    28   19   29 am 
    29   30   19 am 
    30   19   32 2  
    31   20   29 1  
    32   23   21 1  
    33   21   25 1  
    34   24   22 1  
    35   22   25 1  
    36   31   23 1  
    37   31   24 1  
    38   28   26 1  
    39   28   27 1  
    40   28   31 1  
    41    1   37 1  
    42    2   38 1  
    43    3   39 1  
    44    4   40 1  
    45    5   41 1  
    46    6   42 1  
    47    7   43 1  
    48    8   44 1  
    49   20   45 1  
    50   20   46 1  
    51   21   47 1  
    52   21   48 1  
    53   22   49 1  
    54   22   50 1  
    55   23   51 1  
    56   23   52 1  
    57   24   53 1  
    58   24   54 1  
    59   25   55 1  
    60   26   56 1  
    61   26   57 1  
    62   26   58 1  
    63   27   59 1  
    64   27   60 1  
    65   27   61 1  
    66   28   62 1  
    67   29   63 1  
    68   31   64 1  
@<TRIPOS>SUBSTRUCTURE
     1 B45         1

