### 
### Created by X-TOOL on Mon Sep 10 21:13:01 2018
### 

@<TRIPOS>MOLECULE
3gcp_ligand
   44    47     1     0     0
SMALL
GAST_HUCK


@<TRIPOS>ATOM
      1 O2         19.3390    4.0460  -13.4130 O.3       1 SB2        -0.3207
      2 C1         20.2060    1.9050  -12.0000 C.3       1 SB2         0.0133
      3 S1         20.5580    3.2320  -13.1370 S.3       1 SB2        -0.0255
      4 CA1        21.4260    2.7990  -17.0840 C.ar      1 SB2        -0.0322
      5 CA2        21.0220    3.3170  -15.8530 C.ar      1 SB2        -0.0280
      6 CA3        21.0720    2.5350  -14.7110 C.ar      1 SB2         0.0502
      7 CA4        21.5290    1.2260  -14.8150 C.ar      1 SB2        -0.0280
      8 CA5        21.9370    0.7070  -16.0390 C.ar      1 SB2        -0.0322
      9 CA6        21.9050    1.4960  -17.1810 C.ar      1 SB2         0.0596
     10 NB1        22.4740    1.5140  -24.6930 N.ar      1 SB2        -0.2874
     11 CB2        22.4030    0.2610  -24.2660 C.ar      1 SB2         0.0212
     12 CB3        22.4440   -0.0750  -22.9160 C.ar      1 SB2        -0.0126
     13 CB4        22.5770    0.9370  -21.9590 C.ar      1 SB2         0.0437
     14 CB5        22.6180    2.2640  -22.4340 C.ar      1 SB2        -0.0126
     15 CB6        22.5780    2.5160  -23.8210 C.ar      1 SB2         0.0212
     16 NC1        22.1540    1.5120  -19.6180 N.2       1 SB2        -0.2365
     17 CC2        22.2950    0.9530  -18.4150 C.2       1 SB2         0.1882
     18 NC3        22.8190   -0.2610  -18.5790 N.pl3     1 SB2        -0.1979
     19 CC4        23.0190   -0.4900  -19.8700 C.2       1 SB2         0.1755
     20 CC5        22.5990    0.6720  -20.5620 C.2       1 SB2         0.1305
     21 CD1        23.0390   -2.9120  -19.8660 C.ar      1 SB2        -0.0226
     22 CD2        23.6090   -4.1200  -20.2720 C.ar      1 SB2        -0.0023
     23 CD3        24.7380   -4.1050  -21.1080 C.ar      1 SB2         0.1600
     24 CD4        25.2770   -2.8960  -21.5390 C.ar      1 SB2        -0.0023
     25 CD5        24.7130   -1.6920  -21.1400 C.ar      1 SB2        -0.0226
     26 CD6        23.5770   -1.6900  -20.3240 C.ar      1 SB2         0.0663
     27 FD3        25.3210   -5.2670  -21.5230 F         1 SB2        -0.1609
     28 H1         19.0187    4.4201  -12.6006 H         1 SB2         0.2320
     29 H2         21.1230    1.3254  -11.8178 H         1 SB2         0.0387
     30 H3         19.4362    1.2477  -12.4305 H         1 SB2         0.0387
     31 H4         19.8417    2.3230  -11.0500 H         1 SB2         0.0387
     32 H5         21.3662    3.4170  -17.9726 H         1 SB2         0.0738
     33 H6         20.6664    4.3391  -15.7900 H         1 SB2         0.0626
     34 H7         21.5678    0.6014  -13.9299 H         1 SB2         0.0626
     35 H8         22.2818   -0.3188  -16.1018 H         1 SB2         0.0738
     36 H9         22.3093   -0.5335  -24.9974 H         1 SB2         0.0846
     37 H10        22.3735   -1.1121  -22.6085 H         1 SB2         0.0794
     38 H11        22.6802    3.0893  -21.7340 H         1 SB2         0.0794
     39 H12        22.6325    3.5367  -24.1818 H         1 SB2         0.0846
     40 H13        23.0358   -0.9213  -17.8188 H         1 SB2         0.2536
     41 H14        22.1840   -2.9125  -19.1996 H         1 SB2         0.0781
     42 H15        23.1839   -5.0620  -19.9448 H         1 SB2         0.0679
     43 H16        26.1432   -2.8948  -22.1907 H         1 SB2         0.0679
     44 H17        25.1525   -0.7543  -21.4605 H         1 SB2         0.0781
@<TRIPOS>BOND
     1    3    1 1  
     2    3    2 1  
     3    6    3 1  
     4    4    5 ar 
     5    9    4 ar 
     6    5    6 ar 
     7    7    6 ar 
     8    8    7 ar 
     9    9    8 ar 
    10   17    9 1  
    11   11   10 ar 
    12   15   10 ar 
    13   12   11 ar 
    14   13   12 ar 
    15   13   14 ar 
    16   20   13 1  
    17   14   15 ar 
    18   16   17 2  
    19   20   16 1  
    20   18   17 1  
    21   19   18 1  
    22   19   20 2  
    23   26   19 1  
    24   21   22 ar 
    25   21   26 ar 
    26   22   23 ar 
    27   23   24 ar 
    28   23   27 1  
    29   24   25 ar 
    30   25   26 ar 
    31    1   28 1  
    32    2   29 1  
    33    2   30 1  
    34    2   31 1  
    35    4   32 1  
    36    5   33 1  
    37    7   34 1  
    38    8   35 1  
    39   11   36 1  
    40   12   37 1  
    41   14   38 1  
    42   15   39 1  
    43   18   40 1  
    44   21   41 1  
    45   22   42 1  
    46   24   43 1  
    47   25   44 1  
@<TRIPOS>SUBSTRUCTURE
     1 SB2         1

