### 
### Created by X-TOOL on Mon Sep 10 21:13:01 2018
### 

@<TRIPOS>MOLECULE
3gcq_ligand
   68    72     1     0     0
SMALL
GAST_HUCK


@<TRIPOS>ATOM
      1 C4         -4.3180    0.6490  -23.6540 C.ar      1 1BU         0.0356
      2 C5         -4.3510   -0.6200  -23.0690 C.ar      1 1BU         0.0440
      3 C6         -4.2130   -0.7050  -21.6570 C.ar      1 1BU         0.1530
      4 N1         -4.0790    0.4360  -20.9570 N.ar      1 1BU        -0.2580
      5 N3         -4.1680    1.7500  -22.8780 N.ar      1 1BU        -0.3004
      6 CAA        -1.3250   -9.1450  -15.2800 C.3       1 1BU        -0.0321
      7 CBA        -0.7520   -8.4740  -14.0430 C.ar      1 1BU        -0.0475
      8 CAQ        -0.1860   -7.1980  -14.1680 C.ar      1 1BU        -0.0201
      9 CAI        -0.7960   -9.1210  -12.8080 C.ar      1 1BU        -0.0649
     10 CAG        -0.2610   -8.4870  -11.6840 C.ar      1 1BU        -0.0696
     11 CAJ         0.2850   -7.1980  -11.8060 C.ar      1 1BU        -0.0276
     12 CBE         0.3380   -6.5580  -13.0440 C.ar      1 1BU         0.1219
     13 NBK         0.8780   -5.3450  -13.1050 N.pl3     1 1BU        -0.1049
     14 NAV         1.9490   -5.0460  -12.5350 N.2       1 1BU        -0.1654
     15 CBF         2.2370   -3.7650  -12.7480 C.2       1 1BU        -0.0024
     16 CBL         3.4900   -3.0330  -12.1500 C.3       1 1BU        -0.0451
     17 CAC         4.1820   -2.1630  -13.2290 C.3       1 1BU        -0.0851
     18 CAD         4.5120   -3.9770  -11.4990 C.3       1 1BU        -0.0851
     19 CAB         2.9340   -2.1760  -11.0100 C.3       1 1BU        -0.0851
     20 CAR         1.2560   -3.2410  -13.5170 C.2       1 1BU        -0.0188
     21 CBG         0.3850   -4.2690  -13.7420 C.2       1 1BU         0.2196
     22 NAX        -0.7620   -4.2580  -14.4600 N.am      1 1BU        -0.1797
     23 CAZ        -0.9930   -3.5400  -15.6000 C.2       1 1BU         0.3207
     24 OAF        -0.1680   -2.7520  -16.0890 O.2       1 1BU        -0.3797
     25 NAW        -2.2160   -3.6550  -16.1250 N.am      1 1BU        -0.2192
     26 CBC        -2.7220   -3.1480  -17.2640 C.ar      1 1BU         0.0575
     27 CAL        -1.8950   -2.9900  -18.3740 C.ar      1 1BU        -0.0488
     28 CAN        -2.3930   -2.5600  -19.6120 C.ar      1 1BU        -0.0491
     29 CAK        -4.0940   -2.9160  -17.4410 C.ar      1 1BU        -0.0488
     30 CAM        -4.5910   -2.4750  -18.6960 C.ar      1 1BU        -0.0491
     31 CBD        -3.7550   -2.2800  -19.7950 C.ar      1 1BU         0.0542
     32 NAY        -4.2440   -1.9020  -21.0370 N.pl3     1 1BU        -0.2553
     33 CAS        -4.5070   -1.7670  -23.8810 C.ar      1 1BU        -0.0264
     34 CBB        -4.6370   -1.6200  -25.2780 C.ar      1 1BU         0.0432
     35 NAE        -4.7840   -2.6930  -26.0800 N.pl3     1 1BU        -0.3356
     36 CAO        -4.6040   -0.3460  -25.8450 C.ar      1 1BU        -0.0330
     37 CAP        -4.4480    0.7900  -25.0450 C.ar      1 1BU        -0.0450
     38 C2         -4.0390    1.6240  -21.5650 C.ar      1 1BU         0.0555
     39 H1         -1.1971   -8.4826  -16.1489 H         1 1BU         0.0390
     40 H2         -2.3956   -9.3451  -15.1260 H         1 1BU         0.0390
     41 H3         -0.7971  -10.0929  -15.4608 H         1 1BU         0.0390
     42 H4         -0.1553   -6.7095  -15.1352 H         1 1BU         0.0543
     43 H5         -1.2408  -10.1057  -12.7213 H         1 1BU         0.0520
     44 H6         -0.2670   -8.9871  -10.7222 H         1 1BU         0.0590
     45 H7          0.6700   -6.6946  -10.9265 H         1 1BU         0.0552
     46 H8          5.0559   -1.6600  -12.7893 H         1 1BU         0.0133
     47 H9          3.4735   -1.4085  -13.6015 H         1 1BU         0.0133
     48 H10         4.5080   -2.8028  -14.0623 H         1 1BU         0.0133
     49 H11         4.0107   -4.5896  -10.7352 H         1 1BU         0.0133
     50 H12         5.3103   -3.3846  -11.0280 H         1 1BU         0.0133
     51 H13         4.9469   -4.6329  -12.2676 H         1 1BU         0.0133
     52 H14         2.1898   -1.4716  -11.4101 H         1 1BU         0.0133
     53 H15         3.7546   -1.6144  -10.5396 H         1 1BU         0.0133
     54 H16         2.4580   -2.8260  -10.2611 H         1 1BU         0.0133
     55 H17         1.1771   -2.2172  -13.8798 H         1 1BU         0.0222
     56 H18        -1.5114   -4.8291  -14.1249 H         1 1BU         0.2344
     57 H19        -2.8558   -4.2040  -15.5871 H         1 1BU         0.2231
     58 H20        -0.8370   -3.2055  -18.2778 H         1 1BU         0.0480
     59 H21        -1.7106   -2.4414  -20.4458 H         1 1BU         0.0509
     60 H22        -4.7785   -3.0742  -16.6154 H         1 1BU         0.0480
     61 H23        -5.6527   -2.2841  -18.8030 H         1 1BU         0.0509
     62 H24        -4.7033   -2.6545  -21.5696 H         1 1BU         0.2184
     63 H25        -4.5266   -2.7537  -23.4326 H         1 1BU         0.0530
     64 H26        -4.8775   -2.5662  -27.0979 H         1 1BU         0.1723
     65 H27        -4.8029   -3.6399  -25.6751 H         1 1BU         0.1723
     66 H28        -4.7005   -0.2353  -26.9190 H         1 1BU         0.0620
     67 H29        -4.4275    1.7752  -25.4966 H         1 1BU         0.0616
     68 H30        -3.8962    2.5152  -20.9647 H         1 1BU         0.1020
@<TRIPOS>BOND
     1    2    1 ar 
     2    1    5 ar 
     3    1   37 ar 
     4    3    2 ar 
     5    2   33 ar 
     6    3    4 ar 
     7   32    3 1  
     8    4   38 ar 
     9   38    5 ar 
    10    7    6 1  
    11    8    7 ar 
    12    7    9 ar 
    13   12    8 ar 
    14   10    9 ar 
    15   11   10 ar 
    16   12   11 ar 
    17   13   12 1  
    18   13   14 1  
    19   21   13 1  
    20   15   14 2  
    21   15   16 1  
    22   20   15 1  
    23   16   17 1  
    24   16   18 1  
    25   16   19 1  
    26   21   20 2  
    27   22   21 1  
    28   23   22 am 
    29   23   24 2  
    30   25   23 am 
    31   26   25 1  
    32   27   26 ar 
    33   29   26 ar 
    34   28   27 ar 
    35   31   28 ar 
    36   30   29 ar 
    37   31   30 ar 
    38   31   32 1  
    39   33   34 ar 
    40   34   35 1  
    41   34   36 ar 
    42   36   37 ar 
    43    6   39 1  
    44    6   40 1  
    45    6   41 1  
    46    8   42 1  
    47    9   43 1  
    48   10   44 1  
    49   11   45 1  
    50   17   46 1  
    51   17   47 1  
    52   17   48 1  
    53   18   49 1  
    54   18   50 1  
    55   18   51 1  
    56   19   52 1  
    57   19   53 1  
    58   19   54 1  
    59   20   55 1  
    60   22   56 1  
    61   25   57 1  
    62   27   58 1  
    63   28   59 1  
    64   29   60 1  
    65   30   61 1  
    66   32   62 1  
    67   33   63 1  
    68   35   64 1  
    69   35   65 1  
    70   36   66 1  
    71   37   67 1  
    72   38   68 1  
@<TRIPOS>SUBSTRUCTURE
     1 1BU         1

