### 
### Created by X-TOOL on Mon Sep 10 21:13:01 2018
### 

@<TRIPOS>MOLECULE
3gcs_ligand
   48    50     1     0     0
SMALL
GAST_HUCK


@<TRIPOS>ATOM
      1 C1        -16.3690   -7.3230   17.9900 C.ar      1 BAX        -0.0127
      2 C2        -17.1540   -7.0030   16.8680 C.ar      1 BAX         0.0959
      3 C3        -16.6900   -7.3370   15.5950 C.ar      1 BAX        -0.0108
      4 C4        -15.4600   -7.9590   15.4230 C.ar      1 BAX        -0.0291
      5 C13       -18.7080   -5.4950   17.9310 C.2       1 BAX         0.3148
      6 C16       -20.5500   -4.1300   18.6720 C.ar      1 BAX         0.0577
      7 C17       -19.8220   -3.1080   19.2760 C.ar      1 BAX        -0.0478
      8 C18       -20.4350   -2.1950   20.1410 C.ar      1 BAX        -0.0404
      9 C19       -21.8190   -2.2870   20.3470 C.ar      1 BAX         0.1047
     10 C20       -22.5540   -3.2970   19.7490 C.ar      1 BAX        -0.0404
     11 C21       -21.9300   -4.2150   18.9150 C.ar      1 BAX        -0.0478
     12 O22       -22.4910   -1.4470   21.2080 O.3       1 BAX        -0.2564
     13 C24       -22.1850    0.5610   19.9760 C.ar      1 BAX         0.0024
     14 C25       -22.0690    1.9530   20.0280 C.ar      1 BAX         0.0057
     15 C27       -22.2950    1.9430   22.3740 C.ar      1 BAX         0.1117
     16 C28       -22.4250    0.5550   22.3790 C.ar      1 BAX         0.0183
     17 N30       -22.3710    4.0680   23.5530 N.am      1 BAX        -0.2874
     18 C31       -22.4200    4.8910   24.7720 C.3       1 BAX         0.0193
     19 C5        -14.6740   -8.2420   16.5630 C.ar      1 BAX         0.0592
     20 C6        -15.1120   -7.9330   17.8450 C.ar      1 BAX         0.0462
     21 C7        -14.2580   -8.2750   19.0990 C.3       1 BAX         0.3715
     22 F8        -14.9290   -7.8860   20.1380 F         1 BAX        -0.2224
     23 F9        -14.0260   -9.5830   19.2090 F         1 BAX        -0.2224
     24 F10       -13.1090   -7.6340   19.1850 F         1 BAX        -0.2224
     25 CL11      -13.1510   -9.0000   16.3780 Cl        1 BAX        -0.0539
     26 N12       -18.3750   -6.4010   16.9870 N.am      1 BAX        -0.2087
     27 N14       -19.9700   -5.0250   17.8550 N.am      1 BAX        -0.2199
     28 O15       -17.9230   -5.1310   18.8240 O.2       1 BAX        -0.3813
     29 C23       -22.3470   -0.1230   21.1720 C.ar      1 BAX         0.1379
     30 N26       -22.1190    2.5800   21.2000 N.ar      1 BAX        -0.2925
     31 C29       -22.3510    2.7400   23.6900 C.2       1 BAX         0.2205
     32 O32       -22.3790    2.1590   24.7710 O.2       1 BAX        -0.3791
     33 H1        -16.7399   -7.0953   18.9828 H         1 BAX         0.0706
     34 H2        -17.2984   -7.1077   14.7276 H         1 BAX         0.0758
     35 H3        -15.1091   -8.2227   14.4318 H         1 BAX         0.0670
     36 H4        -18.7611   -3.0182   19.0723 H         1 BAX         0.0480
     37 H5        -19.8514   -1.4313   20.6422 H         1 BAX         0.0520
     38 H6        -23.6198   -3.3711   19.9326 H         1 BAX         0.0520
     39 H7        -22.5118   -5.0019   18.4488 H         1 BAX         0.0480
     40 H8        -22.1495    0.0323   19.0303 H         1 BAX         0.0673
     41 H9        -21.9384    2.5210   19.1140 H         1 BAX         0.0803
     42 H10       -22.5837    0.0172   23.3067 H         1 BAX         0.0696
     43 H11       -22.3532    4.4916   22.6473 H         1 BAX         0.1844
     44 H12       -22.4314    5.9556   24.4954 H         1 BAX         0.0484
     45 H13       -21.5350    4.6825   25.3911 H         1 BAX         0.0484
     46 H14       -23.3303    4.6502   25.3407 H         1 BAX         0.0484
     47 H15       -19.0782   -6.6516   16.3216 H         1 BAX         0.2266
     48 H16       -20.5347   -5.3810   17.1104 H         1 BAX         0.2230
@<TRIPOS>BOND
     1    2    1 ar 
     2    1   20 ar 
     3    2    3 ar 
     4   26    2 1  
     5    3    4 ar 
     6    4   19 ar 
     7    5   26 am 
     8   27    5 am 
     9    5   28 2  
    10    7    6 ar 
    11   11    6 ar 
    12    6   27 1  
    13    8    7 ar 
    14    9    8 ar 
    15    9   10 ar 
    16   12    9 1  
    17   10   11 ar 
    18   29   12 1  
    19   14   13 ar 
    20   29   13 ar 
    21   30   14 ar 
    22   15   16 ar 
    23   15   30 ar 
    24   31   15 1  
    25   16   29 ar 
    26   17   18 1  
    27   17   31 am 
    28   19   20 ar 
    29   19   25 1  
    30   20   21 1  
    31   21   22 1  
    32   21   23 1  
    33   21   24 1  
    34   31   32 2  
    35    1   33 1  
    36    3   34 1  
    37    4   35 1  
    38    7   36 1  
    39    8   37 1  
    40   10   38 1  
    41   11   39 1  
    42   13   40 1  
    43   14   41 1  
    44   16   42 1  
    45   17   43 1  
    46   18   44 1  
    47   18   45 1  
    48   18   46 1  
    49   26   47 1  
    50   27   48 1  
@<TRIPOS>SUBSTRUCTURE
     1 BAX         1

