### 
### Created by X-TOOL on Mon Sep 10 21:13:00 2018
### 

@<TRIPOS>MOLECULE
3gcu_ligand
   68    72     1     0     0
SMALL
GAST_HUCK


@<TRIPOS>ATOM
      1 C5         12.0610    1.4800    3.3380 C.ar      1 R48         0.0450
      2 C1S        12.0070    2.3380    2.2090 C.ar      1 R48        -0.0261
      3 C2B        11.8720    3.7320    2.3700 C.ar      1 R48         0.0434
      4 N1E        11.8240    4.5870    1.2970 N.pl3     1 R48        -0.3355
      5 C1M        11.8020    4.2330    3.6680 C.ar      1 R48        -0.0327
      6 C1P        11.8560    3.3990    4.8000 C.ar      1 R48        -0.0446
      7 C4         11.9780    2.0200    4.6330 C.ar      1 R48         0.0364
      8 N3         12.0290    1.2170    5.7020 N.ar      1 R48        -0.2993
      9 C2         12.1450   -0.1200    5.5590 C.ar      1 R48         0.0567
     10 N1         12.2280   -0.6770    4.3440 N.ar      1 R48        -0.2564
     11 C6         12.1770    0.0800    3.2080 C.ar      1 R48         0.1558
     12 N1Y        12.2660   -0.4790    1.9810 N.pl3     1 R48        -0.2508
     13 C2D        12.0430   -1.8130    1.7190 C.ar      1 R48         0.0539
     14 C1Q        12.9910   -2.5650    0.9780 C.ar      1 R48        -0.0182
     15 C1J        10.8580   -2.4440    2.1280 C.ar      1 R48        -0.0523
     16 C1G        10.6260   -3.7960    1.8160 C.ar      1 R48        -0.0839
     17 C1I        11.5770   -4.5270    1.0960 C.ar      1 R48        -0.0522
     18 C2C        12.7690   -3.9180    0.6790 C.ar      1 R48         0.0579
     19 N1W        13.6160   -4.7000   -0.0190 N.am      1 R48        -0.2160
     20 C1Z        14.9170   -4.9360    0.1640 C.2       1 R48         0.3230
     21 O1F        15.5560   -4.4140    1.0730 O.2       1 R48        -0.3787
     22 N1X        15.4700   -5.7740   -0.7320 N.am      1 R48        -0.1795
     23 C2G        16.7290   -6.3000   -0.7260 C.2       1 R48         0.2188
     24 C1R        17.5120   -6.5020    0.3640 C.2       1 R48        -0.0194
     25 C2F        18.6130   -7.1730   -0.0660 C.2       1 R48        -0.0041
     26 C2L        19.8240   -7.6190    0.8090 C.3       1 R48        -0.0463
     27 C1C        19.3350   -8.8180    1.6190 C.3       1 R48        -0.0859
     28 C1D        21.0840   -8.0740    0.0650 C.3       1 R48        -0.0859
     29 C1B        20.2420   -6.5170    1.7550 C.3       1 R48        -0.0859
     30 N1V        18.4510   -7.4100   -1.3650 N.2       1 R48        -0.1672
     31 N2K        17.3430   -6.9310   -1.7330 N.pl3     1 R48        -0.1067
     32 C2E        16.8790   -7.0260   -2.9950 C.ar      1 R48         0.1228
     33 C1N        16.9710   -8.2910   -3.5790 C.ar      1 R48        -0.0265
     34 C1K        16.5220   -8.5200   -4.8690 C.ar      1 R48        -0.0608
     35 C2A        15.9620   -7.4810   -5.5880 C.ar      1 R48        -0.0493
     36 C1A        15.5020   -7.7570   -7.0240 C.3       1 R48        -0.0327
     37 C1L        15.8650   -6.2040   -5.0370 C.ar      1 R48        -0.0608
     38 C1O        16.3140   -5.9630   -3.7230 C.ar      1 R48        -0.0265
     39 H1         12.0702    1.9170    1.2121 H         1 R48         0.0530
     40 H2         11.7248    5.6007    1.4503 H         1 R48         0.1723
     41 H3         11.8872    4.2148    0.3387 H         1 R48         0.1723
     42 H4         11.7024    5.3029    3.8110 H         1 R48         0.0622
     43 H5         11.8031    3.8256    5.7951 H         1 R48         0.0618
     44 H6         12.1713   -0.7516    6.4396 H         1 R48         0.1023
     45 H7         12.5168    0.1318    1.1905 H         1 R48         0.2214
     46 H8         13.9019   -2.0864    0.6372 H         1 R48         0.0417
     47 H9         10.1165   -1.8858    2.6881 H         1 R48         0.0418
     48 H10         9.7065   -4.2734    2.1348 H         1 R48         0.0552
     49 H11        11.3915   -5.5685    0.8596 H         1 R48         0.0415
     50 H12        13.2057   -5.1783   -0.7955 H         1 R48         0.2260
     51 H13        14.8858   -6.0448   -1.4971 H         1 R48         0.2343
     52 H14        17.2994   -6.1876    1.3847 H         1 R48         0.0221
     53 H15        20.1495   -9.1827    2.2621 H         1 R48         0.0131
     54 H16        19.0214   -9.6198    0.9343 H         1 R48         0.0131
     55 H17        18.4820   -8.5150    2.2440 H         1 R48         0.0131
     56 H18        21.4760   -7.2403   -0.5361 H         1 R48         0.0131
     57 H19        20.8351   -8.9173   -0.5960 H         1 R48         0.0131
     58 H20        21.8453   -8.3909    0.7929 H         1 R48         0.0131
     59 H21        19.3636   -6.1593    2.3122 H         1 R48         0.0131
     60 H22        20.6753   -5.6851    1.1803 H         1 R48         0.0131
     61 H23        20.9912   -6.9044    2.4611 H         1 R48         0.0131
     62 H24        17.4017   -9.1087   -3.0124 H         1 R48         0.0595
     63 H25        16.6091   -9.5059   -5.3110 H         1 R48         0.0550
     64 H26        15.0822   -6.8374   -7.4577 H         1 R48         0.0385
     65 H27        14.7332   -8.5437   -7.0180 H         1 R48         0.0385
     66 H28        16.3605   -8.0879   -7.6269 H         1 R48         0.0385
     67 H29        15.4430   -5.3941   -5.6210 H         1 R48         0.0550
     68 H30        16.2256   -4.9769   -3.2815 H         1 R48         0.0595
@<TRIPOS>BOND
     1    1    2 ar 
     2    1    7 ar 
     3    1   11 ar 
     4    2    3 ar 
     5    3    4 1  
     6    3    5 ar 
     7    5    6 ar 
     8    6    7 ar 
     9    7    8 ar 
    10    8    9 ar 
    11    9   10 ar 
    12   10   11 ar 
    13   11   12 1  
    14   12   13 1  
    15   13   14 ar 
    16   13   15 ar 
    17   14   18 ar 
    18   15   16 ar 
    19   16   17 ar 
    20   17   18 ar 
    21   18   19 1  
    22   19   20 am 
    23   20   21 2  
    24   20   22 am 
    25   22   23 1  
    26   23   24 2  
    27   23   31 1  
    28   24   25 1  
    29   25   26 1  
    30   25   30 2  
    31   26   27 1  
    32   26   28 1  
    33   26   29 1  
    34   30   31 1  
    35   31   32 1  
    36   32   33 ar 
    37   32   38 ar 
    38   33   34 ar 
    39   34   35 ar 
    40   35   36 1  
    41   35   37 ar 
    42   37   38 ar 
    43    2   39 1  
    44    4   40 1  
    45    4   41 1  
    46    5   42 1  
    47    6   43 1  
    48    9   44 1  
    49   12   45 1  
    50   14   46 1  
    51   15   47 1  
    52   16   48 1  
    53   17   49 1  
    54   19   50 1  
    55   22   51 1  
    56   24   52 1  
    57   27   53 1  
    58   27   54 1  
    59   27   55 1  
    60   28   56 1  
    61   28   57 1  
    62   28   58 1  
    63   29   59 1  
    64   29   60 1  
    65   29   61 1  
    66   33   62 1  
    67   34   63 1  
    68   36   64 1  
    69   36   65 1  
    70   36   66 1  
    71   37   67 1  
    72   38   68 1  
@<TRIPOS>SUBSTRUCTURE
     1 R48         1

