### 
### Created by X-TOOL on Mon Sep 10 21:13:00 2018
### 

@<TRIPOS>MOLECULE
3gcv_ligand
   68    72     1     0     0
SMALL
GAST_HUCK


@<TRIPOS>ATOM
      1 C4         -3.1550    3.6610  -19.6340 C.ar      1 SS6         0.0364
      2 C5         -3.0540    2.3410  -19.1490 C.ar      1 SS6         0.0450
      3 C6         -2.8640    2.1630  -17.7690 C.ar      1 SS6         0.1558
      4 N1         -2.7870    3.2450  -16.9540 N.ar      1 SS6        -0.2564
      5 N3         -3.0570    4.6740  -18.7730 N.ar      1 SS6        -0.2993
      6 CAA         1.9870   -7.0980   -8.6200 C.3       1 SS6        -0.0321
      7 CBA         1.7350   -6.3130   -9.9370 C.ar      1 SS6        -0.0475
      8 CAP         2.2360   -5.0280  -10.0650 C.ar      1 SS6        -0.0201
      9 CAJ         1.0100   -6.8800  -10.9800 C.ar      1 SS6        -0.0649
     10 CAH         0.8090   -6.1700  -12.1560 C.ar      1 SS6        -0.0696
     11 CAM         1.3110   -4.8720  -12.2810 C.ar      1 SS6        -0.0276
     12 CBE         2.0210   -4.3030  -11.2160 C.ar      1 SS6         0.1219
     13 NBK         2.5300   -3.0600  -11.2790 N.pl3     1 SS6        -0.1049
     14 NAV         3.6680   -2.7760  -10.8570 N.2       1 SS6        -0.1654
     15 CBF         3.8800   -1.4860  -11.0640 C.2       1 SS6        -0.0024
     16 CBL         5.1950   -0.7890  -10.6360 C.3       1 SS6        -0.0451
     17 CAC         4.8790    0.1840   -9.4930 C.3       1 SS6        -0.0851
     18 CAD         6.2070   -1.8500  -10.1340 C.3       1 SS6        -0.0851
     19 CAB         5.7930   -0.0170  -11.7880 C.3       1 SS6        -0.0851
     20 CAR         2.7850   -0.9440  -11.6420 C.2       1 SS6        -0.0187
     21 CBG         1.9370   -1.9880  -11.8240 C.2       1 SS6         0.2196
     22 NAX         0.6620   -1.9220  -12.2870 N.am      1 SS6        -0.1792
     23 CAZ         0.0860   -0.9810  -13.0820 C.2       1 SS6         0.3231
     24 OAF         0.7290   -0.1760  -13.7590 O.2       1 SS6        -0.3786
     25 NAW        -1.2490   -1.0650  -13.1590 N.am      1 SS6        -0.2159
     26 CBC        -2.1460   -0.3550  -13.9060 C.ar      1 SS6         0.0579
     27 CAQ        -1.9640   -0.0590  -15.2630 C.ar      1 SS6        -0.0182
     28 CAK        -3.3230    0.0750  -13.2660 C.ar      1 SS6        -0.0522
     29 CAG        -4.3030    0.8010  -13.9430 C.ar      1 SS6        -0.0839
     30 CAL        -4.1090    1.0830  -15.2990 C.ar      1 SS6        -0.0523
     31 CBD        -2.9400    0.6620  -15.9540 C.ar      1 SS6         0.0539
     32 NAY        -2.7600    0.9290  -17.2530 N.pl3     1 SS6        -0.2508
     33 CAS        -3.1490    1.2520  -20.0490 C.ar      1 SS6        -0.0261
     34 CBB        -3.3280    1.4750  -21.4290 C.ar      1 SS6         0.0434
     35 NAE        -3.4310    0.4360  -22.3090 N.pl3     1 SS6        -0.3355
     36 CAN        -3.4100    2.8090  -21.8960 C.ar      1 SS6        -0.0327
     37 CAO        -3.3200    3.9060  -21.0020 C.ar      1 SS6        -0.0446
     38 C2         -2.8830    4.4730  -17.4590 C.ar      1 SS6         0.0567
     39 H1          2.5758   -6.4763   -7.9295 H         1 SS6         0.0390
     40 H2          2.5403   -8.0220   -8.8440 H         1 SS6         0.0390
     41 H3          1.0233   -7.3514   -8.1540 H         1 SS6         0.0390
     42 H4          2.8025   -4.5890   -9.2517 H         1 SS6         0.0543
     43 H5          0.6011   -7.8783  -10.8744 H         1 SS6         0.0520
     44 H6          0.2633   -6.6221  -12.9763 H         1 SS6         0.0590
     45 H7          1.1523   -4.3102  -13.1944 H         1 SS6         0.0552
     46 H8          5.8031    0.6891   -9.1755 H         1 SS6         0.0133
     47 H9          4.4552   -0.3727   -8.6442 H         1 SS6         0.0133
     48 H10         4.1521    0.9333   -9.8397 H         1 SS6         0.0133
     49 H11         6.4379   -2.5512  -10.9495 H         1 SS6         0.0133
     50 H12         5.7705   -2.4019   -9.2885 H         1 SS6         0.0133
     51 H13         7.1309   -1.3500   -9.8078 H         1 SS6         0.0133
     52 H14         5.0708    0.7343  -12.1401 H         1 SS6         0.0133
     53 H15         6.0314   -0.7093  -12.6089 H         1 SS6         0.0133
     54 H16         6.7123    0.4864  -11.4542 H         1 SS6         0.0133
     55 H17         2.6196    0.1000  -11.9039 H         1 SS6         0.0222
     56 H18         0.0625   -2.6705  -12.0035 H         1 SS6         0.2345
     57 H19        -1.6569   -1.7640  -12.5717 H         1 SS6         0.2260
     58 H20        -1.0676   -0.3889  -15.7755 H         1 SS6         0.0417
     59 H21        -3.4721   -0.1642  -12.2193 H         1 SS6         0.0415
     60 H22        -5.1956    1.1393  -13.4292 H         1 SS6         0.0552
     61 H23        -4.8663    1.6304  -15.8485 H         1 SS6         0.0418
     62 H24        -2.5307    0.1501  -17.8867 H         1 SS6         0.2214
     63 H25        -3.0834    0.2374  -19.6731 H         1 SS6         0.0530
     64 H26        -3.5615    0.6229  -23.3135 H         1 SS6         0.1723
     65 H27        -3.3782   -0.5346  -21.9683 H         1 SS6         0.1723
     66 H28        -3.5439    2.9950  -22.9555 H         1 SS6         0.0622
     67 H29        -3.3783    4.9226  -21.3738 H         1 SS6         0.0618
     68 H30        -2.8192    5.3272  -16.7947 H         1 SS6         0.1023
@<TRIPOS>BOND
     1    2    1 ar 
     2    1    5 ar 
     3    1   37 ar 
     4    3    2 ar 
     5    2   33 ar 
     6    3    4 ar 
     7   32    3 1  
     8    4   38 ar 
     9   38    5 ar 
    10    7    6 1  
    11    8    7 ar 
    12    7    9 ar 
    13   12    8 ar 
    14   10    9 ar 
    15   11   10 ar 
    16   12   11 ar 
    17   13   12 1  
    18   13   14 1  
    19   21   13 1  
    20   15   14 2  
    21   15   16 1  
    22   20   15 1  
    23   16   17 1  
    24   16   18 1  
    25   16   19 1  
    26   21   20 2  
    27   22   21 1  
    28   23   22 am 
    29   23   24 2  
    30   25   23 am 
    31   26   25 1  
    32   27   26 ar 
    33   26   28 ar 
    34   31   27 ar 
    35   29   28 ar 
    36   30   29 ar 
    37   31   30 ar 
    38   31   32 1  
    39   33   34 ar 
    40   34   35 1  
    41   34   36 ar 
    42   36   37 ar 
    43    6   39 1  
    44    6   40 1  
    45    6   41 1  
    46    8   42 1  
    47    9   43 1  
    48   10   44 1  
    49   11   45 1  
    50   17   46 1  
    51   17   47 1  
    52   17   48 1  
    53   18   49 1  
    54   18   50 1  
    55   18   51 1  
    56   19   52 1  
    57   19   53 1  
    58   19   54 1  
    59   20   55 1  
    60   22   56 1  
    61   25   57 1  
    62   27   58 1  
    63   28   59 1  
    64   29   60 1  
    65   30   61 1  
    66   32   62 1  
    67   33   63 1  
    68   35   64 1  
    69   35   65 1  
    70   36   66 1  
    71   37   67 1  
    72   38   68 1  
@<TRIPOS>SUBSTRUCTURE
     1 SS6         1

