### 
### Created by X-TOOL on Mon Sep 10 21:13:01 2018
### 

@<TRIPOS>MOLECULE
3gds_ligand
   81    83     1     0     0
SMALL
GAST_HUCK


@<TRIPOS>ATOM
      1 N           3.8950  -30.7490    8.8200 N.4       1 VAL         0.2381
      2 CA          3.6630  -31.4850   10.0570 C.3       1 VAL         0.0673
      3 C           2.2040  -31.9120   10.1740 C.2       1 VAL         0.2271
      4 O           1.2950  -31.1170    9.9350 O.2       1 VAL        -0.3907
      5 CB          4.0380  -30.6460   11.2930 C.3       1 VAL         0.0139
      6 CG1         3.9850  -31.5020   12.5510 C.3       1 VAL        -0.0553
      7 CG2         5.4180  -30.0330   11.1200 C.3       1 VAL        -0.0553
      8 N           1.9880  -33.1690   10.5450 N.am      1 TYR        -0.2594
      9 CA          0.6390  -33.7070   10.6820 C.3       1 TYR         0.1391
     10 C           0.3680  -34.1670   12.1120 C.2       1 TYR         0.2058
     11 O           1.1110  -34.9790   12.6590 O.2       1 TYR        -0.3942
     12 CB          0.4280  -34.8700    9.7110 C.3       1 TYR         0.0164
     13 CG          0.6970  -34.5250    8.2630 C.ar      1 TYR        -0.0493
     14 CD1        -0.2220  -33.7900    7.5220 C.ar      1 TYR        -0.0685
     15 CD2         1.8650  -34.9400    7.6340 C.ar      1 TYR        -0.0685
     16 CE1         0.0190  -33.4720    6.1950 C.ar      1 TYR        -0.0398
     17 CE2         2.1140  -34.6290    6.3070 C.ar      1 TYR        -0.0398
     18 CZ          1.1870  -33.8960    5.5930 C.ar      1 TYR         0.0805
     19 OH          1.4290  -33.5840    4.2750 O.3       1 TYR        -0.3376
     20 N          -0.6980  -33.6420   12.7100 N.am      1 TYR        -0.2620
     21 CA         -1.0860  -34.0250   14.0640 C.3       1 TYR         0.1390
     22 C          -2.3640  -34.8550   14.0570 C.2       1 TYR         0.2053
     23 O          -3.3660  -34.4610   13.4600 O.2       1 TYR        -0.3942
     24 CB         -1.2830  -32.7860   14.9410 C.3       1 TYR         0.0163
     25 CG         -0.0480  -31.9290   15.0840 C.ar      1 TYR        -0.0493
     26 CD1         0.8950  -32.1940   16.0700 C.ar      1 TYR        -0.0685
     27 CD2         0.1750  -30.8520   14.2350 C.ar      1 TYR        -0.0685
     28 CE1         2.0290  -31.4100   16.2060 C.ar      1 TYR        -0.0398
     29 CE2         1.3040  -30.0620   14.3620 C.ar      1 TYR        -0.0398
     30 CZ          2.2280  -30.3460   15.3480 C.ar      1 TYR         0.0805
     31 OH          3.3520  -29.5630   15.4780 O.3       1 TYR        -0.3376
     32 N          -2.3230  -36.0040   14.7250 N.am      1 PHE        -0.2676
     33 CA         -3.4970  -36.8610   14.8500 C.3       1 PHE         0.1039
     34 C          -3.3320  -37.8660   15.9840 C.2       1 PHE         0.0621
     35 O          -4.3130  -38.4120   16.4860 O.co2     1 PHE        -0.5664
     36 CB         -3.7870  -37.5880   13.5340 C.3       1 PHE         0.0159
     37 CG         -2.6330  -38.3980   13.0190 C.ar      1 PHE        -0.0392
     38 CD1        -1.6690  -37.8160   12.2090 C.ar      1 PHE        -0.0602
     39 CD2        -2.5130  -39.7420   13.3380 C.ar      1 PHE        -0.0602
     40 CE1        -0.6040  -38.5580   11.7290 C.ar      1 PHE        -0.0686
     41 CE2        -1.4500  -40.4910   12.8620 C.ar      1 PHE        -0.0686
     42 CZ         -0.4940  -39.8980   12.0560 C.ar      1 PHE        -0.0687
     43 OXT        -2.2190  -38.1520   16.4250 O.co2     1 PHE        -0.5664
     44 H1          3.6400  -31.3253    8.0333 H         1 VAL         0.2015
     45 H2          4.8701  -30.5022    8.7536 H         1 VAL         0.2015
     46 H3          3.3353  -29.9107    8.8178 H         1 VAL         0.2015
     47 H4          4.2931  -32.3865   10.0420 H         1 VAL         0.1101
     48 H5          3.3063  -29.8311   11.3959 H         1 VAL         0.0376
     49 H6          4.2550  -30.8888   13.4234 H         1 VAL         0.0236
     50 H7          4.6944  -32.3373   12.4563 H         1 VAL         0.0236
     51 H8          2.9673  -31.8983   12.6823 H         1 VAL         0.0236
     52 H9          5.4349  -29.4196   10.2071 H         1 VAL         0.0236
     53 H10         6.1673  -30.8340   11.0374 H         1 VAL         0.0236
     54 H11         5.6505  -29.4017   11.9902 H         1 VAL         0.0236
     55 H12         2.7704  -33.7619   10.7353 H         1 TYR         0.1886
     56 H13        -0.0769  -32.9098   10.4332 H         1 TYR         0.0821
     57 H14        -0.6157  -35.2065    9.7973 H         1 TYR         0.0453
     58 H15         1.1026  -35.6888   10.0016 H         1 TYR         0.0453
     59 H16        -1.1423  -33.4603    7.9903 H         1 TYR         0.0530
     60 H17         2.5939  -35.5171    8.1915 H         1 TYR         0.0530
     61 H18        -0.7053  -32.8937    5.6328 H         1 TYR         0.0525
     62 H19         3.0309  -34.9591    5.8323 H         1 TYR         0.0525
     63 H20         0.7005  -33.0806    3.9310 H         1 TYR         0.2458
     64 H21        -1.2483  -32.9668   12.2187 H         1 TYR         0.1885
     65 H22        -0.2775  -34.6339   14.4948 H         1 TYR         0.0821
     66 H23        -1.5911  -33.1178   15.9435 H         1 TYR         0.0453
     67 H24        -2.0801  -32.1717   14.4970 H         1 TYR         0.0453
     68 H25         0.7405  -33.0286   16.7443 H         1 TYR         0.0530
     69 H26        -0.5481  -30.6266   13.4595 H         1 TYR         0.0530
     70 H27         2.7550  -31.6300   16.9803 H         1 TYR         0.0525
     71 H28         1.4621  -29.2251   13.6914 H         1 TYR         0.0525
     72 H29         3.8815  -29.8879   16.1967 H         1 TYR         0.2458
     73 H30        -1.4650  -36.2881   15.1529 H         1 PHE         0.1877
     74 H31        -4.3601  -36.2208   15.0847 H         1 PHE         0.0749
     75 H32        -4.0494  -36.8372   12.7741 H         1 PHE         0.0467
     76 H33        -4.6407  -38.2634   13.6923 H         1 PHE         0.0467
     77 H34        -1.7509  -36.7669   11.9487 H         1 PHE         0.0557
     78 H35        -3.2601  -40.2119   13.9674 H         1 PHE         0.0557
     79 H36         0.1429  -38.0902   11.0978 H         1 PHE         0.0599
     80 H37        -1.3668  -41.5405   13.1204 H         1 PHE         0.0599
     81 H38         0.3391  -40.4819   11.6817 H         1 PHE         0.0559
@<TRIPOS>BOND
     1    1    2 1  
     2    2    3 1  
     3    2    5 1  
     4    3    4 2  
     5    3    8 am 
     6    5    6 1  
     7    5    7 1  
     8    8    9 1  
     9    9   10 1  
    10    9   12 1  
    11   10   11 2  
    12   10   20 am 
    13   12   13 1  
    14   13   14 ar 
    15   13   15 ar 
    16   14   16 ar 
    17   15   17 ar 
    18   16   18 ar 
    19   17   18 ar 
    20   18   19 1  
    21   20   21 1  
    22   21   22 1  
    23   21   24 1  
    24   22   23 2  
    25   22   32 am 
    26   24   25 1  
    27   25   26 ar 
    28   25   27 ar 
    29   26   28 ar 
    30   27   29 ar 
    31   28   30 ar 
    32   29   30 ar 
    33   30   31 1  
    34   32   33 1  
    35   33   34 1  
    36   33   36 1  
    37   34   35 ar 
    38   34   43 ar 
    39   36   37 1  
    40   37   38 ar 
    41   37   39 ar 
    42   38   40 ar 
    43   39   41 ar 
    44   40   42 ar 
    45   41   42 ar 
    46    1   44 1  
    47    1   45 1  
    48    1   46 1  
    49    2   47 1  
    50    5   48 1  
    51    6   49 1  
    52    6   50 1  
    53    6   51 1  
    54    7   52 1  
    55    7   53 1  
    56    7   54 1  
    57    8   55 1  
    58    9   56 1  
    59   12   57 1  
    60   12   58 1  
    61   14   59 1  
    62   15   60 1  
    63   16   61 1  
    64   17   62 1  
    65   19   63 1  
    66   20   64 1  
    67   21   65 1  
    68   24   66 1  
    69   24   67 1  
    70   26   68 1  
    71   27   69 1  
    72   28   70 1  
    73   29   71 1  
    74   31   72 1  
    75   32   73 1  
    76   33   74 1  
    77   36   75 1  
    78   36   76 1  
    79   38   77 1  
    80   39   78 1  
    81   40   79 1  
    82   41   80 1  
    83   42   81 1  
@<TRIPOS>SUBSTRUCTURE
     1 VAL         1

