### 
### Created by X-TOOL on Mon Sep 10 21:12:59 2018
### 

@<TRIPOS>MOLECULE
3ge7_ligand
   53    56     1     0     0
SMALL
GAST_HUCK


@<TRIPOS>ATOM
      1 C2         18.1830   17.1420   23.0550 C.2       1 AFQ         0.2072
      2 O16        19.2780   17.5160   23.4350 O.2       1 AFQ        -0.3875
      3 N3         17.1410   16.8660   23.8840 N.am      1 AFQ        -0.2612
      4 C4         15.9910   16.3740   23.3340 C.cat     1 AFQ         0.1758
      5 N17        14.9990   16.0260   24.1950 N.pl3     1 AFQ        -0.3393
      6 N5         15.7910   16.2930   22.0670 N.pl3     1 AFQ        -0.2634
      7 C6         16.7060   16.6270   21.1090 C.ar      1 AFQ         0.1475
      8 C10        16.3840   16.5220   19.7360 C.ar      1 AFQ         0.0887
      9 C18        15.1460   15.8650   19.1540 C.3       1 AFQ         0.0637
     10 C19        15.3660   14.4250   18.5710 C.3       1 AFQ        -0.0107
     11 N20        14.2220   14.2050   17.6420 N.4       1 AFQ         0.2306
     12 C21        12.8530   14.2330   18.2440 C.3       1 AFQ        -0.0304
     13 C22        11.8100   14.3100   17.0890 C.3       1 AFQ        -0.0008
     14 C26        11.6950   15.7160   16.4740 C.3       1 AFQ        -0.0454
     15 C25        10.2480   15.7770   15.9240 C.3       1 AFQ        -0.0526
     16 C24         9.3990   14.9600   16.9560 C.3       1 AFQ        -0.0526
     17 C23        10.3900   13.9760   17.6050 C.3       1 AFQ        -0.0454
     18 C9         17.4060   16.9130   18.8690 C.ar      1 AFQ         0.1229
     19 N11        17.4980   17.0470   17.5240 N.2       1 AFQ        -0.2121
     20 C12        18.6620   17.4350   17.1700 C.2       1 AFQ         0.2754
     21 N14        19.2260   17.6600   15.9820 N.pl3     1 AFQ        -0.2574
     22 C15        18.6080   17.4710   14.6850 C.3       1 AFQ         0.0295
     23 N13        19.4460   17.6520   18.2440 N.pl3     1 AFQ        -0.2051
     24 C8         18.6210   17.3370   19.3400 C.ar      1 AFQ         0.1282
     25 C7         18.9870   17.4340   20.6810 C.ar      1 AFQ         0.0141
     26 C1         17.9710   17.0360   21.5650 C.ar      1 AFQ         0.1119
     27 H1         17.2144   17.0190   24.8695 H         1 AFQ         0.1807
     28 H2         14.1112   15.6498   23.8328 H         1 AFQ         0.1744
     29 H3         15.1349   16.1385   25.2098 H         1 AFQ         0.1744
     30 H4         14.8726   15.9508   21.7503 H         1 AFQ         0.2162
     31 H5         14.7693   16.5064   18.3436 H         1 AFQ         0.0702
     32 H6         14.3900   15.7980   19.9502 H         1 AFQ         0.0702
     33 H7         15.3587   13.6765   19.3770 H         1 AFQ         0.0870
     34 H8         16.3209   14.3697   18.0279 H         1 AFQ         0.0870
     35 H9         14.3477   13.3025   17.2110 H         1 AFQ         0.2017
     36 H10        14.2597   14.9230   16.9355 H         1 AFQ         0.2017
     37 H11        12.7515   15.1134   18.8956 H         1 AFQ         0.0817
     38 H12        12.6876   13.3193   18.8337 H         1 AFQ         0.0817
     39 H13        12.1034   13.5919   16.3091 H         1 AFQ         0.0352
     40 H14        12.4259   15.8472   15.6625 H         1 AFQ         0.0270
     41 H15        11.8537   16.4901   17.2392 H         1 AFQ         0.0270
     42 H16        10.1922   15.3185   14.9257 H         1 AFQ         0.0265
     43 H17         9.8967   16.8180   15.8696 H         1 AFQ         0.0265
     44 H18         8.5920   14.4141   16.4454 H         1 AFQ         0.0265
     45 H19         8.9665   15.6285   17.7149 H         1 AFQ         0.0265
     46 H20        10.3569   14.0817   18.6994 H         1 AFQ         0.0270
     47 H21        10.1261   12.9447   17.3280 H         1 AFQ         0.0270
     48 H22        20.1975   18.0021   15.9873 H         1 AFQ         0.2022
     49 H23        19.3241   17.7408   13.8948 H         1 AFQ         0.0510
     50 H24        17.7170   18.1113   14.6065 H         1 AFQ         0.0510
     51 H25        18.3138   16.4175   14.5690 H         1 AFQ         0.0510
     52 H26        20.4242   17.9743   18.2595 H         1 AFQ         0.2451
     53 H27        19.9596   17.7822   21.0093 H         1 AFQ         0.0919
@<TRIPOS>BOND
     1    1    2 2  
     2    1    3 am 
     3    1   26 1  
     4    3    4 ar 
     5    4    5 ar 
     6    4    6 ar 
     7    6    7 1  
     8    7    8 ar 
     9    7   26 ar 
    10    8    9 1  
    11    8   18 ar 
    12    9   10 1  
    13   10   11 1  
    14   11   12 1  
    15   12   13 1  
    16   13   14 1  
    17   13   17 1  
    18   14   15 1  
    19   15   16 1  
    20   16   17 1  
    21   18   19 1  
    22   18   24 ar 
    23   19   20 2  
    24   20   21 1  
    25   20   23 1  
    26   21   22 1  
    27   23   24 1  
    28   24   25 ar 
    29   25   26 ar 
    30    3   27 1  
    31    5   28 1  
    32    5   29 1  
    33    6   30 1  
    34    9   31 1  
    35    9   32 1  
    36   10   33 1  
    37   10   34 1  
    38   11   35 1  
    39   11   36 1  
    40   12   37 1  
    41   12   38 1  
    42   13   39 1  
    43   14   40 1  
    44   14   41 1  
    45   15   42 1  
    46   15   43 1  
    47   16   44 1  
    48   16   45 1  
    49   17   46 1  
    50   17   47 1  
    51   21   48 1  
    52   22   49 1  
    53   22   50 1  
    54   22   51 1  
    55   23   52 1  
    56   25   53 1  
@<TRIPOS>SUBSTRUCTURE
     1 AFQ         1

