### 
### Created by X-TOOL on Mon Sep 10 21:13:03 2018
### 

@<TRIPOS>MOLECULE
3gen_ligand
   50    54     1     0     0
SMALL
GAST_HUCK


@<TRIPOS>ATOM
      1 N1        -19.3930    4.7490  -16.8150 N.pl3     1 B43        -0.3157
      2 C1        -18.3580    5.0350  -17.6220 C.ar      1 B43         0.1172
      3 N4        -18.4720    4.6780  -18.9310 N.ar      1 B43        -0.2727
      4 C23       -17.5020    4.9300  -19.8220 C.ar      1 B43         0.0507
      5 N3        -16.3840    5.5440  -19.4320 N.ar      1 B43        -0.2757
      6 C22       -16.2230    5.9140  -18.1310 C.ar      1 B43         0.1411
      7 C2        -17.2010    5.6710  -17.1740 C.ar      1 B43         0.0535
      8 N2        -15.2090    6.5290  -17.5510 N.pl3     1 B43        -0.2456
      9 C17       -14.0520    6.9970  -18.3400 C.3       1 B43         0.0668
     10 C21       -14.0670    8.5010  -18.5480 C.3       1 B43        -0.0227
     11 C20       -12.6050    8.9100  -18.6180 C.3       1 B43        -0.0502
     12 C19       -11.7680    7.6640  -18.3770 C.3       1 B43        -0.0502
     13 C18       -12.7040    6.6720  -17.7220 C.3       1 B43        -0.0227
     14 C16       -15.4730    6.7000  -16.2500 C.2       1 B43         0.0405
     15 C3        -16.7230    6.1820  -15.9620 C.2       1 B43        -0.0100
     16 C4        -17.2900    6.1110  -14.6740 C.ar      1 B43        -0.0471
     17 C15       -17.6700    4.8840  -14.1250 C.ar      1 B43        -0.0693
     18 C14       -18.1110    4.7870  -12.8040 C.ar      1 B43        -0.0325
     19 C7        -18.2030    5.9130  -11.9900 C.ar      1 B43         0.1123
     20 C6        -17.8060    7.1410  -12.5140 C.ar      1 B43        -0.0325
     21 C5        -17.3660    7.2350  -13.8380 C.ar      1 B43        -0.0693
     22 O         -18.8410    5.7800  -10.7740 O.3       1 B43        -0.2602
     23 C8        -19.8030    6.6210  -10.2870 C.ar      1 B43         0.1153
     24 C13       -20.8560    7.0490  -11.0900 C.ar      1 B43        -0.0286
     25 C12       -21.8240    7.8810  -10.5460 C.ar      1 B43        -0.0697
     26 C11       -21.7460    8.2850   -9.2220 C.ar      1 B43        -0.0723
     27 C10       -20.6910    7.8570   -8.4300 C.ar      1 B43        -0.0697
     28 C9        -19.7290    7.0060   -8.9480 C.ar      1 B43        -0.0286
     29 H1        -19.3525    5.0000  -15.8169 H         1 B43         0.1824
     30 H2        -20.2272    4.2787  -17.1943 H         1 B43         0.1824
     31 H3        -17.6263    4.6351  -20.8577 H         1 B43         0.0981
     32 H4        -14.1096    6.5045  -19.3219 H         1 B43         0.0648
     33 H5        -14.5673    9.0016  -17.7059 H         1 B43         0.0295
     34 H6        -14.5836    8.7554  -19.4852 H         1 B43         0.0295
     35 H7        -12.3885    9.6626  -17.8456 H         1 B43         0.0266
     36 H8        -12.3792    9.3275  -19.6103 H         1 B43         0.0266
     37 H9        -10.9217    7.8915  -17.7121 H         1 B43         0.0266
     38 H10       -11.3891    7.2647  -19.3293 H         1 B43         0.0266
     39 H11       -12.4050    5.6386  -17.9513 H         1 B43         0.0295
     40 H12       -12.7268    6.8137  -16.6314 H         1 B43         0.0295
     41 H13       -14.8071    7.1734  -15.5300 H         1 B43         0.0962
     42 H14       -17.6215    3.9901  -14.7363 H         1 B43         0.0550
     43 H15       -18.3868    3.8177  -12.4048 H         1 B43         0.0544
     44 H16       -17.8383    8.0284  -11.8922 H         1 B43         0.0544
     45 H17       -17.0756    8.2033  -14.2293 H         1 B43         0.0550
     46 H18       -20.9191    6.7367  -12.1261 H         1 B43         0.0552
     47 H19       -22.6494    8.2185  -11.1623 H         1 B43         0.0590
     48 H20       -22.5082    8.9342   -8.8066 H         1 B43         0.0527
     49 H21       -20.6191    8.1901   -7.4009 H         1 B43         0.0590
     50 H22       -18.9252    6.6420   -8.3183 H         1 B43         0.0552
@<TRIPOS>BOND
     1    1    2 1  
     2    2    3 ar 
     3    2    7 ar 
     4    3    4 ar 
     5    4    5 ar 
     6    5    6 ar 
     7    6    7 ar 
     8    6    8 1  
     9    7   15 1  
    10    8    9 1  
    11    8   14 1  
    12    9   10 1  
    13    9   13 1  
    14   10   11 1  
    15   11   12 1  
    16   12   13 1  
    17   14   15 2  
    18   15   16 1  
    19   16   17 ar 
    20   16   21 ar 
    21   17   18 ar 
    22   18   19 ar 
    23   19   20 ar 
    24   19   22 1  
    25   20   21 ar 
    26   22   23 1  
    27   23   24 ar 
    28   23   28 ar 
    29   24   25 ar 
    30   25   26 ar 
    31   26   27 ar 
    32   27   28 ar 
    33    1   29 1  
    34    1   30 1  
    35    4   31 1  
    36    9   32 1  
    37   10   33 1  
    38   10   34 1  
    39   11   35 1  
    40   11   36 1  
    41   12   37 1  
    42   12   38 1  
    43   13   39 1  
    44   13   40 1  
    45   14   41 1  
    46   17   42 1  
    47   18   43 1  
    48   20   44 1  
    49   21   45 1  
    50   24   46 1  
    51   25   47 1  
    52   26   48 1  
    53   27   49 1  
    54   28   50 1  
@<TRIPOS>SUBSTRUCTURE
     1 B43         1

