### 
### Created by X-TOOL on Mon Sep 10 21:13:02 2018
### 

@<TRIPOS>MOLECULE
3gf2_ligand
   15    15     1     0     0
SMALL
GAST_HUCK


@<TRIPOS>ATOM
      1 C1'         2.9440   -3.3030  -25.4070 C.2       1 SAL         0.0582
      2 O1'         2.6870   -4.1750  -26.2120 O.co2     1 SAL        -0.5643
      3 O2'         3.9230   -2.4180  -25.6840 O.co2     1 SAL        -0.5643
      4 C1          2.1890   -3.2040  -24.1180 C.ar      1 SAL         0.0385
      5 C2          1.1350   -4.1300  -23.7850 C.ar      1 SAL         0.1029
      6 C3          0.4520   -3.9930  -22.5490 C.ar      1 SAL        -0.0293
      7 C4          0.7980   -2.9660  -21.6500 C.ar      1 SAL        -0.0679
      8 C5          1.8270   -2.0560  -21.9670 C.ar      1 SAL        -0.0692
      9 C6          2.5210   -2.1670  -23.1850 C.ar      1 SAL        -0.0561
     10 O2          0.7880   -5.1280  -24.6450 O.3       1 SAL        -0.3295
     11 H1         -0.3429   -4.6848  -22.2946 H         1 SAL         0.0550
     12 H2          0.2696   -2.8745  -20.7079 H         1 SAL         0.0610
     13 H3          2.0843   -1.2675  -21.2690 H         1 SAL         0.0531
     14 H4          3.3120   -1.4641  -23.4201 H         1 SAL         0.0622
     15 H5          1.3362   -5.0819  -25.4195 H         1 SAL         0.2498
@<TRIPOS>BOND
     1    1    2 ar 
     2    1    3 ar 
     3    1    4 1  
     4    4    5 ar 
     5    4    9 ar 
     6    5    6 ar 
     7    5   10 1  
     8    6    7 ar 
     9    7    8 ar 
    10    8    9 ar 
    11    6   11 1  
    12    7   12 1  
    13    8   13 1  
    14    9   14 1  
    15   10   15 1  
@<TRIPOS>SUBSTRUCTURE
     1 SAL         1

