### 
### Created by X-TOOL on Mon Sep 10 21:13:01 2018
### 

@<TRIPOS>MOLECULE
3gfe_ligand
   54    58     1     0     0
SMALL
GAST_HUCK


@<TRIPOS>ATOM
      1 N1          6.4920   28.1260   27.7220 N.am      1 P37        -0.2841
      2 N3          0.5130   35.5450   30.4480 N.2       1 P37        -0.2162
      3 C4          6.9060   27.6620   25.2640 C.3       1 P37        -0.0279
      4 C5          5.6570   30.0530   28.9690 C.ar      1 P37         0.0352
      5 C6         -2.4610   34.5920   30.4380 C.ar      1 P37         0.1650
      6 C7         -3.8100   34.8050   30.6760 C.ar      1 P37         0.0008
      7 C8         -4.2020   35.4450   31.8440 C.ar      1 P37         0.1226
      8 C10        -1.8860   35.6530   32.5400 C.ar      1 P37        -0.0298
      9 C13         1.6630   33.7420   30.7530 C.2       1 P37         0.0659
     10 C15         0.9630   31.3180   31.9650 C.2       1 P37         0.2364
     11 C17         2.5960   32.7020   30.8220 C.2       1 P37         0.0269
     12 C20         4.6880   31.0440   29.1200 C.ar      1 P37        -0.0439
     13 C21         6.7110   29.9790   29.8880 C.ar      1 P37        -0.0565
     14 C22         6.7840   30.8860   30.9500 C.ar      1 P37        -0.0618
     15 C24         5.8910   32.8600   32.2680 C.3       1 P37        -0.0310
     16 C3          7.9510   26.8820   26.0600 C.3       1 P37        -0.0279
     17 C2          6.5590   27.1170   26.6520 C.3       1 P37         0.0416
     18 C1          5.5550   29.0750   27.7750 C.2       1 P37         0.1985
     19 O1          4.6630   29.2070   26.9340 O.2       1 P37        -0.3877
     20 C23         5.8010   31.8700   31.1010 C.ar      1 P37        -0.0356
     21 C19         4.7510   31.9510   30.1820 C.ar      1 P37         0.0020
     22 N5          3.8140   32.8980   30.3040 N.2       1 P37        -0.3413
     23 C16         2.2430   31.4920   31.4330 C.3       1 P37         0.0971
     24 O2          0.6590   30.2500   32.4970 O.2       1 P37        -0.3772
     25 N4          0.0180   32.3640   31.8920 N.am      1 P37        -0.1734
     26 C18        -1.3370   32.1420   32.4700 C.3       1 P37         0.0565
     27 C12         0.3850   33.5870   31.2750 C.2       1 P37         0.2409
     28 C14         1.7030   34.9740   30.2450 C.2       1 P37         0.0022
     29 N2         -0.2240   34.7550   31.0490 N.pl3     1 P37        -0.1271
     30 C11        -1.4960   35.0110   31.3600 C.ar      1 P37         0.1426
     31 C9         -3.2470   35.8670   32.7750 C.ar      1 P37        -0.0369
     32 F2         -5.5190   35.6400   32.0530 F         1 P37        -0.1908
     33 F1         -2.0930   33.9660   29.3010 F         1 P37        -0.1872
     34 H1          7.1826   28.0990   28.4447 H         1 P37         0.1846
     35 H2          6.4507   27.2147   24.3681 H         1 P37         0.0288
     36 H3          7.0257   28.7449   25.1127 H         1 P37         0.0288
     37 H4         -4.5514   34.4751   29.9573 H         1 P37         0.0571
     38 H5         -1.1447   35.9792   33.2605 H         1 P37         0.0558
     39 H6          3.8759   31.1121   28.4052 H         1 P37         0.0583
     40 H7          7.4729   29.2161   29.7758 H         1 P37         0.0585
     41 H8          7.6034   30.8265   31.6572 H         1 P37         0.0546
     42 H9          6.7807   32.6329   32.8737 H         1 P37         0.0390
     43 H10         4.9900   32.7730   32.8930 H         1 P37         0.0390
     44 H11         5.9670   33.8845   31.8747 H         1 P37         0.0390
     45 H12         8.8229   27.4035   26.4816 H         1 P37         0.0288
     46 H13         8.2479   25.8733   25.7370 H         1 P37         0.0288
     47 H14         5.8373   26.3003   26.8010 H         1 P37         0.0555
     48 H15         2.3811   30.7044   30.6776 H         1 P37         0.0752
     49 H16         2.9525   31.3363   32.2590 H         1 P37         0.0752
     50 H17        -1.3939   31.1278   32.8921 H         1 P37         0.0577
     51 H18        -2.0951   32.2537   31.6808 H         1 P37         0.0577
     52 H19        -1.5225   32.8805   33.2639 H         1 P37         0.0577
     53 H20         2.5572   35.4344   29.7507 H         1 P37         0.0670
     54 H21        -3.5647   36.3633   33.6848 H         1 P37         0.0552
@<TRIPOS>BOND
     1    1   17 1  
     2   18    1 am 
     3    2   28 2  
     4   29    2 1  
     5   16    3 1  
     6   17    3 1  
     7   12    4 ar 
     8    4   13 ar 
     9    4   18 1  
    10    5    6 ar 
    11   30    5 ar 
    12    5   33 1  
    13    6    7 ar 
    14   31    7 ar 
    15    7   32 1  
    16   30    8 ar 
    17    8   31 ar 
    18    9   11 1  
    19   27    9 2  
    20    9   28 1  
    21   10   23 1  
    22   10   24 2  
    23   25   10 am 
    24   11   22 2  
    25   11   23 1  
    26   21   12 ar 
    27   14   13 ar 
    28   20   14 ar 
    29   20   15 1  
    30   17   16 1  
    31   18   19 2  
    32   21   20 ar 
    33   22   21 1  
    34   25   26 1  
    35   27   25 1  
    36   29   27 1  
    37   29   30 1  
    38    1   34 1  
    39    3   35 1  
    40    3   36 1  
    41    6   37 1  
    42    8   38 1  
    43   12   39 1  
    44   13   40 1  
    45   14   41 1  
    46   15   42 1  
    47   15   43 1  
    48   15   44 1  
    49   16   45 1  
    50   16   46 1  
    51   17   47 1  
    52   23   48 1  
    53   23   49 1  
    54   26   50 1  
    55   26   51 1  
    56   26   52 1  
    57   28   53 1  
    58   31   54 1  
@<TRIPOS>SUBSTRUCTURE
     1 P37         1

