### 
### Created by X-TOOL on Mon Sep 10 21:13:01 2018
### 

@<TRIPOS>MOLECULE
3gfw_ligand
   71    75     1     0     0
SMALL
GAST_HUCK


@<TRIPOS>ATOM
      1 CAT        -2.2920   12.3510   48.5210 C.3       1 S22         0.0269
      2 CAU        -1.7470   10.9210   48.7510 C.3       1 S22        -0.0074
      3 CAV        -2.2850    9.8800   47.7480 C.3       1 S22         0.0588
      4 OAY        -3.3550    9.1490   48.3800 O.3       1 S22        -0.3917
      5 CAW        -2.8100   10.5380   46.4520 C.3       1 S22        -0.0074
      6 CAX        -2.0170   11.7920   46.0290 C.3       1 S22         0.0269
      7 NAS        -1.9310   12.7640   47.1450 N.pl3     1 S22        -0.3167
      8 CAN        -1.5270   14.0580   46.8590 C.ar      1 S22         0.0197
      9 CAO        -1.2660   14.9650   47.8760 C.ar      1 S22        -0.0246
     10 CAP        -0.8830   16.2600   47.5310 C.ar      1 S22         0.1038
     11 OAQ        -0.6070   17.1720   48.5150 O.3       1 S22        -0.3283
     12 CAR        -0.8830   16.6860   49.8340 C.3       1 S22         0.0567
     13 CAM        -1.4290   14.4230   45.5220 C.ar      1 S22        -0.0647
     14 CAL        -1.0380   15.7020   45.1860 C.ar      1 S22        -0.0579
     15 CAK        -0.7550   16.6380   46.1770 C.ar      1 S22         0.0782
     16 NAJ        -0.3750   17.9060   45.8540 N.pl3     1 S22        -0.2784
     17 CAA         0.3840   18.2870   44.7890 C.ar      1 S22         0.0937
     18 CAB         1.0180   17.3950   43.9300 C.ar      1 S22        -0.0078
     19 NAF         0.5310   19.6160   44.5660 N.ar      1 S22        -0.2936
     20 CAE         1.2550   20.1030   43.5440 C.ar      1 S22         0.1062
     21 NAI         1.5050   21.3390   43.1390 N.pl3     1 S22        -0.2785
     22 CAH         2.2970   21.2540   42.0620 C.2       1 S22         0.0152
     23 CAG         2.5320   19.9740   41.7580 C.2       1 S22        -0.0676
     24 CAD         1.9060   19.2380   42.6680 C.ar      1 S22         0.0125
     25 CAC         1.7950   17.8710   42.8650 C.ar      1 S22         0.0602
     26 NAZ         2.4120   17.0480   41.9940 N.pl3     1 S22        -0.2696
     27 CBA         2.6550   15.7530   42.2470 C.ar      1 S22         0.0862
     28 CBF         3.0110   15.3760   43.5330 C.ar      1 S22        -0.0370
     29 CBE         3.2650   14.0330   43.8010 C.ar      1 S22        -0.0717
     30 CBD         3.1950   13.0580   42.8040 C.ar      1 S22        -0.0719
     31 CBC         2.8580   13.4320   41.5160 C.ar      1 S22        -0.0469
     32 CBB         2.5900   14.7760   41.2410 C.ar      1 S22         0.1108
     33 SBG         2.1300   15.1350   39.5930 S.o2      1 S22        -0.0032
     34 OBH         2.7300   14.0920   38.7050 O.2       1 S22        -0.1708
     35 OBI         2.5300   16.5440   39.2420 O.2       1 S22        -0.1708
     36 CBJ         0.3420   14.9390   39.4500 C.3       1 S22         0.0748
     37 CBL        -0.0420   13.4670   39.6300 C.3       1 S22        -0.0429
     38 CBK        -0.2900   15.7990   40.5060 C.3       1 S22        -0.0429
     39 H          -1.8588   13.0398   49.2463 H         1 S22         0.0510
     40 H          -3.3747   12.3655   48.6462 H         1 S22         0.0510
     41 H          -2.0651   10.6083   49.7455 H         1 S22         0.0309
     42 H          -0.6648   10.9621   48.6272 H         1 S22         0.0309
     43 H          -1.4662    9.2169   47.4688 H         1 S22         0.0594
     44 H          -3.7007    8.4961   47.7670 H         1 S22         0.2098
     45 H          -3.8380   10.8493   46.6375 H         1 S22         0.0309
     46 H          -2.7125    9.8049   45.6513 H         1 S22         0.0309
     47 H          -2.5290   12.2646   45.1908 H         1 S22         0.0510
     48 H          -1.0080   11.4906   45.7478 H         1 S22         0.0510
     49 H          -1.3584   14.6713   48.9216 H         1 S22         0.0408
     50 H          -1.9395   16.4291   49.9115 H         1 S22         0.0573
     51 H          -0.2774   15.8007   50.0278 H         1 S22         0.0573
     52 H          -0.6415   17.4597   50.5628 H         1 S22         0.0573
     53 H          -1.6607   13.6997   44.7401 H         1 S22         0.0396
     54 H          -0.9498   15.9823   44.1364 H         1 S22         0.0470
     55 H          -0.6928   18.6492   46.4761 H         1 S22         0.2049
     56 H           0.9100   16.3216   44.0858 H         1 S22         0.0413
     57 H           1.1585   22.1971   43.5679 H         1 S22         0.2268
     58 H           2.6934   22.1074   41.5119 H         1 S22         0.0855
     59 H           3.1252   19.6046   40.9215 H         1 S22         0.0279
     60 H           2.7096   17.4294   41.0960 H         1 S22         0.2128
     61 H           3.0911   16.1213   44.3243 H         1 S22         0.0534
     62 H           3.5255   13.7351   44.8166 H         1 S22         0.0586
     63 H           3.4036   12.0141   43.0382 H         1 S22         0.0517
     64 H           2.8019   12.6861   40.7231 H         1 S22         0.0605
     65 H          -0.0077   15.2451   38.4641 H         1 S22         0.0533
     66 H           0.4468   12.8687   38.8611 H         1 S22         0.0248
     67 H           0.2782   13.1271   40.6149 H         1 S22         0.0248
     68 H          -1.1233   13.3615   39.5416 H         1 S22         0.0248
     69 H           0.0525   15.4758   41.4890 H         1 S22         0.0248
     70 H          -0.0053   16.8387   40.3444 H         1 S22         0.0248
     71 H          -1.3744   15.7047   40.4485 H         1 S22         0.0248
@<TRIPOS>BOND
     1    1    2 1  
     2    1    7 1  
     3    2    3 1  
     4    3    4 1  
     5    3    5 1  
     6    5    6 1  
     7    6    7 1  
     8    7    8 1  
     9    8    9 ar 
    10    8   13 ar 
    11    9   10 ar 
    12   10   11 1  
    13   10   15 ar 
    14   11   12 1  
    15   13   14 ar 
    16   14   15 ar 
    17   15   16 1  
    18   16   17 1  
    19   17   18 ar 
    20   17   19 ar 
    21   18   25 ar 
    22   19   20 ar 
    23   20   21 1  
    24   20   24 ar 
    25   21   22 1  
    26   22   23 2  
    27   23   24 1  
    28   24   25 ar 
    29   25   26 1  
    30   26   27 1  
    31   27   28 ar 
    32   27   32 ar 
    33   28   29 ar 
    34   29   30 ar 
    35   30   31 ar 
    36   31   32 ar 
    37   32   33 1  
    38   33   34 2  
    39   33   35 2  
    40   33   36 1  
    41   36   37 1  
    42   36   38 1  
    43    1   39 1  
    44    1   40 1  
    45    2   41 1  
    46    2   42 1  
    47    3   43 1  
    48    4   44 1  
    49    5   45 1  
    50    5   46 1  
    51    6   47 1  
    52    6   48 1  
    53    9   49 1  
    54   12   50 1  
    55   12   51 1  
    56   12   52 1  
    57   13   53 1  
    58   14   54 1  
    59   16   55 1  
    60   18   56 1  
    61   21   57 1  
    62   22   58 1  
    63   23   59 1  
    64   26   60 1  
    65   28   61 1  
    66   29   62 1  
    67   30   63 1  
    68   31   64 1  
    69   36   65 1  
    70   37   66 1  
    71   37   67 1  
    72   37   68 1  
    73   38   69 1  
    74   38   70 1  
    75   38   71 1  
@<TRIPOS>SUBSTRUCTURE
     1 S22         1

