### 
### Created by X-TOOL on Mon Sep 10 21:13:01 2018
### 

@<TRIPOS>MOLECULE
3ggu_ligand
   75    78     1     0     0
SMALL
GAST_HUCK


@<TRIPOS>ATOM
      1 N1         -9.3630   16.8160   18.7360 N.pl3     1 017        -0.3369
      2 C2         -9.1960   16.5170   20.0320 C.ar      1 017         0.0353
      3 C3        -10.3240   16.4200   20.8380 C.ar      1 017        -0.0429
      4 C4        -10.1840   16.1130   22.1820 C.ar      1 017        -0.0471
      5 C5         -8.9080   15.8960   22.7100 C.ar      1 017         0.0949
      6 C6         -7.7810   15.9870   21.8870 C.ar      1 017        -0.0471
      7 C7         -7.9200   16.3050   20.5390 C.ar      1 017        -0.0429
      8 S8         -8.7740   15.5360   24.2600 S.o2      1 017         0.0648
      9 O9         -9.9220   14.7830   24.6610 O.2       1 017        -0.1518
     10 O10        -7.5990   14.7620   24.4660 O.2       1 017        -0.1518
     11 N11        -8.6080   16.8270   25.2560 N.am      1 017        -0.2327
     12 C12        -7.4760   17.7030   24.8680 C.3       1 017         0.0319
     13 C13        -6.9370   18.4360   26.1080 C.3       1 017        -0.0296
     14 C14        -6.3150   17.4760   27.1190 C.3       1 017        -0.0612
     15 C15        -5.9480   19.5240   25.7120 C.3       1 017        -0.0612
     16 C16        -9.8680   17.5970   25.3870 C.3       1 017         0.0578
     17 C17       -10.3380   17.6320   26.8480 C.3       1 017         0.0967
     18 O18       -11.3910   18.5840   27.0110 O.3       1 017        -0.3877
     19 C19       -10.8000   16.2660   27.3620 C.3       1 017         0.0807
     20 N20       -10.8560   16.4080   28.8070 N.am      1 017        -0.2550
     21 C21        -9.9920   15.8310   29.6430 C.2       1 017         0.3203
     22 O22        -9.0390   15.1110   29.3290 O.2       1 017        -0.3775
     23 O23       -10.2390   16.1190   31.0320 O.3       1 017        -0.2578
     24 C24        -9.5500   15.3460   32.0010 C.3       1 017         0.1189
     25 C25        -9.2420   16.3700   33.0730 C.3       1 017         0.0815
     26 O26       -10.4870   16.5310   33.7560 O.3       1 017        -0.3480
     27 C27       -11.1740   15.2720   33.7600 C.3       1 017         0.1648
     28 O28       -12.5360   15.4970   33.4170 O.3       1 017        -0.3509
     29 C29       -12.9000   14.7710   32.2320 C.3       1 017         0.0512
     30 C30       -11.6850   13.9630   31.7920 C.3       1 017        -0.0191
     31 C31       -10.5390   14.4150   32.6790 C.3       1 017         0.0449
     32 C32       -12.2200   15.8860   26.9260 C.3       1 017         0.0064
     33 C33       -13.5770   14.3570   28.3480 C.ar      1 017        -0.0603
     34 C34       -13.8270   13.0950   28.8470 C.ar      1 017        -0.0686
     35 C35       -13.0520   12.0110   28.4690 C.ar      1 017        -0.0687
     36 C36       -11.9960   12.1870   27.5850 C.ar      1 017        -0.0686
     37 C37       -11.7260   13.4490   27.0740 C.ar      1 017        -0.0603
     38 C38       -12.5230   14.5300   27.4540 C.ar      1 017        -0.0408
     39 H1        -10.3096   16.9729   18.3615 H         1 017         0.1719
     40 H2         -8.5447   16.8888   18.1147 H         1 017         0.1719
     41 H3        -11.3094   16.5838   20.4170 H         1 017         0.0515
     42 H4        -11.0578   16.0416   22.8195 H         1 017         0.0602
     43 H5         -6.7949   15.8091   22.3006 H         1 017         0.0602
     44 H6         -7.0499   16.3856   19.8975 H         1 017         0.0515
     45 H7         -7.8216   18.4408   24.1290 H         1 017         0.0480
     46 H8         -6.6746   17.0912   24.4282 H         1 017         0.0480
     47 H9         -7.7914   18.9243   26.5994 H         1 017         0.0311
     48 H10        -5.9452   18.0446   27.9850 H         1 017         0.0233
     49 H11        -5.4781   16.9394   26.6483 H         1 017         0.0233
     50 H12        -7.0735   16.7524   27.4523 H         1 017         0.0233
     51 H13        -6.4196   20.2010   24.9845 H         1 017         0.0233
     52 H14        -5.0573   19.0631   25.2601 H         1 017         0.0233
     53 H15        -5.6527   20.0939   26.6053 H         1 017         0.0233
     54 H16       -10.6456   17.1234   24.7696 H         1 017         0.0504
     55 H17        -9.6992   18.6264   25.0381 H         1 017         0.0504
     56 H18        -9.4848   17.9517   27.4643 H         1 017         0.0634
     57 H19       -12.1233   18.3427   26.4559 H         1 017         0.2100
     58 H20       -10.0896   15.4846   27.0543 H         1 017         0.0604
     59 H21       -11.5846   16.9710   29.1971 H         1 017         0.1873
     60 H22        -8.6688   14.8247   31.5990 H         1 017         0.0675
     61 H23        -8.9146   17.3200   32.6254 H         1 017         0.0590
     62 H24        -8.4644   15.9997   33.7572 H         1 017         0.0590
     63 H25       -11.0972   14.7853   34.7435 H         1 017         0.0913
     64 H26       -13.1908   15.4733   31.4369 H         1 017         0.0561
     65 H27       -13.7403   14.0954   32.4498 H         1 017         0.0561
     66 H28       -11.4535   14.1651   30.7358 H         1 017         0.0293
     67 H29       -11.8718   12.8874   31.9272 H         1 017         0.0293
     68 H30       -10.0171   13.5408   33.0954 H         1 017         0.0380
     69 H31       -12.2829   15.8801   25.8278 H         1 017         0.0449
     70 H32       -12.9403   16.6122   27.3307 H         1 017         0.0449
     71 H33       -14.1904   15.1994   28.6467 H         1 017         0.0557
     72 H34       -14.6428   12.9497   29.5459 H         1 017         0.0599
     73 H35       -13.2700   11.0251   28.8634 H         1 017         0.0559
     74 H36       -11.3838   11.3409   27.2946 H         1 017         0.0599
     75 H37       -10.9020   13.5940   26.3847 H         1 017         0.0557
@<TRIPOS>BOND
     1    2    1 1  
     2    3    2 ar 
     3    7    2 ar 
     4    4    3 ar 
     5    5    4 ar 
     6    5    6 ar 
     7    8    5 1  
     8    6    7 ar 
     9    8    9 2  
    10    8   10 2  
    11   11    8 am 
    12   11   12 1  
    13   16   11 1  
    14   12   13 1  
    15   13   14 1  
    16   13   15 1  
    17   17   16 1  
    18   17   18 1  
    19   19   17 1  
    20   19   20 1  
    21   32   19 1  
    22   20   21 am 
    23   21   22 2  
    24   21   23 1  
    25   23   24 1  
    26   24   25 1  
    27   24   31 1  
    28   25   26 1  
    29   27   26 1  
    30   27   28 1  
    31   31   27 1  
    32   29   28 1  
    33   30   29 1  
    34   31   30 1  
    35   38   32 1  
    36   33   34 ar 
    37   33   38 ar 
    38   34   35 ar 
    39   35   36 ar 
    40   36   37 ar 
    41   37   38 ar 
    42    1   39 1  
    43    1   40 1  
    44    3   41 1  
    45    4   42 1  
    46    6   43 1  
    47    7   44 1  
    48   12   45 1  
    49   12   46 1  
    50   13   47 1  
    51   14   48 1  
    52   14   49 1  
    53   14   50 1  
    54   15   51 1  
    55   15   52 1  
    56   15   53 1  
    57   16   54 1  
    58   16   55 1  
    59   17   56 1  
    60   18   57 1  
    61   19   58 1  
    62   20   59 1  
    63   24   60 1  
    64   25   61 1  
    65   25   62 1  
    66   27   63 1  
    67   29   64 1  
    68   29   65 1  
    69   30   66 1  
    70   30   67 1  
    71   31   68 1  
    72   32   69 1  
    73   32   70 1  
    74   33   71 1  
    75   34   72 1  
    76   35   73 1  
    77   36   74 1  
    78   37   75 1  
@<TRIPOS>SUBSTRUCTURE
     1 017         1

