### 
### Created by X-TOOL on Mon Sep 10 21:13:01 2018
### 

@<TRIPOS>MOLECULE
3ggv_ligand
  126   130     1     0     0
SMALL
GAST_HUCK


@<TRIPOS>ATOM
      1 C          11.5840    2.9970    3.8200 C.3       1 GGV         0.0663
      2 N          12.0460   -0.2580    5.0850 N.am      1 GGV        -0.2407
      3 O          11.8920    1.6060    3.8300 O.3       1 GGV        -0.2672
      4 C3         11.9290    1.1090    5.1000 C.2       1 GGV         0.3216
      5 O4         11.8890    1.7880    6.1230 O.2       1 GGV        -0.3774
      6 C6         12.6350   -0.8680    6.2580 C.3       1 GGV         0.1375
      7 C7         13.8870   -1.5470    5.7570 C.2       1 GGV         0.2025
      8 O8         13.8590   -2.5160    5.0140 O.2       1 GGV        -0.3945
      9 N9         15.0230   -0.9100    6.2450 N.am      1 GGV        -0.2799
     10 C10        16.3710   -1.1300    5.7740 C.3       1 GGV         0.0544
     11 C11        16.9310   -2.4730    6.2100 C.3       1 GGV         0.0005
     12 C12        16.5860   -2.9440    7.6180 C.3       1 GGV         0.0821
     13 O13        17.3590   -2.2010    8.5650 O.3       1 GGV        -0.3893
     14 C14        16.8120   -4.4650    7.7490 C.3       1 GGV         0.0774
     15 C15        16.1400   -5.0100    8.9840 C.3       1 GGV         0.0064
     16 C16        16.3780   -6.4660    9.2230 C.ar      1 GGV        -0.0408
     17 C17        15.6780   -7.4290    8.5320 C.ar      1 GGV        -0.0603
     18 C18        15.9140   -8.7660    8.7800 C.ar      1 GGV        -0.0686
     19 C19        16.8420   -9.1680    9.7160 C.ar      1 GGV        -0.0687
     20 C20        17.5330   -8.2050   10.4110 C.ar      1 GGV        -0.0686
     21 C21        17.3010   -6.8670   10.1660 C.ar      1 GGV        -0.0603
     22 N22        18.1940   -4.9060    7.7250 N.am      1 GGV        -0.2771
     23 C23        18.6420   -5.7400    6.7170 C.2       1 GGV         0.2086
     24 O24        17.9440   -6.2230    5.8330 O.2       1 GGV        -0.3939
     25 C25        20.1250   -6.0030    6.8110 C.3       1 GGV         0.1558
     26 N26        20.2080   -7.3540    7.3600 N.am      1 GGV        -0.2095
     27 C27        19.5460   -8.4630    6.8920 C.2       1 GGV         0.0277
     28 C28        19.8510   -9.4980    7.6760 C.2       1 GGV         0.0276
     29 N29        20.6950   -9.0350    8.6360 N.am      1 GGV        -0.2163
     30 C30        21.2480   -9.8700    9.6790 C.3       1 GGV         0.1076
     31 C31        20.2530  -10.4530   10.6470 C.ar      1 GGV         0.0851
     32 C32        19.9820   -9.8290   11.8510 C.ar      1 GGV        -0.0007
     33 C33        19.0680  -10.3880   12.7240 C.ar      1 GGV        -0.0180
     34 C34        18.4530  -11.5620   12.3610 C.ar      1 GGV        -0.0162
     35 C35        18.7740  -12.1280   11.1430 C.ar      1 GGV         0.0420
     36 N36        19.6580  -11.5970   10.2890 N.ar      1 GGV        -0.2710
     37 C37        18.1420  -13.4050   10.6860 C.3       1 GGV         0.0657
     38 C38        17.5300  -13.1750    9.3230 C.3       1 GGV        -0.0564
     39 C39        17.1230  -13.9520   11.6670 C.3       1 GGV        -0.0564
     40 O40        19.1460  -14.3970   10.5490 O.3       1 GGV        -0.4190
     41 C41        20.9450   -7.6860    8.4730 C.2       1 GGV         0.3037
     42 O42        21.6470   -6.9470    9.1480 O.2       1 GGV        -0.4102
     43 C43        20.8100   -5.7000    5.4750 C.3       1 GGV         0.0080
     44 C44        20.2940   -4.3750    4.9470 C.3       1 GGV        -0.0553
     45 C45        22.3000   -5.6120    5.6830 C.3       1 GGV        -0.0553
     46 C46        20.6160   -6.7550    4.4120 C.3       1 GGV        -0.0553
     47 C47        16.5240   -1.0740    4.2580 C.3       1 GGV         0.0053
     48 C48        15.8370    0.0340    3.5180 C.ar      1 GGV        -0.0381
     49 C49        15.2600   -0.2240    2.2910 C.ar      1 GGV        -0.0570
     50 C50        14.6280    0.7650    1.5680 C.ar      1 GGV        -0.0567
     51 C51        14.5470    2.0550    2.0570 C.ar      1 GGV        -0.0068
     52 C52        15.1240    2.2950    3.2890 C.ar      1 GGV        -0.0567
     53 C53        15.7640    1.3130    4.0140 C.ar      1 GGV        -0.0570
     54 C54        13.9180    3.1500    1.3050 C.ar      1 GGV         0.0481
     55 C55        13.9940    4.4520    1.7720 C.ar      1 GGV        -0.0287
     56 C56        13.4180    5.4560    1.0250 C.ar      1 GGV        -0.0433
     57 C57        12.7790    5.1410   -0.1580 C.ar      1 GGV        -0.0355
     58 C58        12.7410    3.8250   -0.5560 C.ar      1 GGV         0.0086
     59 N59        13.3000    2.8320    0.1450 N.ar      1 GGV        -0.2940
     60 C60        11.6560   -1.7450    7.0350 C.3       1 GGV         0.0025
     61 C61        10.8450   -2.6570    6.1590 C.3       1 GGV        -0.0558
     62 C62        12.3830   -2.6100    8.0360 C.3       1 GGV        -0.0558
     63 C63        10.6820   -0.8520    7.7620 C.3       1 GGV        -0.0558
     64 H1         11.5632    3.3605    2.7820 H         1 GGV         0.0575
     65 H2         12.3509    3.5465    4.3856 H         1 GGV         0.0575
     66 H3         10.6000    3.1581    4.2846 H         1 GGV         0.0575
     67 H4         11.7405   -0.8040    4.3049 H         1 GGV         0.1899
     68 H5         12.9416   -0.0675    6.9473 H         1 GGV         0.0804
     69 H6         14.8965   -0.2458    6.9817 H         1 GGV         0.1856
     70 H7         16.9946   -0.3354    6.2095 H         1 GGV         0.0580
     71 H8         18.0271   -2.4139    6.1395 H         1 GGV         0.0315
     72 H9         16.5587   -3.2318    5.5061 H         1 GGV         0.0315
     73 H10        15.5214   -2.7404    7.8056 H         1 GGV         0.0619
     74 H11        18.2835   -2.3428    8.3983 H         1 GGV         0.2099
     75 H12        16.3224   -4.9231    6.8770 H         1 GGV         0.0604
     76 H13        15.0562   -4.8500    8.8853 H         1 GGV         0.0449
     77 H14        16.5153   -4.4523    9.8547 H         1 GGV         0.0449
     78 H15        14.9410   -7.1371    7.7926 H         1 GGV         0.0557
     79 H16        15.3582   -9.5149    8.2274 H         1 GGV         0.0599
     80 H17        17.0229  -10.2209    9.9000 H         1 GGV         0.0559
     81 H18        18.2642   -8.4979   11.1557 H         1 GGV         0.0599
     82 H19        17.8531   -6.1191   10.7237 H         1 GGV         0.0557
     83 H20        18.8251   -4.6057    8.4402 H         1 GGV         0.1858
     84 H21        20.5696   -5.3180    7.5480 H         1 GGV         0.0875
     85 H22        18.8844   -8.4921    6.0275 H         1 GGV         0.0603
     86 H23        19.4919  -10.5204    7.5677 H         1 GGV         0.0603
     87 H24        21.9628   -9.2631   10.2541 H         1 GGV         0.0795
     88 H25        21.7793  -10.7042    9.1976 H         1 GGV         0.0795
     89 H26        20.4850   -8.9041   12.1093 H         1 GGV         0.0896
     90 H27        18.8419   -9.9122   13.6714 H         1 GGV         0.0797
     91 H28        17.7308  -12.0341   13.0172 H         1 GGV         0.0913
     92 H29        17.0599  -14.1049    8.9705 H         1 GGV         0.0170
     93 H30        18.3149  -12.8699    8.6153 H         1 GGV         0.0170
     94 H31        16.7698  -12.3829    9.3913 H         1 GGV         0.0170
     95 H32        17.6020  -14.1066   12.6451 H         1 GGV         0.0170
     96 H33        16.7329  -14.9105   11.2942 H         1 GGV         0.0170
     97 H34        16.2951  -13.2356   11.7734 H         1 GGV         0.0170
     98 H35        19.8069  -14.0947    9.9372 H         1 GGV         0.1974
     99 H36        20.7806   -4.1484    3.9868 H         1 GGV         0.0237
    100 H37        20.5217   -3.5783    5.6704 H         1 GGV         0.0237
    101 H38        19.2056   -4.4374    4.8007 H         1 GGV         0.0237
    102 H39        22.6741   -6.5729    6.0659 H         1 GGV         0.0237
    103 H40        22.5225   -4.8163    6.4092 H         1 GGV         0.0237
    104 H41        22.7910   -5.3826    4.7258 H         1 GGV         0.0237
    105 H42        19.5421   -6.8749    4.2061 H         1 GGV         0.0237
    106 H43        21.0307   -7.7110    4.7642 H         1 GGV         0.0237
    107 H44        21.1338   -6.4476    3.4915 H         1 GGV         0.0237
    108 H45        16.1390   -2.0227    3.8559 H         1 GGV         0.0455
    109 H46        17.5994   -0.9934    4.0413 H         1 GGV         0.0455
    110 H47        15.3049   -1.2286    1.8861 H         1 GGV         0.0565
    111 H48        14.1897    0.5282    0.6052 H         1 GGV         0.0625
    112 H49        15.0713    3.2958    3.7021 H         1 GGV         0.0625
    113 H50        16.2089    1.5494    4.9738 H         1 GGV         0.0565
    114 H51        14.4964    4.6762    2.7060 H         1 GGV         0.0706
    115 H52        13.4660    6.4848    1.3630 H         1 GGV         0.0732
    116 H53        12.3170    5.9148   -0.7604 H         1 GGV         0.0697
    117 H54        12.2337    3.5806   -1.4823 H         1 GGV         0.0823
    118 H55        10.1651   -3.2557    6.7830 H         1 GGV         0.0237
    119 H56        11.5184   -3.3266    5.6039 H         1 GGV         0.0237
    120 H57        10.2576   -2.0565    5.4488 H         1 GGV         0.0237
    121 H58        12.9899   -1.9743    8.6975 H         1 GGV         0.0237
    122 H59        13.0378   -3.3156    7.5037 H         1 GGV         0.0237
    123 H60        11.6511   -3.1704    8.6363 H         1 GGV         0.0237
    124 H61        10.1507   -0.2204    7.0349 H         1 GGV         0.0237
    125 H62        11.2290   -0.2137    8.4714 H         1 GGV         0.0237
    126 H63         9.9559   -1.4706    8.3098 H         1 GGV         0.0237
@<TRIPOS>BOND
     1    3    1 1  
     2    4    2 am 
     3    2    6 1  
     4    3    4 1  
     5    4    5 2  
     6    6    7 1  
     7    6   60 1  
     8    7    8 2  
     9    7    9 am 
    10    9   10 1  
    11   10   11 1  
    12   10   47 1  
    13   11   12 1  
    14   12   13 1  
    15   12   14 1  
    16   14   15 1  
    17   14   22 1  
    18   15   16 1  
    19   16   17 ar 
    20   16   21 ar 
    21   17   18 ar 
    22   18   19 ar 
    23   19   20 ar 
    24   20   21 ar 
    25   22   23 am 
    26   23   24 2  
    27   23   25 1  
    28   25   26 1  
    29   25   43 1  
    30   26   27 1  
    31   26   41 am 
    32   27   28 2  
    33   28   29 1  
    34   29   30 1  
    35   29   41 am 
    36   30   31 1  
    37   31   32 ar 
    38   31   36 ar 
    39   32   33 ar 
    40   33   34 ar 
    41   34   35 ar 
    42   35   36 ar 
    43   35   37 1  
    44   37   38 1  
    45   37   39 1  
    46   37   40 1  
    47   41   42 2  
    48   43   44 1  
    49   43   45 1  
    50   43   46 1  
    51   47   48 1  
    52   48   49 ar 
    53   48   53 ar 
    54   49   50 ar 
    55   50   51 ar 
    56   51   52 ar 
    57   51   54 1  
    58   52   53 ar 
    59   54   55 ar 
    60   54   59 ar 
    61   55   56 ar 
    62   56   57 ar 
    63   57   58 ar 
    64   58   59 ar 
    65   60   61 1  
    66   60   62 1  
    67   60   63 1  
    68    1   64 1  
    69    1   65 1  
    70    1   66 1  
    71    2   67 1  
    72    6   68 1  
    73    9   69 1  
    74   10   70 1  
    75   11   71 1  
    76   11   72 1  
    77   12   73 1  
    78   13   74 1  
    79   14   75 1  
    80   15   76 1  
    81   15   77 1  
    82   17   78 1  
    83   18   79 1  
    84   19   80 1  
    85   20   81 1  
    86   21   82 1  
    87   22   83 1  
    88   25   84 1  
    89   27   85 1  
    90   28   86 1  
    91   30   87 1  
    92   30   88 1  
    93   32   89 1  
    94   33   90 1  
    95   34   91 1  
    96   38   92 1  
    97   38   93 1  
    98   38   94 1  
    99   39   95 1  
   100   39   96 1  
   101   39   97 1  
   102   40   98 1  
   103   44   99 1  
   104   44  100 1  
   105   44  101 1  
   106   45  102 1  
   107   45  103 1  
   108   45  104 1  
   109   46  105 1  
   110   46  106 1  
   111   46  107 1  
   112   47  108 1  
   113   47  109 1  
   114   49  110 1  
   115   50  111 1  
   116   52  112 1  
   117   53  113 1  
   118   55  114 1  
   119   56  115 1  
   120   57  116 1  
   121   58  117 1  
   122   61  118 1  
   123   61  119 1  
   124   61  120 1  
   125   62  121 1  
   126   62  122 1  
   127   62  123 1  
   128   63  124 1  
   129   63  125 1  
   130   63  126 1  
@<TRIPOS>SUBSTRUCTURE
     1 GGV         1

