### 
### Created by X-TOOL on Mon Sep 10 21:13:02 2018
### 

@<TRIPOS>MOLECULE
3gi4_ligand
   81    85     1     0     0
SMALL
GAST_HUCK


@<TRIPOS>ATOM
      1 O10        17.2130   31.4030   14.1340 O.2       1 K60        -0.1517
      2 S8         17.9960   32.4630   14.6980 S.o2      1 K60         0.0633
      3 O9         18.5220   33.3570   13.6940 O.2       1 K60        -0.1517
      4 C5         17.0950   33.2870   15.7700 C.ar      1 K60         0.0885
      5 C4         17.3270   34.6520   16.0130 C.ar      1 K60        -0.0149
      6 C3         16.5440   35.3150   16.9670 C.ar      1 K60         0.1250
      7 C2         15.5660   34.6580   17.6760 C.ar      1 K60         0.1233
      8 O19        14.9590   35.5160   18.5480 O.3       1 K60        -0.2910
      9 C18        15.6140   36.7990   18.4140 C.3       1 K60         0.1868
     10 O29        16.5830   36.6190   17.3640 O.3       1 K60        -0.2909
     11 C7         15.3180   33.3170   17.4640 C.ar      1 K60        -0.0395
     12 C6         16.0940   32.6320   16.5050 C.ar      1 K60        -0.0554
     13 N11        19.2910   31.8020   15.4220 N.am      1 K60        -0.2326
     14 C12        20.0680   32.7810   16.2280 C.3       1 K60         0.0319
     15 C13        21.5540   32.3930   16.2680 C.3       1 K60        -0.0296
     16 C14        22.2050   32.2860   14.8830 C.3       1 K60        -0.0612
     17 C15        22.3050   33.3910   17.1440 C.3       1 K60        -0.0612
     18 C16        19.0200   30.5460   16.1410 C.3       1 K60         0.0578
     19 C17        19.8930   29.4140   15.5820 C.3       1 K60         0.0968
     20 O18        19.8200   28.2970   16.4900 O.3       1 K60        -0.3877
     21 C19        19.4530   29.0850   14.1530 C.3       1 K60         0.0789
     22 C32        18.1380   28.3000   14.0710 C.3       1 K60         0.0064
     23 C38        17.8060   28.0030   12.6170 C.ar      1 K60        -0.0408
     24 C33        17.9460   26.7070   12.1180 C.ar      1 K60        -0.0603
     25 C34        17.6660   26.4270   10.7900 C.ar      1 K60        -0.0686
     26 C35        17.2370   27.4300    9.9320 C.ar      1 K60        -0.0687
     27 C36        17.0990   28.7230   10.4150 C.ar      1 K60        -0.0686
     28 C37        17.3840   29.0140   11.7540 C.ar      1 K60        -0.0603
     29 N20        20.3760   28.2340   13.3960 N.am      1 K60        -0.2769
     30 C21        21.1240   28.6770   12.3760 C.2       1 K60         0.2129
     31 O22        21.1990   29.8450   12.0010 O.2       1 K60        -0.3937
     32 C29        21.9000   27.6480   11.6040 C.3       1 K60         0.2016
     33 O28        21.8600   26.3190   12.1450 O.3       1 K60        -0.2317
     34 C26        21.5120   25.4290   11.0580 C.2       1 K60         0.3558
     35 O27        21.6170   24.2280   11.2130 O.2       1 K60        -0.3668
     36 C25        21.2100   27.5600   10.2300 C.3       1 K60         0.1057
     37 N24        21.1460   26.1290    9.9840 N.am      1 K60        -0.1840
     38 C43        20.7690   25.6230    8.7180 C.ar      1 K60         0.1000
     39 C44        21.2460   24.3930    8.2560 C.ar      1 K60        -0.0110
     40 C45        20.8730   23.9080    7.0050 C.ar      1 K60        -0.0434
     41 C40        20.0400   24.6530    6.1790 C.ar      1 K60        -0.0451
     42 C42        19.9300   26.3670    7.8720 C.ar      1 K60        -0.0123
     43 C41        19.5530   25.8860    6.6150 C.ar      1 K60         0.0334
     44 C46        18.6400   26.7020    5.7300 C.3       1 K60         0.3727
     45 F1         17.3890   26.6550    6.1410 F         1 K60        -0.2209
     46 F2         18.6360   26.2320    4.5130 F         1 K60        -0.2209
     47 F3         19.0520   27.9560    5.6900 F         1 K60        -0.2209
     48 H1         18.1002   35.1837   15.4703 H         1 K60         0.0528
     49 H2         16.1114   37.0785   19.3544 H         1 K60         0.0973
     50 H3         14.8866   37.5768   18.1386 H         1 K60         0.0973
     51 H4         14.5445   32.8015   18.0217 H         1 K60         0.0509
     52 H5         15.9134   31.5772   16.3320 H         1 K60         0.0514
     53 H6         19.6718   32.7994   17.2540 H         1 K60         0.0480
     54 H7         19.9675   33.7798   15.7782 H         1 K60         0.0480
     55 H8         21.6256   31.4015   16.7389 H         1 K60         0.0311
     56 H9         23.2628   32.0060   14.9957 H         1 K60         0.0233
     57 H10        22.1353   33.2561   14.3691 H         1 K60         0.0233
     58 H11        21.6839   31.5192   14.2911 H         1 K60         0.0233
     59 H12        21.8208   33.4505   18.1299 H         1 K60         0.0233
     60 H13        22.2889   34.3822   16.6672 H         1 K60         0.0233
     61 H14        23.3468   33.0600   17.2666 H         1 K60         0.0233
     62 H15        17.9595   30.2800   16.0201 H         1 K60         0.0504
     63 H16        19.2441   30.6835   17.2091 H         1 K60         0.0504
     64 H17        20.9383   29.7544   15.5426 H         1 K60         0.0634
     65 H18        18.9178   28.0081   16.5630 H         1 K60         0.2100
     66 H19        19.3368   30.0442   13.6272 H         1 K60         0.0605
     67 H20        17.3281   28.8965   14.5161 H         1 K60         0.0449
     68 H21        18.2423   27.3540   14.6224 H         1 K60         0.0449
     69 H22        18.2771   25.9116   12.7758 H         1 K60         0.0557
     70 H23        17.7831   25.4156   10.4180 H         1 K60         0.0599
     71 H24        17.0122   27.2054    8.8956 H         1 K60         0.0559
     72 H25        16.7682   29.5133    9.7509 H         1 K60         0.0599
     73 H26        17.2764   30.0282   12.1214 H         1 K60         0.0557
     74 H27        20.4516   27.2710   13.6547 H         1 K60         0.1858
     75 H28        22.9465   27.9730   11.5085 H         1 K60         0.0919
     76 H29        21.8048   28.0674    9.4562 H         1 K60         0.0641
     77 H30        20.2024   28.0000   10.2652 H         1 K60         0.0641
     78 H31        21.9143   23.8096    8.8790 H         1 K60         0.0758
     79 H32        21.2353   22.9418    6.6729 H         1 K60         0.0664
     80 H33        19.7693   24.2775    5.1988 H         1 K60         0.0740
     81 H34        19.5674   27.3342    8.2008 H         1 K60         0.0710
@<TRIPOS>BOND
     1    1    2 2  
     2    2    3 2  
     3    2    4 1  
     4    2   13 am 
     5    4    5 ar 
     6    4   12 ar 
     7    5    6 ar 
     8    6    7 ar 
     9    6   10 1  
    10    7    8 1  
    11    7   11 ar 
    12    8    9 1  
    13    9   10 1  
    14   11   12 ar 
    15   13   14 1  
    16   13   18 1  
    17   14   15 1  
    18   15   16 1  
    19   15   17 1  
    20   18   19 1  
    21   19   20 1  
    22   19   21 1  
    23   21   22 1  
    24   21   29 1  
    25   22   23 1  
    26   23   24 ar 
    27   23   28 ar 
    28   24   25 ar 
    29   25   26 ar 
    30   26   27 ar 
    31   27   28 ar 
    32   29   30 am 
    33   30   31 2  
    34   30   32 1  
    35   32   33 1  
    36   32   36 1  
    37   33   34 1  
    38   34   35 2  
    39   34   37 am 
    40   36   37 1  
    41   37   38 1  
    42   38   39 ar 
    43   38   42 ar 
    44   39   40 ar 
    45   40   41 ar 
    46   41   43 ar 
    47   42   43 ar 
    48   43   44 1  
    49   44   45 1  
    50   44   46 1  
    51   44   47 1  
    52    5   48 1  
    53    9   49 1  
    54    9   50 1  
    55   11   51 1  
    56   12   52 1  
    57   14   53 1  
    58   14   54 1  
    59   15   55 1  
    60   16   56 1  
    61   16   57 1  
    62   16   58 1  
    63   17   59 1  
    64   17   60 1  
    65   17   61 1  
    66   18   62 1  
    67   18   63 1  
    68   19   64 1  
    69   20   65 1  
    70   21   66 1  
    71   22   67 1  
    72   22   68 1  
    73   24   69 1  
    74   25   70 1  
    75   26   71 1  
    76   27   72 1  
    77   28   73 1  
    78   29   74 1  
    79   32   75 1  
    80   36   76 1  
    81   36   77 1  
    82   39   78 1  
    83   40   79 1  
    84   41   80 1  
    85   42   81 1  
@<TRIPOS>SUBSTRUCTURE
     1 K60         1

