### 
### Created by X-TOOL on Mon Sep 10 21:13:02 2018
### 

@<TRIPOS>MOLECULE
3gi5_ligand
   83    87     1     0     0
SMALL
GAST_HUCK


@<TRIPOS>ATOM
      1 O45        18.4850   27.6690    5.8500 O.2       1 K62        -0.3787
      2 C46        18.7280   26.4910    5.6280 C.2       1 K62         0.1264
      3 C47        18.1280   25.7730    4.4520 C.3       1 K62         0.0106
      4 C41        19.6520   25.7600    6.5640 C.ar      1 K62         0.0187
      5 C40        20.1720   24.5190    6.2050 C.ar      1 K62        -0.0585
      6 C45        21.0190   23.8540    7.0800 C.ar      1 K62        -0.0697
      7 C44        21.3660   24.4280    8.2980 C.ar      1 K62        -0.0365
      8 C42        19.9970   26.3390    7.7890 C.ar      1 K62        -0.0225
      9 C43        20.8550   25.6770    8.6790 C.ar      1 K62         0.0770
     10 N24        21.1920   26.2600    9.9200 N.am      1 K62        -0.1889
     11 C26        21.5290   25.5790   11.0170 C.2       1 K62         0.3556
     12 O27        21.6120   24.3730   11.1850 O.2       1 K62        -0.3667
     13 O28        21.8560   26.4840   12.0930 O.3       1 K62        -0.2316
     14 C25        21.2390   27.7030   10.1250 C.3       1 K62         0.1053
     15 C29        21.8680   27.8050   11.5380 C.3       1 K62         0.2016
     16 C21        21.0530   28.7920   12.3210 C.2       1 K62         0.2129
     17 O22        21.0730   29.9560   11.9420 O.2       1 K62        -0.3937
     18 N20        20.3450   28.3450   13.3760 N.am      1 K62        -0.2769
     19 C19        19.4170   29.2040   14.1250 C.3       1 K62         0.0789
     20 C32        18.0930   28.4220   14.0190 C.3       1 K62         0.0064
     21 C38        17.7860   28.1190   12.5540 C.ar      1 K62        -0.0408
     22 C37        17.3940   29.1240   11.6690 C.ar      1 K62        -0.0603
     23 C36        17.1360   28.8290   10.3190 C.ar      1 K62        -0.0686
     24 C35        17.2780   27.5390    9.8390 C.ar      1 K62        -0.0687
     25 C34        17.6630   26.5350   10.7190 C.ar      1 K62        -0.0686
     26 C33        17.9180   26.8220   12.0610 C.ar      1 K62        -0.0603
     27 C17        19.8620   29.4990   15.5590 C.3       1 K62         0.0968
     28 O18        19.7690   28.3340   16.4190 O.3       1 K62        -0.3877
     29 C16        19.0150   30.6460   16.1390 C.3       1 K62         0.0578
     30 N11        19.2680   31.9280   15.4290 N.am      1 K62        -0.2326
     31 C12        20.0530   32.8920   16.2420 C.3       1 K62         0.0319
     32 C13        21.5350   32.4800   16.3020 C.3       1 K62        -0.0296
     33 C15        22.3090   33.4380   17.1970 C.3       1 K62        -0.0612
     34 C14        22.1680   32.4430   14.9060 C.3       1 K62        -0.0612
     35 S8         17.9610   32.5760   14.6970 S.o2      1 K62         0.0633
     36 O9         18.4770   33.4800   13.7150 O.2       1 K62        -0.1517
     37 O10        17.2040   31.5040   14.0890 O.2       1 K62        -0.1517
     38 C5         17.0570   33.4010   15.7650 C.ar      1 K62         0.0885
     39 C6         16.0660   32.7270   16.4810 C.ar      1 K62        -0.0554
     40 C7         15.2870   33.3920   17.4410 C.ar      1 K62        -0.0395
     41 C4         17.2660   34.7750   16.0210 C.ar      1 K62        -0.0149
     42 C3         16.4870   35.4230   16.9810 C.ar      1 K62         0.1250
     43 O29        16.4970   36.7300   17.4050 O.3       1 K62        -0.2909
     44 C2         15.5170   34.7360   17.6750 C.ar      1 K62         0.1233
     45 O19        14.8970   35.5700   18.5560 O.3       1 K62        -0.2910
     46 C18        15.5380   36.8610   18.4670 C.3       1 K62         0.1868
     47 H1         18.4773   24.7300    4.4421 H         1 K62         0.0450
     48 H2         18.4365   26.2718    3.5214 H         1 K62         0.0450
     49 H3         17.0311   25.7915    4.5317 H         1 K62         0.0450
     50 H4         19.9170   24.0759    5.2491 H         1 K62         0.0541
     51 H5         21.4129   22.8803    6.8122 H         1 K62         0.0589
     52 H6         22.0416   23.9021    8.9629 H         1 K62         0.0539
     53 H7         19.5966   27.3109    8.0538 H         1 K62         0.0555
     54 H8         20.2312   28.1433   10.1030 H         1 K62         0.0641
     55 H9         21.8702   28.1940    9.3698 H         1 K62         0.0641
     56 H10        22.9061   28.1632   11.4740 H         1 K62         0.0919
     57 H11        20.4549   27.3926   13.6604 H         1 K62         0.1858
     58 H12        19.3141   30.1710   13.6110 H         1 K62         0.0605
     59 H13        17.2778   29.0249   14.4456 H         1 K62         0.0449
     60 H14        18.1811   27.4777   14.5763 H         1 K62         0.0449
     61 H15        17.2874   30.1420   12.0259 H         1 K62         0.0557
     62 H16        16.8227   29.6200    9.6473 H         1 K62         0.0599
     63 H17        17.0921   27.3156    8.7947 H         1 K62         0.0559
     64 H18        17.7665   25.5176   10.3594 H         1 K62         0.0599
     65 H19        18.2230   26.0248   12.7293 H         1 K62         0.0557
     66 H20        20.9140   29.8190   15.5311 H         1 K62         0.0634
     67 H21        20.0545   28.5650   17.2952 H         1 K62         0.2100
     68 H22        19.2654   30.7719   17.2027 H         1 K62         0.0504
     69 H23        17.9502   30.3881   16.0410 H         1 K62         0.0504
     70 H24        19.6448   32.9184   17.2631 H         1 K62         0.0480
     71 H25        19.9751   33.8918   15.7900 H         1 K62         0.0480
     72 H26        21.5946   31.4705   16.7347 H         1 K62         0.0311
     73 H27        23.3656   33.1341   17.2323 H         1 K62         0.0233
     74 H28        21.8864   33.4136   18.2123 H         1 K62         0.0233
     75 H29        22.2343   34.4584   16.7931 H         1 K62         0.0233
     76 H30        21.6035   31.7491   14.2658 H         1 K62         0.0233
     77 H31        23.2110   32.1026   14.9852 H         1 K62         0.0233
     78 H32        22.1435   33.4506   14.4655 H         1 K62         0.0233
     79 H33        15.8953   31.6732   16.2926 H         1 K62         0.0514
     80 H34        14.5178   32.8611   17.9900 H         1 K62         0.0509
     81 H35        18.0263   35.3221   15.4754 H         1 K62         0.0528
     82 H36        14.8014   37.6422   18.2281 H         1 K62         0.0973
     83 H37        16.0411   37.1084   19.4134 H         1 K62         0.0973
@<TRIPOS>BOND
     1    1    2 2  
     2    2    3 1  
     3    2    4 1  
     4    4    5 ar 
     5    4    8 ar 
     6    5    6 ar 
     7    6    7 ar 
     8    7    9 ar 
     9    8    9 ar 
    10    9   10 1  
    11   10   11 am 
    12   10   14 1  
    13   11   12 2  
    14   11   13 1  
    15   13   15 1  
    16   14   15 1  
    17   15   16 1  
    18   16   17 2  
    19   16   18 am 
    20   18   19 1  
    21   19   20 1  
    22   19   27 1  
    23   20   21 1  
    24   21   22 ar 
    25   21   26 ar 
    26   22   23 ar 
    27   23   24 ar 
    28   24   25 ar 
    29   25   26 ar 
    30   27   28 1  
    31   27   29 1  
    32   29   30 1  
    33   30   31 1  
    34   30   35 am 
    35   31   32 1  
    36   32   33 1  
    37   32   34 1  
    38   35   36 2  
    39   35   37 2  
    40   35   38 1  
    41   38   39 ar 
    42   38   41 ar 
    43   39   40 ar 
    44   40   44 ar 
    45   41   42 ar 
    46   42   43 1  
    47   42   44 ar 
    48   43   46 1  
    49   44   45 1  
    50   45   46 1  
    51    3   47 1  
    52    3   48 1  
    53    3   49 1  
    54    5   50 1  
    55    6   51 1  
    56    7   52 1  
    57    8   53 1  
    58   14   54 1  
    59   14   55 1  
    60   15   56 1  
    61   18   57 1  
    62   19   58 1  
    63   20   59 1  
    64   20   60 1  
    65   22   61 1  
    66   23   62 1  
    67   24   63 1  
    68   25   64 1  
    69   26   65 1  
    70   27   66 1  
    71   28   67 1  
    72   29   68 1  
    73   29   69 1  
    74   31   70 1  
    75   31   71 1  
    76   32   72 1  
    77   33   73 1  
    78   33   74 1  
    79   33   75 1  
    80   34   76 1  
    81   34   77 1  
    82   34   78 1  
    83   39   79 1  
    84   40   80 1  
    85   41   81 1  
    86   46   82 1  
    87   46   83 1  
@<TRIPOS>SUBSTRUCTURE
     1 K62         1

