### 
### Created by X-TOOL on Mon Sep 10 21:13:02 2018
### 

@<TRIPOS>MOLECULE
3gi6_ligand
   82    85     1     0     0
SMALL
GAST_HUCK


@<TRIPOS>ATOM
      1 O9         18.5300   33.2210   13.7050 O.2       1 D78        -0.1515
      2 S8         18.0010   32.3800   14.7540 S.o2      1 D78         0.0657
      3 O10        17.1750   31.3540   14.2090 O.2       1 D78        -0.1515
      4 C5         17.1370   33.2760   15.7910 C.ar      1 D78         0.0971
      5 C4         17.3800   34.6460   15.9350 C.ar      1 D78        -0.0440
      6 C3         16.6490   35.4220   16.8430 C.ar      1 D78        -0.0313
      7 C2         15.6580   34.8230   17.6420 C.ar      1 D78         0.0908
      8 O19        14.9130   35.5120   18.5650 O.3       1 D78        -0.3212
      9 C18        15.0930   36.9090   18.8420 C.3       1 D78         0.0594
     10 C7         15.4150   33.4640   17.5030 C.ar      1 D78        -0.0313
     11 C6         16.1470   32.6980   16.5880 C.ar      1 D78        -0.0440
     12 N11        19.3170   31.7420   15.4770 N.am      1 D78        -0.2325
     13 C12        20.0500   32.7400   16.2910 C.3       1 D78         0.0319
     14 C13        21.5460   32.3940   16.3420 C.3       1 D78        -0.0296
     15 C14        22.1840   32.3320   14.9540 C.3       1 D78        -0.0612
     16 C15        22.2870   33.3940   17.2170 C.3       1 D78        -0.0612
     17 C16        19.0690   30.4740   16.1990 C.3       1 D78         0.0578
     18 C17        19.9100   29.3340   15.6160 C.3       1 D78         0.0968
     19 O18        19.8110   28.2180   16.5180 O.3       1 D78        -0.3877
     20 C19        19.4550   29.0090   14.1890 C.3       1 D78         0.0789
     21 C32        18.1360   28.2200   14.1130 C.3       1 D78         0.0064
     22 C38        17.7940   27.8910   12.6640 C.ar      1 D78        -0.0408
     23 C33        17.9350   26.5870   12.1800 C.ar      1 D78        -0.0603
     24 C34        17.6440   26.2860   10.8540 C.ar      1 D78        -0.0686
     25 C35        17.2060   27.2780    9.9840 C.ar      1 D78        -0.0687
     26 C36        17.0630   28.5730   10.4560 C.ar      1 D78        -0.0686
     27 C37        17.3580   28.8830   11.7890 C.ar      1 D78        -0.0603
     28 N20        20.3670   28.1510   13.4250 N.am      1 D78        -0.2769
     29 C21        21.0910   28.6000   12.3910 C.2       1 D78         0.2129
     30 O22        21.1500   29.7720   12.0350 O.2       1 D78        -0.3937
     31 C29        21.8760   27.5810   11.6090 C.3       1 D78         0.2016
     32 O28        21.8370   26.2600   12.1800 O.3       1 D78        -0.2317
     33 C26        21.4930   25.3600   11.1060 C.2       1 D78         0.3558
     34 O27        21.6150   24.1610   11.2980 O.2       1 D78        -0.3668
     35 C25        21.2270   27.4750   10.2180 C.3       1 D78         0.1057
     36 N24        21.1100   26.0400   10.0130 N.am      1 D78        -0.1840
     37 C43        20.7250   25.5220    8.7900 C.ar      1 D78         0.1000
     38 C44        21.1370   24.2520    8.3670 C.ar      1 D78        -0.0110
     39 C45        20.7450   23.7380    7.1240 C.ar      1 D78        -0.0434
     40 C40        19.9510   24.4880    6.2680 C.ar      1 D78        -0.0451
     41 C42        19.9150   26.2700    7.9010 C.ar      1 D78        -0.0123
     42 C41        19.5210   25.7590    6.6530 C.ar      1 D78         0.0334
     43 C46        18.6430   26.5690    5.7220 C.3       1 D78         0.3727
     44 F1         17.3830   26.4820    6.0880 F         1 D78        -0.2209
     45 F2         18.7160   26.1280    4.4910 F         1 D78        -0.2209
     46 F3         18.9950   27.8380    5.7260 F         1 D78        -0.2209
     47 H1         18.1488   35.1159   15.3323 H         1 D78         0.0608
     48 H2         16.8467   36.4842   16.9302 H         1 D78         0.0542
     49 H3         14.3785   37.2242   19.6167 H         1 D78         0.0577
     50 H4         14.9190   37.4902   17.9244 H         1 D78         0.0577
     51 H5         16.1194   37.0831   19.1972 H         1 D78         0.0577
     52 H6         14.6508   32.9908   18.1089 H         1 D78         0.0542
     53 H7         15.9416   31.6376   16.4967 H         1 D78         0.0608
     54 H8         19.6436   32.7431   17.3132 H         1 D78         0.0480
     55 H9         19.9235   33.7366   15.8430 H         1 D78         0.0480
     56 H10        21.6437   31.3986   16.7998 H         1 D78         0.0311
     57 H11        23.2507   32.0816   15.0516 H         1 D78         0.0233
     58 H12        22.0806   33.3088   14.4589 H         1 D78         0.0233
     59 H13        21.6799   31.5610   14.3528 H         1 D78         0.0233
     60 H14        21.8184   33.4288   18.2116 H         1 D78         0.0233
     61 H15        22.2404   34.3910   16.7547 H         1 D78         0.0233
     62 H16        23.3380   33.0852   17.3175 H         1 D78         0.0233
     63 H17        18.0035   30.2144   16.1136 H         1 D78         0.0504
     64 H18        19.3302   30.6072   17.2592 H         1 D78         0.0504
     65 H19        20.9622   29.6515   15.5702 H         1 D78         0.0634
     66 H20        18.9016   27.9542   16.5951 H         1 D78         0.2100
     67 H21        19.3374   29.9690   13.6651 H         1 D78         0.0605
     68 H22        17.3266   28.8249   14.5477 H         1 D78         0.0449
     69 H23        18.2405   27.2843   14.6818 H         1 D78         0.0449
     70 H24        18.2749   25.8019   12.8457 H         1 D78         0.0557
     71 H25        17.7596   25.2695   10.4957 H         1 D78         0.0599
     72 H26        16.9795   27.0417    8.9506 H         1 D78         0.0559
     73 H27        16.7194   29.3534    9.7867 H         1 D78         0.0599
     74 H28        17.2463   29.9017   12.1424 H         1 D78         0.0557
     75 H29        20.4520   27.1897   13.6872 H         1 D78         0.1858
     76 H30        22.9214   27.9131   11.5265 H         1 D78         0.0919
     77 H31        21.8666   27.9322    9.4487 H         1 D78         0.0641
     78 H32        20.2382   27.9567   10.2066 H         1 D78         0.0641
     79 H33        21.7709   23.6557    9.0133 H         1 D78         0.0758
     80 H34        21.0649   22.7454    6.8282 H         1 D78         0.0664
     81 H35        19.6652   24.0876    5.3021 H         1 D78         0.0740
     82 H36        19.5905   27.2628    8.1911 H         1 D78         0.0710
@<TRIPOS>BOND
     1    1    2 2  
     2    2    3 2  
     3    2    4 1  
     4    2   12 am 
     5    4    5 ar 
     6    4   11 ar 
     7    5    6 ar 
     8    6    7 ar 
     9    7    8 1  
    10    7   10 ar 
    11    8    9 1  
    12   10   11 ar 
    13   12   13 1  
    14   12   17 1  
    15   13   14 1  
    16   14   15 1  
    17   14   16 1  
    18   17   18 1  
    19   18   19 1  
    20   18   20 1  
    21   20   21 1  
    22   20   28 1  
    23   21   22 1  
    24   22   23 ar 
    25   22   27 ar 
    26   23   24 ar 
    27   24   25 ar 
    28   25   26 ar 
    29   26   27 ar 
    30   28   29 am 
    31   29   30 2  
    32   29   31 1  
    33   31   32 1  
    34   31   35 1  
    35   32   33 1  
    36   33   34 2  
    37   33   36 am 
    38   35   36 1  
    39   36   37 1  
    40   37   38 ar 
    41   37   41 ar 
    42   38   39 ar 
    43   39   40 ar 
    44   40   42 ar 
    45   41   42 ar 
    46   42   43 1  
    47   43   44 1  
    48   43   45 1  
    49   43   46 1  
    50    5   47 1  
    51    6   48 1  
    52    9   49 1  
    53    9   50 1  
    54    9   51 1  
    55   10   52 1  
    56   11   53 1  
    57   13   54 1  
    58   13   55 1  
    59   14   56 1  
    60   15   57 1  
    61   15   58 1  
    62   15   59 1  
    63   16   60 1  
    64   16   61 1  
    65   16   62 1  
    66   17   63 1  
    67   17   64 1  
    68   18   65 1  
    69   19   66 1  
    70   20   67 1  
    71   21   68 1  
    72   21   69 1  
    73   23   70 1  
    74   24   71 1  
    75   25   72 1  
    76   26   73 1  
    77   27   74 1  
    78   28   75 1  
    79   31   76 1  
    80   35   77 1  
    81   35   78 1  
    82   38   79 1  
    83   39   80 1  
    84   40   81 1  
    85   41   82 1  
@<TRIPOS>SUBSTRUCTURE
     1 D78         1

