### 
### Created by X-TOOL on Mon Sep 10 21:12:59 2018
### 

@<TRIPOS>MOLECULE
3gjd_ligand
   22    21     1     0     0
SMALL
GAST_HUCK


@<TRIPOS>ATOM
      1 N          24.4350   31.5170   18.9020 N.4       1 LEU         0.2327
      2 CA         25.6900   30.7610   18.9070 C.3       1 LEU         0.0286
      3 C          25.5600   29.4450   18.1520 C.2       1 LEU         0.0844
      4 O          26.5280   28.6820   18.0100 O.co2     1 LEU        -0.5643
      5 CB         26.1120   30.4470   20.3320 C.3       1 LEU         0.0047
      6 CG         26.1740   31.6250   21.3020 C.3       1 LEU        -0.0400
      7 CD1        26.6860   31.1250   22.6270 C.3       1 LEU        -0.0624
      8 CD2        27.0820   32.7210   20.7570 C.3       1 LEU        -0.0624
      9 OXT        24.4650   29.1060   17.6970 O.co2     1 LEU        -0.5643
     10 H1         24.5599   32.3789   19.4096 H         1 LEU         0.2010
     11 H2         23.7115   30.9700   19.3417 H         1 LEU         0.2010
     12 H3         24.1702   31.7223   17.9513 H         1 LEU         0.2010
     13 H4         26.4673   31.3728   18.4260 H         1 LEU         0.1024
     14 H5         27.1140   29.9950   20.2915 H         1 LEU         0.0341
     15 H6         25.3967   29.7171   20.7388 H         1 LEU         0.0341
     16 H7         25.1629   32.0368   21.4365 H         1 LEU         0.0298
     17 H8         26.7374   31.9615   23.3395 H         1 LEU         0.0232
     18 H9         27.6896   30.6948   22.4936 H         1 LEU         0.0232
     19 H10        26.0051   30.3536   23.0158 H         1 LEU         0.0232
     20 H11        26.6924   33.0729   19.7904 H         1 LEU         0.0232
     21 H12        28.0975   32.3212   20.6193 H         1 LEU         0.0232
     22 H13        27.1115   33.5600   21.4678 H         1 LEU         0.0232
@<TRIPOS>BOND
     1    1    2 1  
     2    2    3 1  
     3    2    5 1  
     4    3    4 ar 
     5    3    9 ar 
     6    5    6 1  
     7    6    7 1  
     8    6    8 1  
     9    1   10 1  
    10    1   11 1  
    11    1   12 1  
    12    2   13 1  
    13    5   14 1  
    14    5   15 1  
    15    6   16 1  
    16    7   17 1  
    17    7   18 1  
    18    7   19 1  
    19    8   20 1  
    20    8   21 1  
    21    8   22 1  
@<TRIPOS>SUBSTRUCTURE
     1 LEU         1

