### 
### Created by X-TOOL on Mon Sep 10 21:13:02 2018
### 

@<TRIPOS>MOLECULE
3gjq_ligand
   77    79     1     0     0
SMALL
GAST_HUCK


@<TRIPOS>ATOM
      1 C          43.7440   37.4850   58.6630 C.2       1 ACE         0.1752
      2 O          44.8320   36.9860   58.3780 O.2       1 ACE        -0.3972
      3 CH3        43.3580   38.8360   58.1270 C.3       1 ACE         0.0258
      4 N          42.8440   36.8850   59.4390 N.am      1 TRP        -0.2648
      5 CA         43.0800   35.5770   60.0480 C.3       1 TRP         0.1351
      6 C          42.4860   34.4100   59.2730 C.2       1 TRP         0.2052
      7 O          43.1840   33.4510   58.9460 O.2       1 TRP        -0.3942
      8 CB         42.5040   35.5360   61.4690 C.3       1 TRP         0.0042
      9 CG         43.2010   36.4280   62.4410 C.2       1 TRP        -0.0418
     10 CD1        42.8270   37.6870   62.8230 C.2       1 TRP         0.0167
     11 CD2        44.4080   36.1400   63.1420 C.ar      1 TRP        -0.0214
     12 NE1        43.7310   38.1980   63.7240 N.pl3     1 TRP        -0.2890
     13 CE2        44.7230   37.2580   63.9420 C.ar      1 TRP         0.0603
     14 CE3        45.2720   35.0280   63.1830 C.ar      1 TRP        -0.0747
     15 CZ2        45.8490   37.3200   64.7610 C.ar      1 TRP        -0.0443
     16 CZ3        46.3970   35.0800   63.9980 C.ar      1 TRP        -0.0792
     17 CH2        46.6720   36.2180   64.7780 C.ar      1 TRP        -0.0768
     18 N          41.1900   34.4940   58.9940 N.am      1 GLU        -0.2635
     19 CA         40.4870   33.4300   58.2880 C.3       1 GLU         0.1325
     20 C          40.1860   33.7150   56.8210 C.2       1 GLU         0.2041
     21 O          40.3700   34.8320   56.3410 O.2       1 GLU        -0.3944
     22 CB         39.1870   33.1200   59.0270 C.3       1 GLU        -0.0008
     23 CG         39.4020   32.6480   60.4610 C.3       1 GLU         0.0044
     24 CD         38.2170   32.9530   61.3650 C.2       1 GLU         0.0350
     25 OE1        37.0860   32.5150   61.0460 O.co2     1 GLU        -0.5690
     26 OE2        38.4200   33.6300   62.3990 O.co2     1 GLU        -0.5690
     27 N          39.7200   32.6860   56.1150 N.am      1 HIS        -0.2625
     28 CA         39.3760   32.8040   54.6960 C.3       1 HIS         0.1368
     29 C          37.9860   32.2600   54.3990 C.2       1 HIS         0.2035
     30 O          37.3700   31.6060   55.2390 O.2       1 HIS        -0.3944
     31 CB         40.3950   32.0630   53.8340 C.3       1 HIS         0.0145
     32 CG         40.6770   30.6760   54.3030 C.2       1 HIS        -0.0027
     33 ND1        41.6150   30.3970   55.2780 N.2       1 HIS        -0.3252
     34 CD2        40.1290   29.4840   53.9640 C.2       1 HIS         0.0291
     35 CE1        41.6320   29.0990   55.5130 C.2       1 HIS         0.0907
     36 NE2        40.7400   28.5210   54.7290 N.pl3     1 HIS        -0.2752
     37 N          37.5140   32.5140   53.1800 N.am      1 ASP        -0.2780
     38 CA         36.1880   32.0800   52.7640 C.3       1 ASP         0.0764
     39 C          36.2280   31.1400   51.5690 C.3       1 ASP         0.0687
     40 O          34.9330   30.6340   51.1960 O.3       1 ASP        -0.3926
     41 CB         35.3250   33.2940   52.4080 C.3       1 ASP         0.0254
     42 CG         34.6250   33.8810   53.6170 C.2       1 ASP         0.0371
     43 OD1        34.2100   33.0950   54.4900 O.co2     1 ASP        -0.5689
     44 OD2        34.4970   35.1180   53.6980 O.co2     1 ASP        -0.5689
     45 H1         42.3560   39.1033   58.4938 H         1 ACE         0.0467
     46 H2         43.3499   38.8056   57.0275 H         1 ACE         0.0467
     47 H3         44.0857   39.5873   58.4677 H         1 ACE         0.0467
     48 H4         41.9738   37.3463   59.6119 H         1 TRP         0.1884
     49 H5         44.1687   35.4296   60.1029 H         1 TRP         0.0815
     50 H6         42.5736   34.5025   61.8391 H         1 TRP         0.0397
     51 H7         41.4474   35.8380   61.4211 H         1 TRP         0.0397
     52 H8         41.9410   38.2093   62.4651 H         1 TRP         0.0795
     53 H9         43.6786   39.1276   64.1644 H         1 TRP         0.2216
     54 H10        45.0629   34.1460   62.5886 H         1 TRP         0.0540
     55 H11        46.0666   38.1980   65.3583 H         1 TRP         0.0541
     56 H12        47.0715   34.2321   64.0330 H         1 TRP         0.0510
     57 H13        47.5542   36.2266   65.4079 H         1 TRP         0.0530
     58 H14        40.6832   35.3087   59.2758 H         1 GLU         0.1883
     59 H15        41.1274   32.5363   58.3209 H         1 GLU         0.0801
     60 H16        38.6530   32.3312   58.4769 H         1 GLU         0.0330
     61 H17        38.5725   34.0321   59.0488 H         1 GLU         0.0330
     62 H18        40.2923   33.1505   60.8669 H         1 GLU         0.0433
     63 H19        39.5668   31.5605   60.4523 H         1 GLU         0.0433
     64 H20        39.6010   31.8030   56.5691 H         1 HIS         0.1885
     65 H21        39.3962   33.8704   54.4271 H         1 HIS         0.0817
     66 H22        41.3368   32.6313   53.8428 H         1 HIS         0.0420
     67 H23        40.0080   32.0104   52.8057 H         1 HIS         0.0420
     68 H24        39.3486   29.3200   53.2223 H         1 HIS         0.0729
     69 H25        42.2729   28.5903   56.2316 H         1 HIS         0.1199
     70 H26        40.5358   27.5120   54.6966 H         1 HIS         0.2361
     71 H27        38.0863   33.0169   52.5322 H         1 ASP         0.1857
     72 H28        35.7227   31.5483   53.6070 H         1 ASP         0.0597
     73 H29        36.8771   30.2874   51.8176 H         1 ASP         0.0581
     74 H30        36.6499   31.6842   50.7112 H         1 ASP         0.0581
     75 H31        35.0237   30.0560   50.4476 H         1 ASP         0.2095
     76 H32        34.5648   32.9843   51.6758 H         1 ASP         0.0454
     77 H33        35.9691   34.0669   51.9632 H         1 ASP         0.0454
@<TRIPOS>BOND
     1    1    2 2  
     2    1    3 1  
     3    1    4 am 
     4    4    5 1  
     5    5    6 1  
     6    5    8 1  
     7    6    7 2  
     8    6   18 am 
     9    8    9 1  
    10    9   10 2  
    11    9   11 1  
    12   10   12 1  
    13   11   13 ar 
    14   11   14 ar 
    15   12   13 1  
    16   13   15 ar 
    17   14   16 ar 
    18   15   17 ar 
    19   16   17 ar 
    20   18   19 1  
    21   19   20 1  
    22   19   22 1  
    23   20   21 2  
    24   20   27 am 
    25   22   23 1  
    26   23   24 1  
    27   24   25 ar 
    28   24   26 ar 
    29   27   28 1  
    30   28   29 1  
    31   28   31 1  
    32   29   30 2  
    33   29   37 am 
    34   31   32 1  
    35   32   33 1  
    36   32   34 2  
    37   33   35 2  
    38   34   36 1  
    39   35   36 1  
    40   37   38 1  
    41   38   39 1  
    42   38   41 1  
    43   39   40 1  
    44   41   42 1  
    45   42   43 ar 
    46   42   44 ar 
    47    3   45 1  
    48    3   46 1  
    49    3   47 1  
    50    4   48 1  
    51    5   49 1  
    52    8   50 1  
    53    8   51 1  
    54   10   52 1  
    55   12   53 1  
    56   14   54 1  
    57   15   55 1  
    58   16   56 1  
    59   17   57 1  
    60   18   58 1  
    61   19   59 1  
    62   22   60 1  
    63   22   61 1  
    64   23   62 1  
    65   23   63 1  
    66   27   64 1  
    67   28   65 1  
    68   31   66 1  
    69   31   67 1  
    70   34   68 1  
    71   35   69 1  
    72   36   70 1  
    73   37   71 1  
    74   38   72 1  
    75   39   73 1  
    76   39   74 1  
    77   40   75 1  
    78   41   76 1  
    79   41   77 1  
@<TRIPOS>SUBSTRUCTURE
     1 ACE         1

