### 
### Created by X-TOOL on Mon Sep 10 21:13:01 2018
### 

@<TRIPOS>MOLECULE
3gjs_ligand
   68    68     1     0     0
SMALL
GAST_HUCK


@<TRIPOS>ATOM
      1 C          22.7360    8.1220   45.7220 C.2       1 ACE         0.1752
      2 O          22.1420    7.0470   45.5990 O.2       1 ACE        -0.3972
      3 CH3        23.2370    8.5730   47.0760 C.3       1 ACE         0.0258
      4 N          22.9660    8.9460   44.7010 N.am      1 TYR        -0.2643
      5 CA         22.5430    8.6230   43.3370 C.3       1 TYR         0.1389
      6 C1         23.7220    8.0990   42.5240 C.2       1 TYR         0.2057
      7 O1         24.7960    8.6990   42.5090 O.2       1 TYR        -0.3942
      8 CB         21.9470    9.8530   42.6420 C.3       1 TYR         0.0163
      9 CG         20.6320   10.3280   43.2280 C.ar      1 TYR        -0.0493
     10 CD1        20.6010   11.2140   44.3070 C.ar      1 TYR        -0.0685
     11 CD2        19.4190    9.8850   42.7080 C.ar      1 TYR        -0.0685
     12 CE1        19.3940   11.6480   44.8470 C.ar      1 TYR        -0.0398
     13 CE2        18.2050   10.3130   43.2410 C.ar      1 TYR        -0.0398
     14 CZ         18.1980   11.1950   44.3080 C.ar      1 TYR         0.0805
     15 OH         16.9950   11.6340   44.8210 O.3       1 TYR        -0.3376
     16 N1         23.5150    6.9780   41.8440 N.am      1 VAL        -0.2633
     17 CA1        24.5650    6.3750   41.0380 C.3       1 VAL         0.1333
     18 C2         24.0210    6.0250   39.6620 C.2       1 VAL         0.2041
     19 O2         22.8620    5.6340   39.5280 O.2       1 VAL        -0.3944
     20 CB1        25.1030    5.0880   41.7060 C.3       1 VAL        -0.0063
     21 CG1        26.3170    4.5720   40.9480 C.3       1 VAL        -0.0584
     22 CG2        25.4520    5.3630   43.1650 C.3       1 VAL        -0.0584
     23 N2         24.8600    6.1710   38.6400 N.am      1 ALA        -0.2640
     24 CA2        24.4640    5.8520   37.2720 C.3       1 ALA         0.1281
     25 C3         24.8850    4.4170   36.9590 C.2       1 ALA         0.2018
     26 O3         25.9490    3.9690   37.3870 O.2       1 ALA        -0.3945
     27 CB2        25.1150    6.8210   36.3000 C.3       1 ALA        -0.0244
     28 N3         24.0510    3.7030   36.2080 N.am      1 ASJ        -0.2782
     29 CA3        24.3220    2.3120   35.8570 C.3       1 ASJ         0.0764
     30 C4         24.8900    2.1280   34.4500 C.3       1 ASJ         0.0687
     31 O4         25.0130    0.7400   34.1270 O.3       1 ASJ        -0.3926
     32 CB3        23.0380    1.4850   35.9800 C.3       1 ASJ         0.0254
     33 CG3        22.9530    0.7320   37.2940 C.2       1 ASJ         0.0371
     34 OD1        24.0090    0.4990   37.9220 O.co2     1 ASJ        -0.5689
     35 OD2        21.8290    0.3680   37.6970 O.co2     1 ASJ        -0.5689
     36 H1         23.7352    9.5486   46.9762 H         1 ACE         0.0467
     37 H2         23.9522    7.8344   47.4670 H         1 ACE         0.0467
     38 H3         22.3880    8.6641   47.7694 H         1 ACE         0.0467
     39 H4         23.4409    9.8095   44.8709 H         1 TYR         0.1884
     40 H5         21.7723    7.8397   43.3874 H         1 TYR         0.0821
     41 H6         21.7817    9.6036   41.5835 H         1 TYR         0.0453
     42 H7         22.6735   10.6756   42.7158 H         1 TYR         0.0453
     43 H8         21.5330   11.5698   44.7312 H         1 TYR         0.0530
     44 H9         19.4190    9.1941   41.8727 H         1 TYR         0.0530
     45 H10        19.3880   12.3364   45.6844 H         1 TYR         0.0525
     46 H11        17.2706    9.9571   42.8223 H         1 TYR         0.0525
     47 H12        17.1583   12.2290   45.5433 H         1 TYR         0.2458
     48 H13        22.6178    6.5385   41.8868 H         1 VAL         0.1883
     49 H14        25.3893    7.0954   40.9303 H         1 VAL         0.0802
     50 H15        24.3173    4.3189   41.6730 H         1 VAL         0.0343
     51 H16        26.6901    3.6575   41.4322 H         1 VAL         0.0234
     52 H17        27.1062    5.3382   40.9543 H         1 VAL         0.0234
     53 H18        26.0325    4.3471   39.9095 H         1 VAL         0.0234
     54 H19        24.5604    5.7343   43.6915 H         1 VAL         0.0234
     55 H20        26.2490    6.1195   43.2151 H         1 VAL         0.0234
     56 H21        25.7982    4.4336   43.6407 H         1 VAL         0.0234
     57 H22        25.7854    6.5079   38.8135 H         1 ALA         0.1883
     58 H23        23.3710    5.9361   37.1815 H         1 ALA         0.0797
     59 H24        24.8096    6.5710   35.2732 H         1 ALA         0.0277
     60 H25        26.2091    6.7465   36.3854 H         1 ALA         0.0277
     61 H26        24.7977    7.8471   36.5374 H         1 ALA         0.0277
     62 H27        23.2122    4.1324   35.8734 H         1 ASJ         0.1857
     63 H28        25.0613    1.9246   36.5735 H         1 ASJ         0.0597
     64 H29        25.8826    2.5993   34.3977 H         1 ASJ         0.0581
     65 H30        24.2173    2.6084   33.7243 H         1 ASJ         0.0581
     66 H31        25.3671    0.6503   33.2501 H         1 ASJ         0.2095
     67 H32        23.0065    0.7583   35.1549 H         1 ASJ         0.0454
     68 H33        22.1743    2.1621   35.9055 H         1 ASJ         0.0454
@<TRIPOS>BOND
     1    1    2 2  
     2    1    3 1  
     3    1    4 am 
     4    4    5 1  
     5    5    6 1  
     6    5    8 1  
     7    6    7 2  
     8    6   16 am 
     9    8    9 1  
    10    9   10 ar 
    11    9   11 ar 
    12   10   12 ar 
    13   11   13 ar 
    14   12   14 ar 
    15   13   14 ar 
    16   14   15 1  
    17   16   17 1  
    18   17   18 1  
    19   17   20 1  
    20   18   19 2  
    21   18   23 am 
    22   20   21 1  
    23   20   22 1  
    24   23   24 1  
    25   24   25 1  
    26   24   27 1  
    27   25   26 2  
    28   25   28 am 
    29   28   29 1  
    30   29   30 1  
    31   29   32 1  
    32   30   31 1  
    33   32   33 1  
    34   33   34 ar 
    35   33   35 ar 
    36    3   36 1  
    37    3   37 1  
    38    3   38 1  
    39    4   39 1  
    40    5   40 1  
    41    8   41 1  
    42    8   42 1  
    43   10   43 1  
    44   11   44 1  
    45   12   45 1  
    46   13   46 1  
    47   15   47 1  
    48   16   48 1  
    49   17   49 1  
    50   20   50 1  
    51   21   51 1  
    52   21   52 1  
    53   21   53 1  
    54   22   54 1  
    55   22   55 1  
    56   22   56 1  
    57   23   57 1  
    58   24   58 1  
    59   27   59 1  
    60   27   60 1  
    61   27   61 1  
    62   28   62 1  
    63   29   63 1  
    64   30   64 1  
    65   30   65 1  
    66   31   66 1  
    67   32   67 1  
    68   32   68 1  
@<TRIPOS>SUBSTRUCTURE
     1 ACE         1

