### 
### Created by X-TOOL on Mon Sep 10 21:13:02 2018
### 

@<TRIPOS>MOLECULE
3gjt_ligand
   69    69     1     0     0
SMALL
GAST_HUCK


@<TRIPOS>ATOM
      1 C           8.8970   35.4710   61.3680 C.2       1 ACE         0.1751
      2 O           7.7010   35.3950   61.6760 O.2       1 ACE        -0.3972
      3 CH3         9.9820   35.2720   62.4040 C.3       1 ACE         0.0258
      4 N           9.3090   35.7290   60.1290 N.am      1 ILE        -0.2656
      5 CA          8.3560   35.9390   59.0490 C.3       1 ILE         0.1334
      6 C           7.7530   34.6020   58.6250 C.2       1 ILE         0.2042
      7 O           8.4480   33.5930   58.5440 O.2       1 ILE        -0.3944
      8 CB          9.0270   36.6500   57.8340 C.3       1 ILE        -0.0037
      9 CG1         9.2790   38.1260   58.1640 C.3       1 ILE        -0.0491
     10 CG2         8.1320   36.5760   56.6100 C.3       1 ILE        -0.0582
     11 CD1        10.3570   38.3680   59.2010 C.3       1 ILE        -0.0648
     12 N           6.4480   34.6030   58.3590 N.am      1 GLU        -0.2636
     13 CA          5.7360   33.3980   57.9560 C.3       1 GLU         0.1327
     14 C           5.2580   33.4860   56.5050 C.2       1 GLU         0.2065
     15 O           4.7840   34.5340   56.0570 O.2       1 GLU        -0.3942
     16 CB          4.5380   33.1730   58.8880 C.3       1 GLU        -0.0008
     17 CG          4.9120   32.8810   60.3430 C.3       1 GLU         0.0044
     18 CD          3.7040   32.8500   61.2810 C.2       1 GLU         0.0350
     19 OE1         2.7340   32.1150   60.9860 O.co2     1 GLU        -0.5690
     20 OE2         3.7300   33.5550   62.3180 O.co2     1 GLU        -0.5690
     21 N           5.3930   32.3850   55.7520 N.am      1 PRO        -0.2498
     22 CA          4.9790   32.3100   54.3470 C.3       1 PRO         0.1336
     23 C           3.4950   32.0050   54.1690 C.2       1 PRO         0.2023
     24 O           2.8600   31.3900   55.0270 O.2       1 PRO        -0.3945
     25 CB          5.8570   31.1960   53.7960 C.3       1 PRO        -0.0104
     26 CG          5.9500   30.2680   54.9560 C.3       1 PRO        -0.0281
     27 CD          6.2200   31.2170   56.1070 C.3       1 PRO         0.0369
     28 N           2.9590   32.4380   53.0350 N.am      1 ASP        -0.2782
     29 CA          1.5460   32.2380   52.7050 C.3       1 ASP         0.0764
     30 C           1.4020   31.3080   51.4990 C.3       1 ASP         0.0687
     31 O           0.0490   31.1890   51.0550 O.3       1 ASP        -0.3926
     32 CB          0.8640   33.5790   52.3900 C.3       1 ASP         0.0254
     33 CG          0.1480   34.1750   53.5980 C.2       1 ASP         0.0371
     34 OD1        -0.1360   33.4300   54.5620 O.co2     1 ASP        -0.5689
     35 OD2        -0.1370   35.3910   53.5820 O.co2     1 ASP        -0.5689
     36 H1         10.9677   35.3799   61.9279 H         1 ACE         0.0467
     37 H2          9.8933   34.2657   62.8393 H         1 ACE         0.0467
     38 H3          9.8738   36.0258   63.1978 H         1 ACE         0.0467
     39 H4         10.2891   35.7794   59.9370 H         1 ILE         0.1883
     40 H5          7.5468   36.5846   59.4210 H         1 ILE         0.0803
     41 H6          9.9848   36.1557   57.6142 H         1 ILE         0.0345
     42 H7          8.3397   38.5585   58.5390 H         1 ILE         0.0267
     43 H8          9.5743   38.6388   57.2368 H         1 ILE         0.0267
     44 H9          7.9407   35.5223   56.3588 H         1 ILE         0.0235
     45 H10         8.6285   37.0707   55.7622 H         1 ILE         0.0235
     46 H11         7.1782   37.0813   56.8220 H         1 ILE         0.0235
     47 H12        10.4660   39.4493   59.3711 H         1 ILE         0.0230
     48 H13        11.3111   37.9554   58.8413 H         1 ILE         0.0230
     49 H14        10.0764   37.8751   60.1435 H         1 ILE         0.0230
     50 H15         5.9396   35.4604   58.4387 H         1 GLU         0.1883
     51 H16         6.4208   32.5418   58.0452 H         1 GLU         0.0801
     52 H17         3.9595   32.3198   58.5041 H         1 GLU         0.0330
     53 H18         3.9131   34.0780   58.8689 H         1 GLU         0.0330
     54 H19         5.6039   33.6627   60.6898 H         1 GLU         0.0433
     55 H20         5.4129   31.9026   60.3857 H         1 GLU         0.0433
     56 H21         5.2000   33.2594   53.8373 H         1 PRO         0.0802
     57 H22         6.8486   31.5750   53.5077 H         1 PRO         0.0313
     58 H23         5.3854   30.7072   52.9307 H         1 PRO         0.0313
     59 H24         6.7750   29.5517   54.8282 H         1 PRO         0.0287
     60 H25         5.0080   29.7197   55.1042 H         1 PRO         0.0287
     61 H26         5.9027   30.7808   57.0657 H         1 PRO         0.0524
     62 H27         7.2855   31.4849   56.1608 H         1 PRO         0.0524
     63 H28         3.5421   32.9193   52.3806 H         1 ASP         0.1857
     64 H29         1.0456   31.7793   53.5706 H         1 ASP         0.0597
     65 H30         1.7702   30.3097   51.7780 H         1 ASP         0.0581
     66 H31         2.0101   31.7055   50.6730 H         1 ASP         0.0581
     67 H32         0.0125   30.6036   50.3077 H         1 ASP         0.2095
     68 H33         0.1278   33.4194   51.5884 H         1 ASP         0.0454
     69 H34         1.6295   34.2912   52.0484 H         1 ASP         0.0454
@<TRIPOS>BOND
     1    1    2 2  
     2    1    3 1  
     3    1    4 am 
     4    4    5 1  
     5    5    6 1  
     6    5    8 1  
     7    6    7 2  
     8    6   12 am 
     9    8    9 1  
    10    8   10 1  
    11    9   11 1  
    12   12   13 1  
    13   13   14 1  
    14   13   16 1  
    15   14   15 2  
    16   14   21 am 
    17   16   17 1  
    18   17   18 1  
    19   18   19 ar 
    20   18   20 ar 
    21   21   22 1  
    22   21   27 1  
    23   22   23 1  
    24   22   25 1  
    25   23   24 2  
    26   23   28 am 
    27   25   26 1  
    28   26   27 1  
    29   28   29 1  
    30   29   30 1  
    31   29   32 1  
    32   30   31 1  
    33   32   33 1  
    34   33   34 ar 
    35   33   35 ar 
    36    3   36 1  
    37    3   37 1  
    38    3   38 1  
    39    4   39 1  
    40    5   40 1  
    41    8   41 1  
    42    9   42 1  
    43    9   43 1  
    44   10   44 1  
    45   10   45 1  
    46   10   46 1  
    47   11   47 1  
    48   11   48 1  
    49   11   49 1  
    50   12   50 1  
    51   13   51 1  
    52   16   52 1  
    53   16   53 1  
    54   17   54 1  
    55   17   55 1  
    56   22   56 1  
    57   25   57 1  
    58   25   58 1  
    59   26   59 1  
    60   26   60 1  
    61   27   61 1  
    62   27   62 1  
    63   28   63 1  
    64   29   64 1  
    65   30   65 1  
    66   30   66 1  
    67   31   67 1  
    68   32   68 1  
    69   32   69 1  
@<TRIPOS>SUBSTRUCTURE
     1 ACE         1

