### 
### Created by X-TOOL on Mon Sep 10 21:13:04 2018
### 

@<TRIPOS>MOLECULE
3gjw_ligand
   38    41     1     0     0
SMALL
GAST_HUCK


@<TRIPOS>ATOM
      1 C2         50.9960   55.4160    9.0390 C.2       1 GJW         0.0330
      2 C4         49.5310   55.8580   10.6850 C.2       1 GJW         0.1404
      3 C6         48.8900   54.1470    9.1360 C.ar      1 GJW         0.1151
      4 C11        48.2260   52.4890    7.5970 C.ar      1 GJW        -0.0727
      5 C12        47.0480   52.3320    8.2950 C.ar      1 GJW        -0.0172
      6 N22        45.8970   50.1520    8.6260 N.4       1 GJW         0.2463
      7 C23        44.6160   49.4720    8.3430 C.3       1 GJW        -0.0304
      8 C26        47.0240   49.2100    8.4530 C.3       1 GJW        -0.0304
      9 C1         51.5480   56.4050    9.8230 C.2       1 GJW        -0.0761
     10 N3         49.7880   55.0940    9.5890 N.pl3     1 GJW        -0.2324
     11 C5         50.6220   56.6830   10.8600 C.2       1 GJW        -0.0624
     12 C7         47.7300   53.9910    9.8530 C.ar      1 GJW         0.1000
     13 N8         47.4730   54.7590   10.9950 N.am      1 GJW        -0.2338
     14 C9         48.3310   55.7430   11.4450 C.2       1 GJW         0.2405
     15 C10        49.1640   53.4030    8.0140 C.ar      1 GJW        -0.0433
     16 C13        46.7960   53.0780    9.4240 C.ar      1 GJW        -0.0360
     17 O20        48.0910   56.4390   12.4190 O.2       1 GJW        -0.3891
     18 C21        46.0300   51.3670    7.8070 C.3       1 GJW        -0.0039
     19 C24        44.8890   48.0220    8.6420 C.3       1 GJW        -0.0077
     20 C25        46.3920   47.8550    8.6730 C.3       1 GJW        -0.0077
     21 H1         51.4395   54.9739    8.1480 H         1 GJW         0.0857
     22 H2         48.4138   51.8884    6.7144 H         1 GJW         0.0425
     23 H3         45.8891   50.4397    9.5920 H         1 GJW         0.2047
     24 H4         44.3289   49.6050    7.2895 H         1 GJW         0.0814
     25 H5         43.8174   49.8598    8.9925 H         1 GJW         0.0814
     26 H6         47.8127   49.4006    9.1957 H         1 GJW         0.0814
     27 H7         47.4475   49.2860    7.4406 H         1 GJW         0.0814
     28 H8         52.5147   56.8837    9.6741 H         1 GJW         0.0307
     29 H9         50.7497   57.4176   11.6537 H         1 GJW         0.0353
     30 H10        46.6314   54.5875   11.5072 H         1 GJW         0.2263
     31 H11        50.0941   53.5332    7.4727 H         1 GJW         0.0534
     32 H12        45.8689   52.9467    9.9702 H         1 GJW         0.0426
     33 H13        46.3055   51.0643    6.7860 H         1 GJW         0.0967
     34 H14        45.0553   51.8765    7.7880 H         1 GJW         0.0967
     35 H15        44.4539   47.3856    7.8574 H         1 GJW         0.0319
     36 H16        44.4580   47.7491    9.6165 H         1 GJW         0.0319
     37 H17        46.7017   47.4541    9.6494 H         1 GJW         0.0319
     38 H18        46.7061   47.1642    7.8766 H         1 GJW         0.0319
@<TRIPOS>BOND
     1    1    9 2  
     2   10    1 1  
     3   10    2 1  
     4    2   11 2  
     5    2   14 1  
     6    3   10 1  
     7    3   12 ar 
     8   15    3 ar 
     9    5    4 ar 
    10    4   15 ar 
    11    5   16 ar 
    12   18    5 1  
    13    6    7 1  
    14    6    8 1  
    15    6   18 1  
    16    7   19 1  
    17    8   20 1  
    18    9   11 1  
    19   12   13 1  
    20   12   16 ar 
    21   13   14 am 
    22   14   17 2  
    23   19   20 1  
    24    1   21 1  
    25    4   22 1  
    26    6   23 1  
    27    7   24 1  
    28    7   25 1  
    29    8   26 1  
    30    8   27 1  
    31    9   28 1  
    32   11   29 1  
    33   13   30 1  
    34   15   31 1  
    35   16   32 1  
    36   18   33 1  
    37   18   34 1  
    38   19   35 1  
    39   19   36 1  
    40   20   37 1  
    41   20   38 1  
@<TRIPOS>SUBSTRUCTURE
     1 GJW         1

