### 
### Created by X-TOOL on Mon Sep 10 21:13:01 2018
### 

@<TRIPOS>MOLECULE
3gk1_ligand
   36    36     1     0     0
SMALL
GAST_HUCK


@<TRIPOS>ATOM
      1 C1          5.8760    6.7570   13.3360 C.2       1 32A         0.1892
      2 C2          6.4690    7.2010   12.0470 C.2       1 32A         0.2528
      3 C3          9.4810    8.7800   11.0270 C.2       1 32A         0.1577
      4 C4          4.2320    6.1990   14.5350 C.2       1 32A         0.1702
      5 C5          6.4080    6.4580   14.5960 C.2       1 32A        -0.0385
      6 C6          2.9720    5.9810   14.8500 C.1       1 32A        -0.0326
      7 C7          1.8310    5.8980   15.2430 C.1       1 32A        -0.0980
      8 N1          7.4870    8.0560   12.0580 N.am      1 32A        -0.1754
      9 N2          8.3010    8.1810   10.9130 N.am      1 32A        -0.1778
     10 N3         10.1870    9.1260    9.9280 N.am      1 32A        -0.2842
     11 C9          0.4230    6.0070   15.5790 C.3       1 32A         0.0080
     12 C8          5.3260    6.0960   15.3810 C.2       1 32A        -0.0375
     13 O2          6.0000    6.7630   11.0040 O.2       1 32A        -0.3866
     14 C10        10.8160    8.2150    8.9790 C.3       1 32A         0.0253
     15 S1          9.9770    9.0960   12.4940 S.2       1 32A        -0.3100
     16 O1          4.5190    6.6150   13.2660 O.3       1 32A        -0.2352
     17 C11        -0.2920    6.9710   14.6570 C.3       1 32A        -0.0427
     18 C12        -1.1910    6.2010   13.7000 C.3       1 32A        -0.0551
     19 C13        -2.5540    6.8500   13.5450 C.3       1 32A        -0.0652
     20 H1          7.4540    6.5011   14.8961 H         1 32A         0.0451
     21 H2          7.6741    8.6062   12.8718 H         1 32A         0.2173
     22 H3          7.9949    7.8246   10.0302 H         1 32A         0.2292
     23 H4         10.2882   10.1044    9.7475 H         1 32A         0.1970
     24 H5          0.3289    6.3659   16.6145 H         1 32A         0.0393
     25 H6         -0.0438    5.0149   15.4910 H         1 32A         0.0393
     26 H7          5.3328    5.7973   16.4282 H         1 32A         0.0406
     27 H8         11.3172    8.7956    8.1905 H         1 32A         0.0506
     28 H9         10.0488    7.5691    8.5272 H         1 32A         0.0506
     29 H10        11.5565    7.5932    9.5033 H         1 32A         0.0506
     30 H11         0.4500    7.5427   14.0803 H         1 32A         0.0274
     31 H12        -0.9034    7.6626   15.2552 H         1 32A         0.0274
     32 H13        -1.3269    5.1800   14.0860 H         1 32A         0.0263
     33 H14        -0.7049    6.1587   12.7142 H         1 32A         0.0263
     34 H15        -3.1643    6.2588   12.8464 H         1 32A         0.0230
     35 H16        -2.4319    7.8702   13.1522 H         1 32A         0.0230
     36 H17        -3.0539    6.8914   14.5240 H         1 32A         0.0230
@<TRIPOS>BOND
     1    2    1 1  
     2    1    5 2  
     3    1   16 1  
     4    8    2 am 
     5    2   13 2  
     6    9    3 am 
     7    3   10 am 
     8    3   15 2  
     9    4    6 1  
    10    4   12 2  
    11   16    4 1  
    12    5   12 1  
    13    6    7 3  
    14    7   11 1  
    15    8    9 1  
    16   10   14 1  
    17   11   17 1  
    18   17   18 1  
    19   18   19 1  
    20    5   20 1  
    21    8   21 1  
    22    9   22 1  
    23   10   23 1  
    24   11   24 1  
    25   11   25 1  
    26   12   26 1  
    27   14   27 1  
    28   14   28 1  
    29   14   29 1  
    30   17   30 1  
    31   17   31 1  
    32   18   32 1  
    33   18   33 1  
    34   19   34 1  
    35   19   35 1  
    36   19   36 1  
@<TRIPOS>SUBSTRUCTURE
     1 32A         1

