### 
### Created by X-TOOL on Mon Sep 10 21:13:01 2018
### 

@<TRIPOS>MOLECULE
3gk2_ligand
   39    40     1     0     0
SMALL
GAST_HUCK


@<TRIPOS>ATOM
      1 C1         -0.7550    6.8060   14.2460 C.ar      1 27A        -0.0752
      2 C2         -0.0400    7.9990   14.3320 C.ar      1 27A        -0.0442
      3 C3          1.3280    8.0470   14.6440 C.ar      1 27A         0.0502
      4 C4          2.0280    6.7230   14.8590 C.ar      1 27A         0.0044
      5 C5          1.2420    5.5650   14.7960 C.ar      1 27A        -0.0669
      6 C6         -0.1210    5.5920   14.4850 C.ar      1 27A        -0.0764
      7 C7          1.2880   10.4110   13.9170 C.3       1 27A         0.0678
      8 C8          1.1880   11.6550   14.7890 C.3       1 27A        -0.0117
      9 C9          3.6420   11.0120   14.9620 C.3       1 27A        -0.0117
     10 C10         3.1100    9.6610   15.4610 C.3       1 27A         0.0678
     11 C11         2.9000   13.3790   15.4210 C.3       1 27A        -0.0430
     12 C12         3.4500    6.4840   15.2670 C.2       1 27A         0.0277
     13 C13         5.1540    7.2260   12.6370 C.2       1 27A         0.1775
     14 N5          3.9260    7.4690   12.2110 N.am      1 27A        -0.2910
     15 S1          6.4840    7.4650   11.6180 S.2       1 27A        -0.2921
     16 N4          5.3870    6.7880   13.8670 N.am      1 27A        -0.1690
     17 N3          4.6650    6.5040   14.8550 N.2       1 27A        -0.1877
     18 N1          1.9170    9.3390   14.6830 N.pl3     1 27A        -0.2967
     19 N2          2.5740   12.0090   15.0580 N.4       1 27A         0.2359
     20 H1         -1.8087    6.8246   13.9920 H         1 27A         0.0568
     21 H2         -0.5630    8.9309   14.1500 H         1 27A         0.0508
     22 H3          1.7100    4.6081   14.9967 H         1 27A         0.0566
     23 H4         -0.6831    4.6667   14.4303 H         1 27A         0.0505
     24 H5          1.8954   10.6329   13.0272 H         1 27A         0.0570
     25 H6          0.2807   10.0982   13.6048 H         1 27A         0.0570
     26 H7          0.6522   11.4350   15.7241 H         1 27A         0.0834
     27 H8          0.6738   12.4671   14.2541 H         1 27A         0.0834
     28 H9          3.9651   10.9173   13.9148 H         1 27A         0.0834
     29 H10         4.4951   11.3244   15.5822 H         1 27A         0.0834
     30 H11         2.8536    9.7304   16.5284 H         1 27A         0.0570
     31 H12         3.8728    8.8816   15.3170 H         1 27A         0.0570
     32 H13         1.9798   13.9812   15.4435 H         1 27A         0.0778
     33 H14         3.5952   13.7994   14.6794 H         1 27A         0.0778
     34 H15         3.3716   13.3928   16.4147 H         1 27A         0.0778
     35 H16         3.4535    6.1758   16.3115 H         1 27A         0.0716
     36 H17         3.1472    7.3244   12.8214 H         1 27A         0.1942
     37 H18         3.7761    7.7974   11.2784 H         1 27A         0.1942
     38 H19         6.3608    6.6528   14.0499 H         1 27A         0.2616
     39 H20         2.4452   11.7760   16.0302 H         1 27A         0.2032
@<TRIPOS>BOND
     1    2    1 ar 
     2    6    1 ar 
     3    3    2 ar 
     4    4    3 ar 
     5    3   18 1  
     6    4    5 ar 
     7   12    4 1  
     8    5    6 ar 
     9    7    8 1  
    10   18    7 1  
    11    8   19 1  
    12   10    9 1  
    13    9   19 1  
    14   18   10 1  
    15   19   11 1  
    16   17   12 2  
    17   13   14 am 
    18   13   15 2  
    19   16   13 am 
    20   16   17 1  
    21    1   20 1  
    22    2   21 1  
    23    5   22 1  
    24    6   23 1  
    25    7   24 1  
    26    7   25 1  
    27    8   26 1  
    28    8   27 1  
    29    9   28 1  
    30    9   29 1  
    31   10   30 1  
    32   10   31 1  
    33   11   32 1  
    34   11   33 1  
    35   11   34 1  
    36   12   35 1  
    37   14   36 1  
    38   14   37 1  
    39   16   38 1  
    40   19   39 1  
@<TRIPOS>SUBSTRUCTURE
     1 27A         1

