### 
### Created by X-TOOL on Mon Sep 10 21:13:01 2018
### 

@<TRIPOS>MOLECULE
3gk4_ligand
   46    48     1     0     0
SMALL
GAST_HUCK


@<TRIPOS>ATOM
      1 N1          3.0290  -13.5260   14.8820 N.pl3     1 53A        -0.1017
      2 N3          3.9420  -14.5770   15.0390 N.2       1 53A        -0.0858
      3 C4          0.8250  -11.7730   14.6540 C.2       1 53A         0.1173
      4 C5          2.2100  -11.2370   14.4580 C.ar      1 53A         0.0729
      5 C6          3.3450  -12.1950   14.5890 C.ar      1 53A         0.1496
      6 O2         -1.6310  -13.9600   13.2470 O.2       1 53A        -0.3653
      7 N4          3.1450  -15.7200   15.3080 N.2       1 53A        -0.2143
      8 O3         -4.2370  -11.6530   13.8440 O.2       1 53A        -0.3869
      9 C10        -3.2130  -11.0010   14.0030 C.2       1 53A         0.1387
     10 C13        -3.2900   -9.5690   14.4620 C.3       1 53A         0.0132
     11 C7         -1.8810  -11.6490   13.7080 C.3       1 53A         0.1974
     12 C9         -1.8930  -13.1060   14.0830 C.2       1 53A         0.2689
     13 O5         -2.1940  -13.5050   15.4560 O.3       1 53A        -0.2742
     14 C15        -3.4280  -14.1340   15.8160 C.3       1 53A         0.0742
     15 C19        -3.9070  -13.6100   17.1520 C.3       1 53A        -0.0371
     16 S1         -0.5640  -10.7980   14.5400 S.3       1 53A        -0.0129
     17 N2          0.6780  -13.0870   14.9360 N.2       1 53A        -0.2452
     18 C11         2.4820   -9.9000   14.1710 C.ar      1 53A        -0.0419
     19 C16         3.8090   -9.4830   14.0080 C.ar      1 53A        -0.0587
     20 C17         4.8720  -10.3830   14.1300 C.ar      1 53A        -0.0570
     21 C12         4.6530  -11.7350   14.4170 C.ar      1 53A        -0.0122
     22 C3          1.8430  -15.3430   15.3130 C.2       1 53A         0.1551
     23 C1          1.7650  -13.8930   15.0320 C.2       1 53A         0.1991
     24 C8          0.5610  -16.0610   15.5390 C.2       1 53A         0.2495
     25 O1         -0.3320  -15.5160   16.1530 O.2       1 53A        -0.3769
     26 O4          0.3710  -17.4240   15.0450 O.3       1 53A        -0.2831
     27 C14        -0.8910  -18.1060   15.1430 C.3       1 53A         0.0720
     28 C18        -2.0480  -17.2560   14.6510 C.3       1 53A        -0.0373
     29 H1         -2.2741   -9.1556   14.5455 H         1 53A         0.0460
     30 H2         -3.7857   -9.5245   15.4430 H         1 53A         0.0460
     31 H3         -3.8664   -8.9807   13.7329 H         1 53A         0.0460
     32 H4         -1.7017  -11.5781   12.6250 H         1 53A         0.0935
     33 H5         -3.2759  -15.2213   15.8848 H         1 53A         0.0610
     34 H6         -4.1847  -13.9175   15.0476 H         1 53A         0.0610
     35 H7         -4.8552  -14.0994   17.4192 H         1 53A         0.0255
     36 H8         -4.0615  -12.5229   17.0855 H         1 53A         0.0255
     37 H9         -3.1527  -13.8267   17.9227 H         1 53A         0.0255
     38 H10         1.6709   -9.1873   14.0746 H         1 53A         0.0672
     39 H11         4.0158   -8.4430   13.7830 H         1 53A         0.0593
     40 H12         5.8872  -10.0260   13.9995 H         1 53A         0.0661
     41 H13         5.4897  -12.4185   14.5050 H         1 53A         0.0618
     42 H14        -1.0692  -18.3696   16.1960 H         1 53A         0.0607
     43 H15        -0.8446  -19.0235   14.5380 H         1 53A         0.0607
     44 H16        -2.9860  -17.8224   14.7473 H         1 53A         0.0255
     45 H17        -1.8860  -16.9917   13.5956 H         1 53A         0.0255
     46 H18        -2.1107  -16.3378   15.2535 H         1 53A         0.0255
@<TRIPOS>BOND
     1    1    2 1  
     2    5    1 1  
     3    1   23 1  
     4    2    7 2  
     5    3    4 1  
     6   16    3 1  
     7    3   17 2  
     8    4    5 ar 
     9    4   18 ar 
    10    5   21 ar 
    11   12    6 2  
    12    7   22 1  
    13    9    8 2  
    14    9   10 1  
    15   11    9 1  
    16   11   12 1  
    17   11   16 1  
    18   12   13 1  
    19   13   14 1  
    20   14   15 1  
    21   17   23 1  
    22   18   19 ar 
    23   19   20 ar 
    24   20   21 ar 
    25   22   23 2  
    26   22   24 1  
    27   24   25 2  
    28   24   26 1  
    29   26   27 1  
    30   27   28 1  
    31   10   29 1  
    32   10   30 1  
    33   10   31 1  
    34   11   32 1  
    35   14   33 1  
    36   14   34 1  
    37   15   35 1  
    38   15   36 1  
    39   15   37 1  
    40   18   38 1  
    41   19   39 1  
    42   20   40 1  
    43   21   41 1  
    44   27   42 1  
    45   27   43 1  
    46   28   44 1  
    47   28   45 1  
    48   28   46 1  
@<TRIPOS>SUBSTRUCTURE
     1 53A         1

