### 
### Created by X-TOOL on Mon Sep 10 21:13:01 2018
### 

@<TRIPOS>MOLECULE
3gkz_ligand
   27    27     1     0     0
SMALL
GAST_HUCK


@<TRIPOS>ATOM
      1 N          -2.4400   -2.0580   15.3790 N.4       1 B40         0.2282
      2 CA         -2.9850   -3.4260   15.5530 C.3       1 B40        -0.0162
      3 C          -1.8660   -4.4250   15.2400 C.3       1 B40        -0.0197
      4 CB         -3.4840   -3.6220   17.0080 C.3       1 B40         0.0238
      5 CG         -4.2340   -4.9300   17.1960 C.ar      1 B40        -0.0377
      6 CD1        -3.6000   -6.0350   17.8080 C.ar      1 B40        -0.0601
      7 CD2        -5.5720   -5.0410   16.7720 C.ar      1 B40        -0.0601
      8 CE1        -4.3030   -7.2380   17.9860 C.ar      1 B40        -0.0686
      9 CE2        -6.2780   -6.2490   16.9510 C.ar      1 B40        -0.0686
     10 CZ         -5.6430   -7.3480   17.5590 C.ar      1 B40        -0.0687
     11 CM         -3.5180   -1.0470   15.3790 C.3       1 B40        -0.0445
     12 H1         -1.9453   -2.0106   14.5020 H         1 B40         0.2015
     13 H2         -1.8035   -1.8594   16.1350 H         1 B40         0.2015
     14 H3         -3.8240   -3.5808   14.8587 H         1 B40         0.0871
     15 H4         -2.2452   -5.4503   15.3619 H         1 B40         0.0286
     16 H5         -1.0246   -4.2609   15.9292 H         1 B40         0.0286
     17 H6         -1.5250   -4.2810   14.2042 H         1 B40         0.0286
     18 H7         -4.1562   -2.7901   17.2653 H         1 B40         0.0481
     19 H8         -2.6153   -3.6137   17.6828 H         1 B40         0.0481
     20 H9         -2.5713   -5.9541   18.1400 H         1 B40         0.0557
     21 H10        -6.0620   -4.1939   16.3057 H         1 B40         0.0557
     22 H11        -3.8140   -8.0851   18.4533 H         1 B40         0.0599
     23 H12        -7.3073   -6.3307   16.6210 H         1 B40         0.0599
     24 H13        -6.1828   -8.2776   17.6990 H         1 B40         0.0559
     25 H14        -3.0816   -0.0457   15.2484 H         1 B40         0.0777
     26 H15        -4.0600   -1.0888   16.3353 H         1 B40         0.0777
     27 H16        -4.2147   -1.2538   14.5533 H         1 B40         0.0777
@<TRIPOS>BOND
     1    1    2 1  
     2    1   11 1  
     3    2    3 1  
     4    2    4 1  
     5    4    5 1  
     6    5    6 ar 
     7    5    7 ar 
     8    6    8 ar 
     9    7    9 ar 
    10    8   10 ar 
    11    9   10 ar 
    12    1   12 1  
    13    1   13 1  
    14    2   14 1  
    15    3   15 1  
    16    3   16 1  
    17    3   17 1  
    18    4   18 1  
    19    4   19 1  
    20    6   20 1  
    21    7   21 1  
    22    8   22 1  
    23    9   23 1  
    24   10   24 1  
    25   11   25 1  
    26   11   26 1  
    27   11   27 1  
@<TRIPOS>SUBSTRUCTURE
     1 B40         1

