### 
### Created by X-TOOL on Mon Sep 10 21:13:01 2018
### 

@<TRIPOS>MOLECULE
3gm0_ligand
   30    31     1     0     0
SMALL
GAST_HUCK


@<TRIPOS>ATOM
      1 O1         -7.8340   -5.8670   16.5420 O.3       1 B41        -0.2927
      2 O2         -7.0540   -7.9350   17.1210 O.3       1 B41        -0.2956
      3 N          -2.6600   -1.9010   15.5060 N.4       1 B41         0.2281
      4 CA         -3.1790   -3.2790   15.6260 C.3       1 B41        -0.0178
      5 C          -2.1360   -4.2640   15.0710 C.3       1 B41        -0.0199
      6 CB         -3.4810   -3.6020   17.1060 C.3       1 B41         0.0163
      7 CG         -4.4120   -4.7920   17.2630 C.ar      1 B41        -0.0573
      8 CD1        -5.8100   -4.6140   17.1060 C.ar      1 B41        -0.0395
      9 CD2        -3.9020   -6.0760   17.5790 C.ar      1 B41        -0.0799
     10 CE1        -6.6830   -5.7120   17.2670 C.ar      1 B41         0.1170
     11 CE2        -4.7880   -7.1710   17.7310 C.ar      1 B41        -0.0478
     12 CZ         -6.1800   -6.9710   17.5770 C.ar      1 B41         0.1160
     13 CM         -3.7650   -0.9510   15.3770 C.3       1 B41        -0.0445
     14 CT         -8.2840   -7.2220   16.8230 C.3       1 B41         0.1854
     15 H1         -2.0704   -1.8377   14.6909 H         1 B41         0.2015
     16 H2         -2.1222   -1.6756   16.3282 H         1 B41         0.2015
     17 H3         -4.1072   -3.3685   15.0425 H         1 B41         0.0869
     18 H4         -2.5190   -5.2915   15.1587 H         1 B41         0.0286
     19 H5         -1.2020   -4.1707   15.6444 H         1 B41         0.0286
     20 H6         -1.9413   -4.0343   14.0130 H         1 B41         0.0286
     21 H7         -3.9512   -2.7226   17.5703 H         1 B41         0.0459
     22 H8         -2.5338   -3.8250   17.6189 H         1 B41         0.0459
     23 H9         -6.2082   -3.6356   16.8625 H         1 B41         0.0450
     24 H10        -2.8349   -6.2201   17.7043 H         1 B41         0.0436
     25 H11        -4.4015   -8.1566   17.9640 H         1 B41         0.0493
     26 H12        -3.3631    0.0691   15.2887 H         1 B41         0.0777
     27 H13        -4.4096   -1.0154   16.2660 H         1 B41         0.0777
     28 H14        -4.3531   -1.1923   14.4793 H         1 B41         0.0777
     29 H15        -8.7885   -7.6578   15.9480 H         1 B41         0.0970
     30 H16        -8.9663   -7.2384   17.6856 H         1 B41         0.0970
@<TRIPOS>BOND
     1   10    1 1  
     2    1   14 1  
     3    2   12 1  
     4   14    2 1  
     5    4    3 1  
     6    3   13 1  
     7    4    5 1  
     8    6    4 1  
     9    7    6 1  
    10    8    7 ar 
    11    7    9 ar 
    12    8   10 ar 
    13    9   11 ar 
    14   10   12 ar 
    15   11   12 ar 
    16    3   15 1  
    17    3   16 1  
    18    4   17 1  
    19    5   18 1  
    20    5   19 1  
    21    5   20 1  
    22    6   21 1  
    23    6   22 1  
    24    8   23 1  
    25    9   24 1  
    26   11   25 1  
    27   13   26 1  
    28   13   27 1  
    29   13   28 1  
    30   14   29 1  
    31   14   30 1  
@<TRIPOS>SUBSTRUCTURE
     1 B41         1

