### 
### Created by X-TOOL on Mon Sep 10 21:13:03 2018
### 

@<TRIPOS>MOLECULE
3gn7_ligand
   35    37     1     0     0
SMALL
GAST_HUCK


@<TRIPOS>ATOM
      1 C4         26.5090   65.4040    9.3900 C.ar      1 3GN         0.1298
      2 C5         26.9340   66.1890   10.4440 C.ar      1 3GN         0.0890
      3 C6         28.2340   66.0460   10.8660 C.ar      1 3GN        -0.0389
      4 C8         25.4300   64.4350    7.8210 C.2       1 3GN         0.1617
      5 C10        26.0620   67.1560   11.1150 C.2       1 3GN         0.2002
      6 C13        24.4130   63.9970    6.8530 C.3       1 3GN         0.0219
      7 C15        23.1140   65.8710    6.0270 C.3       1 3GN        -0.0383
      8 C17        24.8540   64.2600    5.4360 C.3       1 3GN        -0.0214
      9 C1         29.0900   65.1440   10.2740 C.ar      1 3GN        -0.0533
     10 C2         28.7020   64.3570    9.2150 C.ar      1 3GN        -0.0314
     11 C3         27.4010   64.5340    8.8050 C.ar      1 3GN         0.0965
     12 N7         26.6920   63.9290    7.8070 N.2       1 3GN        -0.2404
     13 N9         25.2860   65.3350    8.7730 N.pl3     1 3GN        -0.2383
     14 N11        24.7270   66.9820   10.8570 N.am      1 3GN        -0.3015
     15 O12        26.5500   68.0350   11.8080 O.2       1 3GN        -0.3899
     16 N14        23.1610   64.7760    7.0210 N.4       1 3GN         0.1868
     17 C16        24.0620   65.4430    4.9320 C.3       1 3GN        -0.0148
     18 C18        24.0960   62.5400    7.0200 C.3       1 3GN        -0.0379
     19 H1         28.5945   66.6581   11.6848 H         1 3GN         0.0722
     20 H2         23.4460   66.8177    6.4781 H         1 3GN         0.0814
     21 H3         22.0947   65.9910    5.6313 H         1 3GN         0.0814
     22 H4         24.6536   63.3783    4.8095 H         1 3GN         0.0224
     23 H5         25.9295   64.4896    5.4128 H         1 3GN         0.0224
     24 H6         30.1008   65.0515   10.6545 H         1 3GN         0.0592
     25 H7         29.3716   63.6499    8.7389 H         1 3GN         0.0707
     26 H8         24.4375   65.8712    9.0040 H         1 3GN         0.2366
     27 H9         24.0537   67.5946   11.2710 H         1 3GN         0.1804
     28 H10        24.4264   66.2424   10.2548 H         1 3GN         0.1804
     29 H11        23.1318   65.1661    7.9500 H         1 3GN         0.1975
     30 H12        22.3682   64.1681    6.8867 H         1 3GN         0.1975
     31 H13        24.7435   66.2700    4.6840 H         1 3GN         0.0311
     32 H14        23.4921   65.1561    4.0359 H         1 3GN         0.0311
     33 H15        25.0154   61.9484    6.8981 H         1 3GN         0.0186
     34 H16        23.3606   62.2353    6.2608 H         1 3GN         0.0186
     35 H17        23.6797   62.3680    8.0235 H         1 3GN         0.0186
@<TRIPOS>BOND
     1    1    2 ar 
     2    1   11 ar 
     3   13    1 1  
     4    2    3 ar 
     5    2    5 1  
     6    3    9 ar 
     7    4    6 1  
     8    4   12 2  
     9    4   13 1  
    10    5   14 am 
    11    5   15 2  
    12    6    8 1  
    13    6   16 1  
    14    6   18 1  
    15   16    7 1  
    16    7   17 1  
    17    8   17 1  
    18    9   10 ar 
    19   10   11 ar 
    20   11   12 1  
    21    3   19 1  
    22    7   20 1  
    23    7   21 1  
    24    8   22 1  
    25    8   23 1  
    26    9   24 1  
    27   10   25 1  
    28   13   26 1  
    29   14   27 1  
    30   14   28 1  
    31   16   29 1  
    32   16   30 1  
    33   17   31 1  
    34   17   32 1  
    35   18   33 1  
    36   18   34 1  
    37   18   35 1  
@<TRIPOS>SUBSTRUCTURE
     1 3GN         1

