### 
### Created by X-TOOL on Mon Sep 10 21:13:00 2018
### 

@<TRIPOS>MOLECULE
3gnv_ligand
   66    70     1     0     0
SMALL
GAST_HUCK


@<TRIPOS>ATOM
      1 CL37       28.0250   43.8540   95.6130 Cl        1 XNZ        -0.0799
      2 C17        28.2390   44.2750   97.2560 C.ar      1 XNZ         0.0360
      3 C18        28.7080   43.2810   98.0920 C.ar      1 XNZ        -0.0257
      4 C19        28.9080   43.5520   99.4270 C.ar      1 XNZ         0.0871
      5 O22        29.3790   42.5370  100.2030 O.3       1 XNZ        -0.3101
      6 C23        29.5280   42.7140  101.6100 C.3       1 XNZ         0.1028
      7 C24        28.2000   42.9560  102.2890 C.ar      1 XNZ        -0.0131
      8 C29        28.1670   43.7540  103.4370 C.ar      1 XNZ        -0.0578
      9 C28        26.9520   43.9810  104.0910 C.ar      1 XNZ        -0.0685
     10 C27        25.7770   43.4160  103.6020 C.ar      1 XNZ        -0.0687
     11 C26        25.8140   42.6170  102.4510 C.ar      1 XNZ        -0.0685
     12 C25        27.0220   42.3850  101.7870 C.ar      1 XNZ        -0.0578
     13 C20        28.6270   44.8360   99.9180 C.ar      1 XNZ        -0.0392
     14 C21        28.1510   45.8260   99.0810 C.ar      1 XNZ        -0.0651
     15 C16        27.9440   45.5570   97.7350 C.ar      1 XNZ        -0.0079
     16 C8         27.4310   46.6080   96.7580 C.3       1 XNZ         0.1084
     17 N7         28.5230   46.8510   95.7930 N.am      1 XNZ        -0.2109
     18 C30        28.1790   47.4820   94.5800 C.2       1 XNZ         0.2027
     19 O32        27.1990   47.0260   94.0090 O.2       1 XNZ        -0.3862
     20 C31        28.8860   48.6670   93.9430 C.3       1 XNZ         0.0315
     21 C4         29.8540   47.0500   96.3000 C.ar      1 XNZ         0.0897
     22 C3         30.8730   46.1880   95.8880 C.ar      1 XNZ        -0.0600
     23 C2         32.1730   46.2980   96.3650 C.ar      1 XNZ        -0.0948
     24 C9         27.0000   47.8950   97.4920 C.2       1 XNZ         0.0381
     25 C12        25.5380   48.0550   97.7550 C.2       1 XNZ         0.0898
     26 O36        24.7700   47.1310   97.5660 O.2       1 XNZ        -0.4156
     27 C13        25.0180   49.3810   98.2680 C.3       1 XNZ         0.0184
     28 C14        25.9330   49.9370   99.3450 C.3       1 XNZ        -0.0069
     29 C34        25.4080   51.3300   99.7410 C.3       1 XNZ        -0.0556
     30 C35        26.0010   49.0090  100.5800 C.3       1 XNZ        -0.0556
     31 C15        27.3230   50.0650   98.7430 C.3       1 XNZ         0.0149
     32 C10        27.8400   48.8500   97.9600 C.2       1 XNZ         0.0527
     33 N11        29.2060   48.8590   97.8050 N.pl3     1 XNZ        -0.2769
     34 C5         30.1680   48.0090   97.2650 C.ar      1 XNZ         0.1160
     35 C6         31.4660   48.1200   97.7500 C.ar      1 XNZ         0.0993
     36 O33        31.7890   49.0400   98.6860 O.3       1 XNZ        -0.3417
     37 C1         32.4650   47.2780   97.2980 C.ar      1 XNZ        -0.0572
     38 H1         28.9176   42.2926   97.6993 H         1 XNZ         0.0530
     39 H2         30.1839   43.5780  101.7927 H         1 XNZ         0.0776
     40 H3         29.9861   41.8093  102.0361 H         1 XNZ         0.0776
     41 H4         29.0806   44.1953  103.8187 H         1 XNZ         0.0557
     42 H5         26.9248   44.5987  104.9814 H         1 XNZ         0.0599
     43 H6         24.8361   43.5936  104.1102 H         1 XNZ         0.0559
     44 H7         24.8989   42.1757  102.0729 H         1 XNZ         0.0599
     45 H8         27.0477   41.7707  100.8942 H         1 XNZ         0.0557
     46 H9         28.7856   45.0538  100.9680 H         1 XNZ         0.0527
     47 H10        27.9390   46.8133   99.4752 H         1 XNZ         0.0530
     48 H11        26.5572   46.2104   96.2211 H         1 XNZ         0.0804
     49 H12        28.3833   48.9307   93.0008 H         1 XNZ         0.0471
     50 H13        29.9337   48.4020   93.7379 H         1 XNZ         0.0471
     51 H14        28.8527   49.5261   94.6292 H         1 XNZ         0.0471
     52 H15        30.6417   45.4074   95.1723 H         1 XNZ         0.0383
     53 H16        32.9472   45.6265   96.0119 H         1 XNZ         0.0457
     54 H17        24.0121   49.2358   98.6887 H         1 XNZ         0.0475
     55 H18        24.9669   50.0959   97.4335 H         1 XNZ         0.0475
     56 H19        26.0543   51.7570  100.5220 H         1 XNZ         0.0238
     57 H20        24.3809   51.2395  100.1241 H         1 XNZ         0.0238
     58 H21        25.4140   51.9883   98.8598 H         1 XNZ         0.0238
     59 H22        26.3776   48.0212  100.2761 H         1 XNZ         0.0238
     60 H23        24.9957   48.9007  101.0131 H         1 XNZ         0.0238
     61 H24        26.6781   49.4449  101.3294 H         1 XNZ         0.0238
     62 H25        28.0277   50.2583   99.5652 H         1 XNZ         0.0495
     63 H26        27.3136   50.9257   98.0581 H         1 XNZ         0.0495
     64 H27        29.6274   49.7174   98.1877 H         1 XNZ         0.2096
     65 H28        32.7133   48.9681   98.8934 H         1 XNZ         0.2436
     66 H29        33.4761   47.3851   97.6739 H         1 XNZ         0.0390
@<TRIPOS>BOND
     1    1    2 1  
     2    2    3 ar 
     3    2   15 ar 
     4    3    4 ar 
     5    4    5 1  
     6    4   13 ar 
     7    5    6 1  
     8    6    7 1  
     9    7    8 ar 
    10    7   12 ar 
    11    8    9 ar 
    12    9   10 ar 
    13   10   11 ar 
    14   11   12 ar 
    15   13   14 ar 
    16   14   15 ar 
    17   15   16 1  
    18   16   17 1  
    19   16   24 1  
    20   17   18 am 
    21   17   21 1  
    22   18   19 2  
    23   18   20 1  
    24   21   22 ar 
    25   21   34 ar 
    26   22   23 ar 
    27   23   37 ar 
    28   24   25 1  
    29   24   32 2  
    30   25   26 2  
    31   25   27 1  
    32   27   28 1  
    33   28   29 1  
    34   28   30 1  
    35   28   31 1  
    36   31   32 1  
    37   32   33 1  
    38   33   34 1  
    39   34   35 ar 
    40   35   36 1  
    41   35   37 ar 
    42    3   38 1  
    43    6   39 1  
    44    6   40 1  
    45    8   41 1  
    46    9   42 1  
    47   10   43 1  
    48   11   44 1  
    49   12   45 1  
    50   13   46 1  
    51   14   47 1  
    52   16   48 1  
    53   20   49 1  
    54   20   50 1  
    55   20   51 1  
    56   22   52 1  
    57   23   53 1  
    58   27   54 1  
    59   27   55 1  
    60   29   56 1  
    61   29   57 1  
    62   29   58 1  
    63   30   59 1  
    64   30   60 1  
    65   30   61 1  
    66   31   62 1  
    67   31   63 1  
    68   33   64 1  
    69   36   65 1  
    70   37   66 1  
@<TRIPOS>SUBSTRUCTURE
     1 XNZ         1

