### 
### Created by X-TOOL on Mon Sep 10 21:13:00 2018
### 

@<TRIPOS>MOLECULE
3gol_ligand
   52    55     1     0     0
SMALL
GAST_HUCK


@<TRIPOS>ATOM
      1 CL29       22.8850   11.7430   34.4460 Cl        1 XND        -0.0774
      2 C22        23.5200   10.6420   33.2960 C.ar      1 XND         0.0332
      3 C21        23.6640   11.0150   31.9710 C.ar      1 XND        -0.0409
      4 C20        24.1840   10.0970   31.0740 C.ar      1 XND         0.0447
      5 CL28       24.3740   10.5290   29.4160 Cl        1 XND        -0.0772
      6 C23        23.8850    9.3720   33.7150 C.ar      1 XND        -0.0546
      7 C24        24.4020    8.4610   32.8130 C.ar      1 XND        -0.0562
      8 C16        24.5570    8.8130   31.4790 C.ar      1 XND         0.0030
      9 C11        25.1290    7.8480   30.4080 C.3       1 XND         0.1134
     10 C5         25.5760    6.4930   30.9760 C.2       1 XND         0.0399
     11 C6         27.0250    6.3110   31.1840 C.2       1 XND         0.0900
     12 O25        27.7650    7.2760   31.1170 O.2       1 XND        -0.4155
     13 C1         27.5250    4.9310   31.5500 C.3       1 XND         0.0185
     14 N10        24.1720    7.7170   29.2860 N.am      1 XND        -0.2092
     15 C17        24.7150    7.2950   28.0350 C.2       1 XND         0.2029
     16 C19        23.8790    6.6660   26.9430 C.3       1 XND         0.0315
     17 O18        25.9180    7.3990   27.8020 O.2       1 XND        -0.3861
     18 C9         22.8210    7.4810   29.7130 C.ar      1 XND         0.0899
     19 C15        21.8190    8.3460   29.2860 C.ar      1 XND        -0.0599
     20 C14        20.5100    8.1790   29.6780 C.ar      1 XND        -0.0948
     21 C13        20.1750    7.1400   30.5250 C.ar      1 XND        -0.0572
     22 C12        21.1590    6.2770   30.9810 C.ar      1 XND         0.0993
     23 O30        20.8530    5.2670   31.8180 O.3       1 XND        -0.3416
     24 C8         22.4730    6.4400   30.6000 C.ar      1 XND         0.1161
     25 N7         23.3650    5.5130   31.1820 N.pl3     1 XND        -0.2767
     26 C4         24.7290    5.5120   31.3850 C.2       1 XND         0.0532
     27 C3         25.2090    4.2580   32.1250 C.3       1 XND         0.0151
     28 C2         26.6350    4.3300   32.6480 C.3       1 XND        -0.0069
     29 C27        27.1390    2.9100   32.9990 C.3       1 XND        -0.0556
     30 C26        26.6130    5.2380   33.9050 C.3       1 XND        -0.0556
     31 H1         23.3753   12.0066   31.6417 H         1 XND         0.0610
     32 H2         23.7644    9.0919   34.7552 H         1 XND         0.0606
     33 H3         24.6869    7.4701   33.1478 H         1 XND         0.0557
     34 H4         26.0340    8.3240   30.0026 H         1 XND         0.0826
     35 H5         28.5595    5.0027   31.9169 H         1 XND         0.0475
     36 H6         27.4953    4.2840   30.6609 H         1 XND         0.0475
     37 H7         24.5201    6.4285   26.0813 H         1 XND         0.0471
     38 H8         23.0926    7.3695   26.6320 H         1 XND         0.0471
     39 H9         23.4163    5.7426   27.3213 H         1 XND         0.0471
     40 H10        22.0746    9.1701   28.6298 H         1 XND         0.0383
     41 H11        19.7449    8.8601   29.3235 H         1 XND         0.0457
     42 H12        19.1449    7.0002   30.8322 H         1 XND         0.0390
     43 H13        20.4776    5.6210   32.6157 H         1 XND         0.2436
     44 H14        22.9005    4.6606   31.5264 H         1 XND         0.2097
     45 H15        25.1416    3.4058   31.4327 H         1 XND         0.0496
     46 H16        24.5392    4.0889   32.9810 H         1 XND         0.0496
     47 H17        28.1705    2.9699   33.3764 H         1 XND         0.0238
     48 H18        27.1142    2.2790   32.0983 H         1 XND         0.0238
     49 H19        26.4907    2.4714   33.7719 H         1 XND         0.0238
     50 H20        26.2516    6.2393   33.6277 H         1 XND         0.0238
     51 H21        27.6293    5.3165   34.3185 H         1 XND         0.0238
     52 H22        25.9425    4.8024   34.6604 H         1 XND         0.0238
@<TRIPOS>BOND
     1    1    2 1  
     2    2    3 ar 
     3    2    6 ar 
     4    3    4 ar 
     5    4    5 1  
     6    4    8 ar 
     7    6    7 ar 
     8    7    8 ar 
     9    8    9 1  
    10    9   10 1  
    11    9   14 1  
    12   10   11 1  
    13   10   26 2  
    14   11   12 2  
    15   11   13 1  
    16   13   28 1  
    17   14   15 am 
    18   14   18 1  
    19   15   16 1  
    20   15   17 2  
    21   18   19 ar 
    22   18   24 ar 
    23   19   20 ar 
    24   20   21 ar 
    25   21   22 ar 
    26   22   23 1  
    27   22   24 ar 
    28   24   25 1  
    29   25   26 1  
    30   26   27 1  
    31   27   28 1  
    32   28   29 1  
    33   28   30 1  
    34    3   31 1  
    35    6   32 1  
    36    7   33 1  
    37    9   34 1  
    38   13   35 1  
    39   13   36 1  
    40   16   37 1  
    41   16   38 1  
    42   16   39 1  
    43   19   40 1  
    44   20   41 1  
    45   21   42 1  
    46   23   43 1  
    47   25   44 1  
    48   27   45 1  
    49   27   46 1  
    50   29   47 1  
    51   29   48 1  
    52   29   49 1  
    53   30   50 1  
    54   30   51 1  
    55   30   52 1  
@<TRIPOS>SUBSTRUCTURE
     1 XND         1

