### 
### Created by X-TOOL on Mon Sep 10 21:13:00 2018
### 

@<TRIPOS>MOLECULE
3gp0_ligand
   61    65     1     0     0
SMALL
GAST_HUCK


@<TRIPOS>ATOM
      1 O17        19.8780   60.1390   22.9360 O.2       1 NIL        -0.3763
      2 C16        19.1410   59.7490   23.8470 C.2       1 NIL         0.2249
      3 N14        18.3680   58.6150   23.7530 N.am      1 NIL        -0.2298
      4 C11        18.4440   57.7110   22.7500 C.ar      1 NIL         0.0913
      5 C9         17.3340   56.8940   22.4470 C.ar      1 NIL         0.0236
      6 C8         17.3950   55.9320   21.4600 C.ar      1 NIL         0.1136
      7 N51        16.3110   55.1500   21.2400 N.pl3     1 NIL        -0.2156
      8 C56        15.2030   55.0650   22.0270 C.2       1 NIL         0.0460
      9 C55        14.4220   54.1530   21.4650 C.2       1 NIL        -0.0066
     10 C58        13.0550   53.7100   22.0060 C.3       1 NIL        -0.0375
     11 N54        15.0210   53.6560   20.3830 N.2       1 NIL        -0.3221
     12 C52        16.1830   54.2740   20.2330 C.2       1 NIL         0.1083
     13 C6         18.6080   55.7200   20.7550 C.ar      1 NIL        -0.0109
     14 C12        19.6470   57.5120   22.0380 C.ar      1 NIL        -0.0185
     15 C5         19.7220   56.5290   21.0490 C.ar      1 NIL         0.0293
     16 C2         21.0390   56.3490   20.2500 C.3       1 NIL         0.3708
     17 F4         22.1010   56.2240   21.0030 F         1 NIL        -0.2213
     18 F3         20.9400   55.3410   19.4480 F         1 NIL        -0.2213
     19 F1         21.3140   57.3350   19.4510 F         1 NIL        -0.2213
     20 C18        19.0860   60.5960   25.1220 C.ar      1 NIL         0.0394
     21 C25        18.4420   60.1960   26.3010 C.ar      1 NIL        -0.0595
     22 C23        18.4570   61.0080   27.4390 C.ar      1 NIL        -0.0636
     23 C22        19.1550   62.2240   27.4160 C.ar      1 NIL        -0.0165
     24 C27        19.1860   63.1270   28.6500 C.3       1 NIL        -0.0311
     25 C21        19.8120   62.6190   26.2570 C.ar      1 NIL         0.0734
     26 C19        19.7860   61.8080   25.1080 C.ar      1 NIL        -0.0242
     27 N31        20.4830   63.7890   26.2300 N.pl3     1 NIL        -0.2435
     28 C33        20.2290   64.7980   25.3740 C.ar      1 NIL         0.2095
     29 N40        19.0500   64.9280   24.7240 N.ar      1 NIL        -0.2516
     30 C38        18.8170   65.9400   23.9070 C.ar      1 NIL         0.0146
     31 C36        19.8230   66.9020   23.7160 C.ar      1 NIL        -0.0153
     32 C35        21.0570   66.7530   24.3810 C.ar      1 NIL         0.0621
     33 N34        21.2200   65.7040   25.2090 N.ar      1 NIL        -0.2456
     34 C41        22.1420   67.6590   24.1940 C.ar      1 NIL         0.0316
     35 C49        22.0460   68.7000   23.2470 C.ar      1 NIL        -0.0291
     36 C47        23.1410   69.5810   23.0690 C.ar      1 NIL        -0.0301
     37 C45        24.3000   69.3720   23.8450 C.ar      1 NIL         0.0142
     38 N44        24.3900   68.3550   24.7240 N.ar      1 NIL        -0.2920
     39 C42        23.3470   67.5040   24.9260 C.ar      1 NIL         0.0248
     40 H1         17.7014   58.4468   24.4792 H         1 NIL         0.2251
     41 H2         16.4124   57.0253   23.0024 H         1 NIL         0.0728
     42 H3         14.9996   55.6316   22.9345 H         1 NIL         0.0743
     43 H4         12.6293   52.9428   21.3426 H         1 NIL         0.0340
     44 H5         12.3783   54.5763   22.0463 H         1 NIL         0.0340
     45 H6         13.1781   53.2935   23.0166 H         1 NIL         0.0340
     46 H7         16.9043   54.1017   19.4355 H         1 NIL         0.1223
     47 H8         18.6760   54.9452   19.9999 H         1 NIL         0.0700
     48 H9         20.5141   58.1236   22.2596 H         1 NIL         0.0664
     49 H10        17.9251   59.2437   26.3308 H         1 NIL         0.0556
     50 H11        17.9313   60.6989   28.3352 H         1 NIL         0.0538
     51 H12        18.6169   62.6547   29.4643 H         1 NIL         0.0379
     52 H13        18.7353   64.0998   28.4040 H         1 NIL         0.0379
     53 H14        20.2280   63.2759   28.9693 H         1 NIL         0.0379
     54 H15        20.3082   62.1218   24.2114 H         1 NIL         0.0565
     55 H16        21.2435   63.9203   26.9122 H         1 NIL         0.2160
     56 H17        17.8664   66.0265   23.3932 H         1 NIL         0.0893
     57 H18        19.6519   67.7506   23.0636 H         1 NIL         0.0677
     58 H19        21.1427   68.8247   22.6609 H         1 NIL         0.0773
     59 H20        23.0894   70.3948   22.3548 H         1 NIL         0.0718
     60 H21        25.1403   70.0473   23.7312 H         1 NIL         0.0847
     61 H22        23.4379   66.7030   25.6507 H         1 NIL         0.0864
@<TRIPOS>BOND
     1    1    2 2  
     2    2    3 am 
     3    2   20 1  
     4    3    4 1  
     5    4    5 ar 
     6    4   14 ar 
     7    5    6 ar 
     8    6    7 1  
     9    6   13 ar 
    10    7    8 1  
    11    7   12 1  
    12    8    9 2  
    13    9   10 1  
    14    9   11 1  
    15   11   12 2  
    16   13   15 ar 
    17   14   15 ar 
    18   15   16 1  
    19   16   17 1  
    20   16   18 1  
    21   16   19 1  
    22   20   21 ar 
    23   20   26 ar 
    24   21   22 ar 
    25   22   23 ar 
    26   23   24 1  
    27   23   25 ar 
    28   25   26 ar 
    29   25   27 1  
    30   27   28 1  
    31   28   29 ar 
    32   28   33 ar 
    33   29   30 ar 
    34   30   31 ar 
    35   31   32 ar 
    36   32   33 ar 
    37   32   34 1  
    38   34   35 ar 
    39   34   39 ar 
    40   35   36 ar 
    41   36   37 ar 
    42   37   38 ar 
    43   38   39 ar 
    44    3   40 1  
    45    5   41 1  
    46    8   42 1  
    47   10   43 1  
    48   10   44 1  
    49   10   45 1  
    50   12   46 1  
    51   13   47 1  
    52   14   48 1  
    53   21   49 1  
    54   22   50 1  
    55   24   51 1  
    56   24   52 1  
    57   24   53 1  
    58   26   54 1  
    59   27   55 1  
    60   30   56 1  
    61   31   57 1  
    62   35   58 1  
    63   36   59 1  
    64   37   60 1  
    65   39   61 1  
@<TRIPOS>SUBSTRUCTURE
     1 NIL         1

