### 
### Created by X-TOOL on Mon Sep 10 21:13:02 2018
### 

@<TRIPOS>MOLECULE
3gpj_ligand
   77    77     1     0     0
SMALL
GAST_HUCK


@<TRIPOS>ATOM
      1 C8         58.4080 -134.7200   34.8370 C.2       1 SY2         0.2614
      2 C6         53.4990 -133.8200   34.3290 C.3       1 SY2        -0.0590
      3 C5         55.3630 -132.4710   35.4030 C.3       1 SY2        -0.0590
      4 C4         55.0120 -133.3770   34.2130 C.3       1 SY2        -0.0120
      5 O2         56.2100 -135.3210   31.8640 O.co2     1 SY2        -0.5666
      6 C1         55.7490 -135.5250   32.9990 C.2       1 SY2         0.0601
      7 C3         56.0320 -134.5800   34.1770 C.3       1 SY2         0.0970
      8 O35        54.9720 -136.5980   33.2820 O.co2     1 SY2        -0.5666
      9 N7         57.4300 -134.1120   34.0690 N.am      1 SY2        -0.2573
     10 N36        59.7200 -134.3110   34.7640 N.am      1 SY2        -0.2515
     11 C11        60.8080 -134.9370   35.5740 C.3       1 SY2         0.1336
     12 C15        60.5250 -134.8150   37.0350 C.2       1 SY2         0.2039
     13 N17        60.8820 -135.8770   37.8310 N.am      1 SY2        -0.2637
     14 C18        60.6490 -135.7740   39.2640 C.3       1 SY2         0.1308
     15 C34        59.5800 -136.8200   39.6980 C.3       1 SY2        -0.0123
     16 C33        59.7260 -138.1980   38.9890 C.3       1 SY2        -0.0470
     17 C32        59.1640 -139.3720   39.8620 C.3       1 SY2        -0.0325
     18 C31        60.0440 -139.6580   41.1190 C.3       1 SY2         0.0309
     19 N30        59.6160 -138.8720   42.2730 N.am      1 SY2        -0.2870
     20 C28        60.4430 -138.2200   43.1580 C.2       1 SY2         0.1760
     21 O29        59.9300 -137.6070   44.0900 O.2       1 SY2        -0.3971
     22 C27        61.9730 -138.1960   43.0930 C.3       1 SY2         0.0393
     23 C26        62.5990 -136.8320   43.5280 C.3       1 SY2        -0.0127
     24 C22        63.0540 -136.0130   42.2840 C.3       1 SY2         0.0464
     25 C23        63.6390 -134.6080   42.6930 C.3       1 SY2        -0.0235
     26 C25        64.5510 -133.9970   41.5790 C.3       1 SY2        -0.0606
     27 C24        62.5150 -133.5430   43.0590 C.3       1 SY2        -0.0606
     28 N21        61.9030 -135.8630   41.3920 N.am      1 SY2        -0.2816
     29 C19        61.9610 -135.9930   40.0240 C.2       1 SY2         0.2019
     30 O20        63.0060 -136.2540   39.3870 O.2       1 SY2        -0.3945
     31 O16        60.0110 -133.8050   37.4520 O.2       1 SY2        -0.3944
     32 C12        62.2350 -134.3470   35.3170 C.3       1 SY2        -0.0065
     33 C14        62.5940 -134.5310   33.8330 C.3       1 SY2        -0.0585
     34 C13        62.3010 -132.8450   35.6530 C.3       1 SY2        -0.0585
     35 O9         58.0780 -135.6310   35.5820 O.2       1 SY2        -0.4006
     36 H1         52.8561 -132.9276   34.3479 H         1 SY2         0.0234
     37 H2         53.3553 -134.3951   35.2556 H         1 SY2         0.0234
     38 H3         53.2327 -134.4454   33.4642 H         1 SY2         0.0234
     39 H4         56.4152 -132.1589   35.3284 H         1 SY2         0.0234
     40 H5         55.2101 -133.0232   36.3419 H         1 SY2         0.0234
     41 H6         54.7152 -131.5821   35.3907 H         1 SY2         0.0234
     42 H7         55.1272 -132.8049   33.2806 H         1 SY2         0.0335
     43 H8         55.9229 -135.1447   35.1147 H         1 SY2         0.0726
     44 H9         57.6665 -133.3646   33.4481 H         1 SY2         0.1869
     45 H10        59.9549 -133.5634   34.1427 H         1 SY2         0.1877
     46 H11        60.8339 -136.0048   35.3112 H         1 SY2         0.0799
     47 H12        61.2913 -136.6993   37.4358 H         1 SY2         0.1883
     48 H13        60.2721 -134.7663   39.4930 H         1 SY2         0.0800
     49 H14        58.5840 -136.4146   39.4665 H         1 SY2         0.0312
     50 H15        59.6688 -136.9771   40.7831 H         1 SY2         0.0312
     51 H16        60.7917 -138.3831   38.7893 H         1 SY2         0.0268
     52 H17        59.1745 -138.1678   38.0377 H         1 SY2         0.0268
     53 H18        59.1239 -140.2820   39.2453 H         1 SY2         0.0285
     54 H19        58.1489 -139.1094   40.1947 H         1 SY2         0.0285
     55 H20        61.0894 -139.4074   40.8859 H         1 SY2         0.0520
     56 H21        59.9701 -140.7266   41.3693 H         1 SY2         0.0520
     57 H22        58.6317 -138.8013   42.4346 H         1 SY2         0.1850
     58 H23        62.2799 -138.4043   42.0574 H         1 SY2         0.0503
     59 H24        62.3611 -138.9833   43.7559 H         1 SY2         0.0503
     60 H25        63.4697 -137.0235   44.1723 H         1 SY2         0.0312
     61 H26        61.8495 -136.2527   44.0871 H         1 SY2         0.0312
     62 H27        63.8414 -136.5738   41.7592 H         1 SY2         0.0560
     63 H28        64.2572 -134.7654   43.5891 H         1 SY2         0.0318
     64 H29        64.9326 -133.0206   41.9122 H         1 SY2         0.0233
     65 H30        63.9659 -133.8666   40.6567 H         1 SY2         0.0233
     66 H31        65.3960 -134.6739   41.3846 H         1 SY2         0.0233
     67 H32        61.8615 -133.9542   43.8425 H         1 SY2         0.0233
     68 H33        61.9171 -133.3184   42.1634 H         1 SY2         0.0233
     69 H34        62.9893 -132.6201   43.4242 H         1 SY2         0.0233
     70 H35        61.0166 -135.6522   41.8042 H         1 SY2         0.1855
     71 H36        62.9620 -134.8865   35.9418 H         1 SY2         0.0342
     72 H37        63.5962 -134.1186   33.6444 H         1 SY2         0.0234
     73 H38        61.8572 -134.0036   33.2094 H         1 SY2         0.0234
     74 H39        62.5856 -135.6024   33.5838 H         1 SY2         0.0234
     75 H40        62.0466 -132.6948   36.7126 H         1 SY2         0.0234
     76 H41        61.5855 -132.2965   35.0228 H         1 SY2         0.0234
     77 H42        63.3181 -132.4712   35.4636 H         1 SY2         0.0234
@<TRIPOS>BOND
     1    9    1 am 
     2    1   10 am 
     3    1   35 2  
     4    4    2 1  
     5    4    3 1  
     6    7    4 1  
     7    6    5 ar 
     8    7    6 1  
     9    6    8 ar 
    10    7    9 1  
    11   10   11 1  
    12   11   12 1  
    13   11   32 1  
    14   12   13 am 
    15   12   31 2  
    16   13   14 1  
    17   14   15 1  
    18   14   29 1  
    19   15   16 1  
    20   16   17 1  
    21   17   18 1  
    22   18   19 1  
    23   19   20 am 
    24   20   21 2  
    25   20   22 1  
    26   22   23 1  
    27   23   24 1  
    28   24   25 1  
    29   24   28 1  
    30   25   26 1  
    31   25   27 1  
    32   28   29 am 
    33   29   30 2  
    34   32   33 1  
    35   32   34 1  
    36    2   36 1  
    37    2   37 1  
    38    2   38 1  
    39    3   39 1  
    40    3   40 1  
    41    3   41 1  
    42    4   42 1  
    43    7   43 1  
    44    9   44 1  
    45   10   45 1  
    46   11   46 1  
    47   13   47 1  
    48   14   48 1  
    49   15   49 1  
    50   15   50 1  
    51   16   51 1  
    52   16   52 1  
    53   17   53 1  
    54   17   54 1  
    55   18   55 1  
    56   18   56 1  
    57   19   57 1  
    58   22   58 1  
    59   22   59 1  
    60   23   60 1  
    61   23   61 1  
    62   24   62 1  
    63   25   63 1  
    64   26   64 1  
    65   26   65 1  
    66   26   66 1  
    67   27   67 1  
    68   27   68 1  
    69   27   69 1  
    70   28   70 1  
    71   32   71 1  
    72   33   72 1  
    73   33   73 1  
    74   33   74 1  
    75   34   75 1  
    76   34   76 1  
    77   34   77 1  
@<TRIPOS>SUBSTRUCTURE
     1 SY2         1

