### 
### Created by X-TOOL on Mon Sep 10 21:13:00 2018
### 

@<TRIPOS>MOLECULE
3gqz_ligand
   30    31     1     0     0
SMALL
GAST_HUCK


@<TRIPOS>ATOM
      1 O18       -37.1580   13.5970   16.4040 O.2       1 GF7        -0.3868
      2 C16       -36.9260   13.6420   17.6020 C.2       1 GF7         0.1182
      3 C17       -37.7020   14.5660   18.4960 C.3       1 GF7         0.0082
      4 C9        -35.8430   12.7700   18.1740 C.ar      1 GF7         0.0163
      5 C8        -35.5760   12.7760   19.5440 C.ar      1 GF7        -0.0565
      6 C7        -34.5690   11.9670   20.0620 C.ar      1 GF7        -0.0344
      7 C10       -35.0950   11.9500   17.3260 C.ar      1 GF7        -0.0565
      8 C11       -34.0860   11.1390   17.8410 C.ar      1 GF7        -0.0344
      9 C6        -33.8260   11.1500   19.2110 C.ar      1 GF7         0.0753
     10 N1        -32.8160   10.3450   19.7500 N.am      1 GF7        -0.2143
     11 C2        -32.9860    9.0460   19.9330 C.2       1 GF7         0.2101
     12 O12       -33.9690    8.3770   19.6320 O.2       1 GF7        -0.3835
     13 C5        -31.5480   10.9320   20.1440 C.3       1 GF7         0.0733
     14 C4        -30.7960    9.6770   20.6010 C.3       1 GF7         0.0547
     15 C3        -31.7540    8.4810   20.5950 C.3       1 GF7         0.0604
     16 C13       -30.1750    9.8910   21.9570 C.2       1 GF7         0.0426
     17 O14       -30.0970   11.0500   22.4210 O.co2     1 GF7        -0.5685
     18 O15       -29.7250    8.8930   22.5690 O.co2     1 GF7        -0.5685
     19 H1        -37.3461   14.4591   19.5313 H         1 GF7         0.0446
     20 H2        -38.7709   14.3111   18.4476 H         1 GF7         0.0446
     21 H3        -37.5573   15.6047   18.1640 H         1 GF7         0.0446
     22 H4        -36.1537   13.4116   20.2053 H         1 GF7         0.0632
     23 H5        -34.3625   11.9721   21.1261 H         1 GF7         0.0518
     24 H6        -35.3006   11.9446   16.2617 H         1 GF7         0.0632
     25 H7        -33.5067   10.5035   17.1810 H         1 GF7         0.0518
     26 H8        -31.6712   11.6541   20.9646 H         1 GF7         0.0613
     27 H9        -31.0454   11.4218   19.2969 H         1 GF7         0.0613
     28 H10       -29.9865    9.4745   19.8843 H         1 GF7         0.0516
     29 H11       -31.3398    7.6441   20.0137 H         1 GF7         0.0530
     30 H12       -31.9733    8.1434   21.6187 H         1 GF7         0.0530
@<TRIPOS>BOND
     1    1    2 2  
     2    2    3 1  
     3    2    4 1  
     4    4    5 ar 
     5    4    7 ar 
     6    5    6 ar 
     7    6    9 ar 
     8    7    8 ar 
     9    8    9 ar 
    10    9   10 1  
    11   10   11 am 
    12   10   13 1  
    13   11   12 2  
    14   11   15 1  
    15   13   14 1  
    16   14   15 1  
    17   14   16 1  
    18   16   17 ar 
    19   16   18 ar 
    20    3   19 1  
    21    3   20 1  
    22    3   21 1  
    23    5   22 1  
    24    6   23 1  
    25    7   24 1  
    26    8   25 1  
    27   13   26 1  
    28   13   27 1  
    29   14   28 1  
    30   15   29 1  
    31   15   30 1  
@<TRIPOS>SUBSTRUCTURE
     1 GF7         1

