### 
### Created by X-TOOL on Mon Sep 10 21:13:01 2018
### 

@<TRIPOS>MOLECULE
3gr2_ligand
   24    25     1     0     0
SMALL
GAST_HUCK


@<TRIPOS>ATOM
      1 O11       -36.5460    5.7220    9.5850 O.2       1 GF4        -0.3786
      2 C3        -37.1100    5.7140   10.7430 C.2       1 GF4         0.2583
      3 C4        -36.5610    6.3630   11.9450 C.3       1 GF4         0.1082
      4 C12       -35.2720    7.1290   12.0900 C.3       1 GF4        -0.0220
      5 C13       -34.2690    6.1600   12.6930 C.3       1 GF4        -0.0605
      6 C5        -37.5930    6.0490   12.9870 C.2       1 GF4         0.0470
      7 C14       -37.5570    6.4660   14.4360 C.3       1 GF4        -0.0129
      8 N1        -38.5860    5.3240   12.4110 N.2       1 GF4        -0.1902
      9 N2        -38.2610    5.1410   11.0580 N.am      1 GF4        -0.0738
     10 C6        -39.0380    4.4600   10.2030 C.2       1 GF4         0.3125
     11 N10       -40.0810    3.7240   10.6250 N.pl3     1 GF4        -0.1325
     12 N9        -40.6200    3.1840    9.4440 N.2       1 GF4        -0.0827
     13 N8        -39.8430    3.6390    8.3590 N.2       1 GF4        -0.1651
     14 N7        -38.8280    4.4610    8.8740 N.2       1 GF4        -0.2136
     15 H1        -37.0401    7.3222   11.6995 H         1 GF4         0.0762
     16 H2        -35.4147    7.9933   12.7553 H         1 GF4         0.0319
     17 H3        -34.9224    7.4769   11.1068 H         1 GF4         0.0319
     18 H4        -33.3017    6.6673   12.8230 H         1 GF4         0.0233
     19 H5        -34.1434    5.2975   12.0220 H         1 GF4         0.0233
     20 H6        -34.6357    5.8138   13.6706 H         1 GF4         0.0233
     21 H7        -38.4529    6.0864   14.9491 H         1 GF4         0.0432
     22 H8        -37.5347    7.5638   14.5012 H         1 GF4         0.0432
     23 H9        -36.6573    6.0519   14.9145 H         1 GF4         0.0432
     24 H10       -40.4097    3.5872   11.5915 H         1 GF4         0.2664
@<TRIPOS>BOND
     1    1    2 2  
     2    2    3 1  
     3    2    9 am 
     4    3    4 1  
     5    3    6 1  
     6    4    5 1  
     7    6    7 1  
     8    6    8 2  
     9    8    9 1  
    10    9   10 1  
    11   10   11 1  
    12   10   14 2  
    13   11   12 1  
    14   12   13 2  
    15   13   14 1  
    16    3   15 1  
    17    4   16 1  
    18    4   17 1  
    19    5   18 1  
    20    5   19 1  
    21    5   20 1  
    22    7   21 1  
    23    7   22 1  
    24    7   23 1  
    25   11   24 1  
@<TRIPOS>SUBSTRUCTURE
     1 GF4         1

