### 
### Created by X-TOOL on Mon Sep 10 21:13:00 2018
### 

@<TRIPOS>MOLECULE
3grj_ligand
   21    22     1     0     0
SMALL
GAST_HUCK


@<TRIPOS>ATOM
      1 O14       -31.7210  -28.5470   12.2120 O.co2     1 G14        -0.5610
      2 C12       -31.0550  -27.9640   11.2900 C.2       1 G14         0.0846
      3 O13       -30.2490  -28.5620   10.4780 O.co2     1 G14        -0.5610
      4 C10       -31.2830  -26.5040   11.1720 C.2       1 G14         0.1076
      5 C9        -30.3850  -25.5130   10.7290 C.2       1 G14        -0.0022
      6 N8        -31.0630  -24.3000   10.8000 N.2       1 G14        -0.3166
      7 C7        -32.3150  -24.5870   11.2530 C.2       1 G14         0.1395
      8 N11       -32.4790  -25.9280   11.5040 N.pl3     1 G14        -0.2511
      9 C6        -33.2590  -23.4260   11.3960 C.ar      1 G14         0.0277
     10 C1        -33.6470  -22.7030   10.2730 C.ar      1 G14        -0.0479
     11 C2        -34.5130  -21.6190   10.3800 C.ar      1 G14        -0.0595
     12 C3        -35.0270  -21.2680   11.6170 C.ar      1 G14        -0.0604
     13 C4        -34.6510  -22.0060   12.7510 C.ar      1 G14        -0.0595
     14 C5        -33.7650  -23.0800   12.6400 C.ar      1 G14        -0.0479
     15 H1        -29.3596  -25.6665   10.3958 H         1 G14         0.0543
     16 H2        -33.3213  -26.3986   11.8646 H         1 G14         0.2382
     17 H3        -33.2685  -22.9887    9.2982 H         1 G14         0.0640
     18 H4        -34.7845  -21.0510    9.4975 H         1 G14         0.0621
     19 H5        -35.7120  -20.4329   11.7089 H         1 G14         0.0629
     20 H6        -35.0523  -21.7395   13.7221 H         1 G14         0.0621
     21 H7        -33.4744  -23.6401   13.5215 H         1 G14         0.0640
@<TRIPOS>BOND
     1    1    2 ar 
     2    2    3 ar 
     3    2    4 1  
     4    4    5 2  
     5    4    8 1  
     6    5    6 1  
     7    6    7 2  
     8    7    8 1  
     9    7    9 1  
    10    9   10 ar 
    11    9   14 ar 
    12   10   11 ar 
    13   11   12 ar 
    14   12   13 ar 
    15   13   14 ar 
    16    5   15 1  
    17    8   16 1  
    18   10   17 1  
    19   11   18 1  
    20   12   19 1  
    21   13   20 1  
    22   14   21 1  
@<TRIPOS>SUBSTRUCTURE
     1 G14         1

