### 
### Created by X-TOOL on Mon Sep 10 21:13:00 2018
### 

@<TRIPOS>MOLECULE
3gs6_ligand
   50    51     1     0     0
SMALL
GAST_HUCK


@<TRIPOS>ATOM
      1 OAR       -17.4930  -10.8880    1.3230 O.2       1 NP6        -0.3643
      2 CAP       -16.4370  -11.5020    1.4510 C.2       1 NP6         0.3788
      3 NAO       -15.9130  -12.2910    0.4990 N.am      1 NP6        -0.2057
      4 CAS       -16.4570  -12.5110   -0.7840 C.ar      1 NP6         0.0683
      5 CAT       -15.8770  -13.4880   -1.6080 C.ar      1 NP6        -0.0414
      6 CAU       -16.3760  -13.7280   -2.8900 C.ar      1 NP6        -0.0756
      7 CAV       -17.4540  -12.9780   -3.3610 C.ar      1 NP6        -0.0773
      8 CAW       -18.0280  -11.9940   -2.5440 C.ar      1 NP6        -0.0756
      9 CAX       -17.5330  -11.7540   -1.2600 C.ar      1 NP6        -0.0414
     10 OAQ       -15.6880  -11.3950    2.7110 O.3       1 NP6        -0.1506
     11 NAY       -16.0060  -10.6100    3.6510 N.2       1 NP6        -0.1541
     12 CAA       -15.2550  -10.4880    4.6720 C.2       1 NP6         0.1893
     13 OAL       -14.0550  -11.3110    4.7740 O.3       1 NP6        -0.2871
     14 CAE       -13.1640  -11.1530    5.8830 C.3       1 NP6         0.1375
     15 CAF       -12.5230  -12.5040    6.1410 C.3       1 NP6         0.0780
     16 OAM       -13.2260  -13.5000    6.3110 O.3       1 NP6        -0.3919
     17 CAD       -13.8670  -10.5790    7.1200 C.3       1 NP6         0.1187
     18 OAK       -12.9260  -10.4240    8.1970 O.3       1 NP6        -0.3859
     19 CAC       -14.5870   -9.2670    6.7610 C.3       1 NP6         0.1223
     20 OAJ       -15.1110   -8.5930    7.9270 O.3       1 NP6        -0.3842
     21 CAB       -15.7340   -9.5900    5.7870 C.3       1 NP6         0.1483
     22 NAI       -16.2770   -8.3270    5.3100 N.am      1 NP6        -0.2639
     23 CAG       -17.5060   -7.9370    5.6470 C.2       1 NP6         0.1785
     24 OAN       -18.2410   -8.6120    6.3500 O.2       1 NP6        -0.3969
     25 CAH       -17.9790   -6.6000    5.1100 C.3       1 NP6         0.0372
     26 C1        -19.4260   -6.7590    4.6550 C.3       1 NP6        -0.0389
     27 C2        -19.5010   -7.6780    3.4400 C.3       1 NP6        -0.0632
     28 H1        -15.0606  -12.7652    0.7193 H         1 NP6         0.2276
     29 H2        -15.0324  -14.0626   -1.2453 H         1 NP6         0.0501
     30 H3        -15.9286  -14.4922   -3.5152 H         1 NP6         0.0577
     31 H4        -17.8465  -13.1556   -4.3557 H         1 NP6         0.0487
     32 H5        -18.8654  -11.4128   -2.9128 H         1 NP6         0.0577
     33 H6        -17.9791  -10.9871   -0.6372 H         1 NP6         0.0501
     34 H7        -12.3735  -10.4437    5.5965 H         1 NP6         0.0708
     35 H8        -11.9056  -12.3942    7.0447 H         1 NP6         0.0588
     36 H9        -11.8752  -12.7172    5.2779 H         1 NP6         0.0588
     37 H10       -13.7870  -13.3652    7.0657 H         1 NP6         0.2095
     38 H11       -14.6311  -11.3000    7.4460 H         1 NP6         0.0653
     39 H12       -12.5532  -11.2703    8.4146 H         1 NP6         0.2100
     40 H13       -13.8700   -8.5963    6.2649 H         1 NP6         0.0672
     41 H14       -15.5453   -7.7915    7.6596 H         1 NP6         0.2103
     42 H15       -16.5252  -10.1245    6.3332 H         1 NP6         0.0821
     43 H16       -15.7194   -7.7427    4.7203 H         1 NP6         0.1888
     44 H17       -17.3515   -6.2966    4.2590 H         1 NP6         0.0502
     45 H18       -17.9182   -5.8377    5.9007 H         1 NP6         0.0502
     46 H19       -19.8334   -5.7724    4.3893 H         1 NP6         0.0287
     47 H20       -20.0186   -7.1918    5.4744 H         1 NP6         0.0287
     48 H21       -20.5493   -7.7829    3.1238 H         1 NP6         0.0231
     49 H22       -19.0965   -8.6667    3.7025 H         1 NP6         0.0231
     50 H23       -18.9113   -7.2472    2.6174 H         1 NP6         0.0231
@<TRIPOS>BOND
     1    1    2 2  
     2    2    3 am 
     3    2   10 1  
     4    3    4 1  
     5    4    5 ar 
     6    4    9 ar 
     7    5    6 ar 
     8    6    7 ar 
     9    7    8 ar 
    10    8    9 ar 
    11   10   11 1  
    12   11   12 2  
    13   12   13 1  
    14   12   21 1  
    15   13   14 1  
    16   14   15 1  
    17   14   17 1  
    18   15   16 1  
    19   17   18 1  
    20   17   19 1  
    21   19   20 1  
    22   19   21 1  
    23   21   22 1  
    24   22   23 am 
    25   23   24 2  
    26   23   25 1  
    27   25   26 1  
    28   26   27 1  
    29    3   28 1  
    30    5   29 1  
    31    6   30 1  
    32    7   31 1  
    33    8   32 1  
    34    9   33 1  
    35   14   34 1  
    36   15   35 1  
    37   15   36 1  
    38   16   37 1  
    39   17   38 1  
    40   18   39 1  
    41   19   40 1  
    42   20   41 1  
    43   21   42 1  
    44   22   43 1  
    45   25   44 1  
    46   25   45 1  
    47   26   46 1  
    48   26   47 1  
    49   27   48 1  
    50   27   49 1  
    51   27   50 1  
@<TRIPOS>SUBSTRUCTURE
     1 NP6         1

