### 
### Created by X-TOOL on Mon Sep 10 21:13:01 2018
### 

@<TRIPOS>MOLECULE
3gs7_ligand
   28    28     1     0     0
SMALL
GAST_HUCK


@<TRIPOS>ATOM
      1 CAA        20.9850   39.4800    8.3190 C.3       1 8BD         0.0604
      2 OAL        21.0750   40.3020    9.4670 O.3       1 8BD        -0.3185
      3 CAP        21.0760   41.6800    9.3190 C.ar      1 8BD         0.1013
      4 CAH        21.0320   42.5780   10.4310 C.ar      1 8BD        -0.0321
      5 CAF        21.0770   43.9650   10.2400 C.ar      1 8BD        -0.0711
      6 CAE        21.1680   44.4690    8.9520 C.ar      1 8BD        -0.0730
      7 CAG        21.2160   43.5900    7.8480 C.ar      1 8BD        -0.0624
      8 CAO        21.1680   42.1890    8.0230 C.ar      1 8BD         0.0191
      9 CAD        21.2180   41.2780    6.9380 C.2       1 8BD         0.0394
     10 NAK        21.3850   41.4700    5.6500 N.2       1 8BD        -0.1596
     11 OAM        21.5630   42.6700    5.0660 O.3       1 8BD        -0.2368
     12 CAI        21.7630   42.4320    3.6810 C.3       1 8BD         0.1048
     13 CAJ        20.4060   42.3800    3.0190 C.3       1 8BD         0.0310
     14 CAN        20.5630   42.1010    1.5480 C.2       1 8BD         0.0376
     15 OAC        19.7260   41.3490    0.9690 O.co2     1 8BD        -0.5689
     16 OAB        21.5180   42.6550    1.0070 O.co2     1 8BD        -0.5689
     17 H1         20.9980   38.4229    8.6230 H         1 8BD         0.0580
     18 H2         21.8393   39.6813    7.6560 H         1 8BD         0.0580
     19 H3         20.0477   39.6965    7.7855 H         1 8BD         0.0580
     20 H4         20.9628   42.1795   11.4367 H         1 8BD         0.0538
     21 H5         21.0411   44.6367   11.0901 H         1 8BD         0.0583
     22 H6         21.2024   45.5406    8.7919 H         1 8BD         0.0525
     23 H7         21.2912   43.9982    6.8466 H         1 8BD         0.0583
     24 H8         21.0964   40.2341    7.2234 H         1 8BD         0.0760
     25 H9         22.2858   41.4748    3.5377 H         1 8BD         0.0666
     26 H10        22.3611   43.2454    3.2444 H         1 8BD         0.0666
     27 H11        19.8969   43.3456    3.1546 H         1 8BD         0.0459
     28 H12        19.8060   41.5813    3.4795 H         1 8BD         0.0459
@<TRIPOS>BOND
     1    1    2 1  
     2    2    3 1  
     3    3    4 ar 
     4    3    8 ar 
     5    4    5 ar 
     6    5    6 ar 
     7    6    7 ar 
     8    7    8 ar 
     9    8    9 1  
    10    9   10 2  
    11   10   11 1  
    12   11   12 1  
    13   12   13 1  
    14   13   14 1  
    15   14   15 ar 
    16   14   16 ar 
    17    1   17 1  
    18    1   18 1  
    19    1   19 1  
    20    4   20 1  
    21    5   21 1  
    22    6   22 1  
    23    7   23 1  
    24    9   24 1  
    25   12   25 1  
    26   12   26 1  
    27   13   27 1  
    28   13   28 1  
@<TRIPOS>SUBSTRUCTURE
     1 8BD         1

