### 
### Created by X-TOOL on Mon Sep 10 21:13:00 2018
### 

@<TRIPOS>MOLECULE
3gsg_ligand
   31    33     1     0     0
SMALL
GAST_HUCK


@<TRIPOS>ATOM
      1 O10       -37.2770    6.1430   15.9900 O.2       1 GF1        -0.3854
      2 C7        -36.3210    5.8560   15.2920 C.2       1 GF1         0.2146
      3 N8        -35.0090    5.8450   15.6430 N.am      1 GF1        -0.1688
      4 C12       -34.2350    5.2290   16.7580 C.3       1 GF1         0.1184
      5 C14       -34.4000    5.4670   18.2430 C.2       1 GF1         0.0648
      6 O16       -33.3780    5.5760   18.9750 O.co2     1 GF1        -0.5662
      7 O15       -35.5320    5.4500   18.7300 O.co2     1 GF1        -0.5662
      8 C13       -34.3730    3.7320   16.6000 C.3       1 GF1        -0.0253
      9 C2        -36.4310    5.4170   13.8310 C.3       1 GF1         0.0772
     10 C3        -35.0410    5.7500   13.4180 C.3       1 GF1         0.0772
     11 C9        -34.3160    6.2860   14.6160 C.2       1 GF1         0.2146
     12 O11       -33.2810    6.9480   14.6100 O.2       1 GF1        -0.3854
     13 C1        -37.1510    6.0870   12.6390 C.3       1 GF1        -0.0180
     14 C6        -36.7240    5.2720   11.3820 C.3       1 GF1        -0.0473
     15 C5        -35.1820    5.5380   11.1370 C.3       1 GF1        -0.0473
     16 C17       -36.3300    7.3240   12.2990 C.3       1 GF1        -0.0423
     17 C4        -34.9810    6.6250   12.1960 C.3       1 GF1        -0.0180
     18 H1        -33.1931    5.5133   16.5490 H         1 GF1         0.0780
     19 H2        -33.8169    3.2258   17.4028 H         1 GF1         0.0274
     20 H3        -33.9669    3.4273   15.6242 H         1 GF1         0.0274
     21 H4        -35.4356    3.4535   16.6582 H         1 GF1         0.0274
     22 H5        -36.6785    4.3453   13.8181 H         1 GF1         0.0574
     23 H6        -34.5474    4.8072   13.1397 H         1 GF1         0.0574
     24 H7        -38.2307    6.2384   12.7848 H         1 GF1         0.0330
     25 H8        -37.3045    5.6007   10.5074 H         1 GF1         0.0270
     26 H9        -36.8964    4.1994   11.5545 H         1 GF1         0.0270
     27 H10       -34.9791    5.9049   10.1200 H         1 GF1         0.0270
     28 H11       -34.5691    4.6461   11.3342 H         1 GF1         0.0270
     29 H12       -36.3536    8.0784   13.0992 H         1 GF1         0.0274
     30 H13       -36.6384    7.7865   11.3498 H         1 GF1         0.0274
     31 H14       -34.1027    7.2761   12.0754 H         1 GF1         0.0330
@<TRIPOS>BOND
     1    1    2 2  
     2    2    3 am 
     3    2    9 1  
     4    3    4 1  
     5    3   11 am 
     6    4    5 1  
     7    4    8 1  
     8    5    6 ar 
     9    5    7 ar 
    10    9   10 1  
    11    9   13 1  
    12   10   11 1  
    13   10   17 1  
    14   11   12 2  
    15   13   14 1  
    16   13   16 1  
    17   14   15 1  
    18   15   17 1  
    19   16   17 1  
    20    4   18 1  
    21    8   19 1  
    22    8   20 1  
    23    8   21 1  
    24    9   22 1  
    25   10   23 1  
    26   13   24 1  
    27   14   25 1  
    28   14   26 1  
    29   15   27 1  
    30   15   28 1  
    31   16   29 1  
    32   16   30 1  
    33   17   31 1  
@<TRIPOS>SUBSTRUCTURE
     1 GF1         1

