### 
### Created by X-TOOL on Mon Sep 10 21:12:46 2018
### 

@<TRIPOS>MOLECULE
3gss_ligand
   66    66     1     0     0
SMALL
GAST_HUCK


@<TRIPOS>ATOM
      1 N1         14.7060   10.8820   23.3290 N.4       1 GSH         0.2328
      2 CA1        14.5890   10.0180   24.5180 C.3       1 GSH         0.0304
      3 C1         15.6900    8.9740   24.4280 C.2       1 GSH         0.0846
      4 O11        16.1050    8.4440   25.4750 O.co2     1 GSH        -0.5643
      5 O12        16.1610    8.7210   23.2970 O.co2     1 GSH        -0.5643
      6 CB1        13.2180    9.3520   24.5340 C.3       1 GSH         0.0193
      7 CG1        12.9620    8.5240   25.7690 C.3       1 GSH         0.0441
      8 CD1        11.5130    8.1270   25.9040 C.2       1 GSH         0.1785
      9 OE1        10.7590    8.1250   24.9380 O.2       1 GSH        -0.3969
     10 N2         11.1200    7.7560   27.1100 N.am      1 GSH        -0.2648
     11 CA2         9.7400    7.3830   27.3600 C.3       1 GSH         0.1397
     12 C2          9.3730    7.7640   28.7820 C.2       1 GSH         0.2040
     13 O2         10.2510    7.9770   29.6200 O.2       1 GSH        -0.3944
     14 CB2         9.5250    5.8930   27.1140 C.3       1 GSH         0.0342
     15 SG2        10.2670    4.8490   28.3470 S.3       1 GSH        -0.1534
     16 N3          8.0740    7.8490   29.0420 N.am      1 GSH        -0.2722
     17 CA3         7.6000    8.2300   30.3560 C.3       1 GSH         0.0833
     18 C3          6.9270    9.5890   30.2680 C.2       1 GSH         0.0570
     19 O31         6.1760    9.9410   31.1900 O.co2     1 GSH        -0.5669
     20 O32         7.1240   10.3010   29.2620 O.co2     1 GSH        -0.5669
     21 C1          3.8860    5.0690   25.4440 C.ar      1 EAA         0.1140
     22 O2          2.6310    5.5870   25.1570 O.3       1 EAA        -0.2994
     23 C2          4.9500    5.4220   24.5780 C.ar      1 EAA         0.0882
     24 CL1         4.6470    6.5010   23.2010 Cl        1 EAA        -0.0767
     25 C3          6.2520    4.9130   24.8010 C.ar      1 EAA         0.0653
     26 CL2         7.5490    5.4180   23.6940 Cl        1 EAA        -0.0664
     27 C4          6.4940    4.0200   25.8960 C.ar      1 EAA         0.0358
     28 C5          5.4100    3.6880   26.7440 C.ar      1 EAA        -0.0509
     29 C6          4.1360    4.1990   26.5170 C.ar      1 EAA        -0.0256
     30 C7          7.8590    3.3760   26.1530 C.2       1 EAA         0.1289
     31 O1          8.6650    3.1560   25.2470 O.2       1 EAA        -0.3837
     32 C8          8.3570    2.9460   27.5890 C.3       1 EAA         0.0409
     33 C9          7.8640    1.5480   28.0140 C.3       1 EAA        -0.0371
     34 C10         8.3880    0.9600   29.3190 C.3       1 EAA        -0.0630
     35 C11         9.8630    3.1710   27.8400 C.3       1 EAA         0.0117
     36 C12         1.5370    4.8070   24.5820 C.3       1 EAA         0.1241
     37 C13         0.7460    5.5470   23.5080 C.2       1 EAA         0.0656
     38 O          -0.4730    5.2960   23.3800 O.co2     1 EAA        -0.5662
     39 OXT         1.3270    6.4210   22.8180 O.co2     1 EAA        -0.5662
     40 H1         13.9882   11.5892   23.3556 H         1 GSH         0.2010
     41 H2         14.5975   10.3243   22.4964 H         1 GSH         0.2010
     42 H3         15.6122   11.3233   23.3221 H         1 GSH         0.2010
     43 H4         14.7151   10.6160   25.4326 H         1 GSH         0.1026
     44 H5         13.1396    8.6968   23.6539 H         1 GSH         0.0363
     45 H6         12.4496   10.1370   24.4764 H         1 GSH         0.0363
     46 H7         13.2517    9.1100   26.6537 H         1 GSH         0.0505
     47 H8         13.5748    7.6120   25.7164 H         1 GSH         0.0505
     48 H9         11.7816    7.7320   27.8594 H         1 GSH         0.1883
     49 H10         9.0931    7.9429   26.6686 H         1 GSH         0.0808
     50 H11         9.9583    5.6367   26.1360 H         1 GSH         0.0424
     51 H12         8.4428    5.6964   27.0985 H         1 GSH         0.0424
     52 H13         7.4129    7.6468   28.3195 H         1 GSH         0.1873
     53 H14         8.4497    8.2844   31.0524 H         1 GSH         0.0689
     54 H15         6.8770    7.4839   30.7172 H         1 GSH         0.0689
     55 H16         5.5755    3.0241   27.5848 H         1 GSH         0.0647
     56 H17         3.3238    3.9210   27.1790 H         1 GSH         0.0559
     57 H18         7.8548    3.6423   28.2768 H         1 GSH         0.0526
     58 H19         8.1365    0.8487   27.2098 H         1 GSH         0.0289
     59 H20         6.7685    1.6012   28.0981 H         1 GSH         0.0289
     60 H21         7.9442   -0.0339   29.4776 H         1 GSH         0.0231
     61 H22         8.1149    1.6210   30.1548 H         1 GSH         0.0231
     62 H23         9.4829    0.8685   29.2664 H         1 GSH         0.0231
     63 H24        10.4074    2.9482   26.9105 H         1 GSH         0.0403
     64 H25        10.1905    2.4806   28.6312 H         1 GSH         0.0403
     65 H26         0.8459    4.5308   25.3920 H         1 GSH         0.0788
     66 H27         1.9599    3.8957   24.1340 H         1 GSH         0.0788
@<TRIPOS>BOND
     1    2    1 1  
     2    2    3 1  
     3    6    2 1  
     4    3    4 ar 
     5    3    5 ar 
     6    7    6 1  
     7    8    7 1  
     8    8    9 2  
     9   10    8 am 
    10   11   10 1  
    11   11   12 1  
    12   14   11 1  
    13   12   13 2  
    14   12   16 am 
    15   15   14 1  
    16   16   17 1  
    17   17   18 1  
    18   18   19 ar 
    19   18   20 ar 
    20   21   22 1  
    21   23   21 ar 
    22   29   21 ar 
    23   22   36 1  
    24   23   24 1  
    25   25   23 ar 
    26   25   26 1  
    27   27   25 ar 
    28   27   28 ar 
    29   30   27 1  
    30   28   29 ar 
    31   30   31 2  
    32   32   30 1  
    33   32   33 1  
    34   35   32 1  
    35   33   34 1  
    36   35   15 1  
    37   36   37 1  
    38   37   38 ar 
    39   37   39 ar 
    40    1   40 1  
    41    1   41 1  
    42    1   42 1  
    43    2   43 1  
    44    6   44 1  
    45    6   45 1  
    46    7   46 1  
    47    7   47 1  
    48   10   48 1  
    49   11   49 1  
    50   14   50 1  
    51   14   51 1  
    52   16   52 1  
    53   17   53 1  
    54   17   54 1  
    55   28   55 1  
    56   29   56 1  
    57   32   57 1  
    58   33   58 1  
    59   33   59 1  
    60   34   60 1  
    61   34   61 1  
    62   34   62 1  
    63   35   63 1  
    64   35   64 1  
    65   36   65 1  
    66   36   66 1  
@<TRIPOS>SUBSTRUCTURE
     1 GSH         1

