### 
### Created by X-TOOL on Mon Sep 10 21:12:44 2018
### 

@<TRIPOS>MOLECULE
3gst_ligand
   61    63     1     0     0
SMALL
GAST_HUCK


@<TRIPOS>ATOM
      1 N1         14.5620   14.7450   25.0920 N.4       1 GPR         0.2328
      2 CA1        14.1510   15.3770   26.3990 C.3       1 GPR         0.0304
      3 C1         13.1440   16.5080   26.1890 C.2       1 GPR         0.0846
      4 O1         12.4380   16.8980   27.1110 O.co2     1 GPR        -0.5643
      5 OT1        13.1400   17.0330   24.9680 O.co2     1 GPR        -0.5643
      6 CB1        15.3740   16.0750   27.1080 C.3       1 GPR         0.0193
      7 CG1        15.7930   15.1850   28.2290 C.3       1 GPR         0.0441
      8 CD1        16.7670   15.6900   29.2190 C.2       1 GPR         0.1785
      9 OE1        17.9750   15.5180   28.9210 O.2       1 GPR        -0.3969
     10 N2         16.2950   16.2790   30.3300 N.am      1 GPR        -0.2648
     11 CA2        17.2090   16.9690   31.2690 C.3       1 GPR         0.1399
     12 C2         16.9640   16.3990   32.6940 C.2       1 GPR         0.2040
     13 O2         17.5550   16.9260   33.6090 O.2       1 GPR        -0.3944
     14 CB2        17.0910   18.5080   31.2710 C.3       1 GPR         0.0367
     15 SG2        17.3250   19.1560   29.6490 S.3       1 GPR        -0.1337
     16 N3         16.2670   15.3090   32.7800 N.am      1 GPR        -0.2722
     17 CA3        15.8910   14.8170   34.1340 C.3       1 GPR         0.0833
     18 C3         16.6510   13.5810   34.4670 C.2       1 GPR         0.0570
     19 O3         17.5230   13.0370   33.7730 O.co2     1 GPR        -0.5669
     20 OT3        16.4220   12.9510   35.6130 O.co2     1 GPR        -0.5669
     21 CA4        19.0120   19.0640   29.8780 C.3       1 GPR         0.0757
     22 CB4        19.4670   20.4270   30.3270 C.ar      1 GPR        -0.0181
     23 CG4        19.6360   20.6660   31.7170 C.ar      1 GPR        -0.0589
     24 CD4        20.0880   21.8980   32.1800 C.ar      1 GPR        -0.0692
     25 CE4        20.3590   22.9100   31.2340 C.ar      1 GPR        -0.0690
     26 CZ4        20.2180   22.6990   29.8620 C.ar      1 GPR        -0.0618
     27 CH4        19.7920   21.4440   29.3930 C.ar      1 GPR        -0.0174
     28 CH5        19.5880   21.1600   27.9290 C.ar      1 GPR        -0.0161
     29 CZ5        19.5340   22.2300   26.9870 C.ar      1 GPR        -0.0618
     30 CE5        19.3350   21.9120   25.6510 C.ar      1 GPR        -0.0690
     31 CD5        19.1970   20.5950   25.2170 C.ar      1 GPR        -0.0691
     32 CG5        19.3050   19.5510   26.1400 C.ar      1 GPR        -0.0575
     33 CB5        19.5000   19.8500   27.4870 C.ar      1 GPR        -0.0041
     34 CA5        19.5280   18.6830   28.4710 C.3       1 GPR         0.1113
     35 O5         20.9200   18.3460   28.6100 O.3       1 GPR        -0.3758
     36 H1         15.2242   14.0061   25.2697 H         1 GPR         0.2010
     37 H2         14.9870   15.4420   24.5007 H         1 GPR         0.2010
     38 H3         13.7495   14.3646   24.6325 H         1 GPR         0.2010
     39 H4         13.7226   14.6011   27.0505 H         1 GPR         0.1026
     40 H5         15.0736   17.0585   27.4984 H         1 GPR         0.0363
     41 H6         16.2025   16.2008   26.3955 H         1 GPR         0.0363
     42 H7         16.2307   14.2824   27.7777 H         1 GPR         0.0505
     43 H8         14.8821   14.9133   28.7826 H         1 GPR         0.0505
     44 H9         15.3147   16.2513   30.5255 H         1 GPR         0.1883
     45 H10        18.2388   16.7240   30.9699 H         1 GPR         0.0808
     46 H11        17.8562   18.9275   31.9407 H         1 GPR         0.0426
     47 H12        16.0917   18.7926   31.6322 H         1 GPR         0.0426
     48 H13        15.9892   14.8117   31.9581 H         1 GPR         0.1873
     49 H14        14.8136   14.5960   34.1530 H         1 GPR         0.0689
     50 H15        16.1191   15.5942   34.8783 H         1 GPR         0.0689
     51 H16        19.2934   18.3039   30.6217 H         1 GPR         0.0627
     52 H17        19.4099   19.8782   32.4265 H         1 GPR         0.0554
     53 H18        20.2284   22.0760   33.2400 H         1 GPR         0.0593
     54 H19        20.6871   23.8819   31.5846 H         1 GPR         0.0559
     55 H20        20.4356   23.4977   29.1621 H         1 GPR         0.0595
     56 H21        19.6451   23.2603   27.3052 H         1 GPR         0.0595
     57 H22        19.2854   22.7130   24.9223 H         1 GPR         0.0559
     58 H23        19.0073   20.3818   24.1712 H         1 GPR         0.0593
     59 H24        19.2378   18.5201   25.8116 H         1 GPR         0.0555
     60 H25        18.9459   17.8375   28.0756 H         1 GPR         0.0796
     61 H26        21.3938   19.0960   28.9501 H         1 GPR         0.2134
@<TRIPOS>BOND
     1    1    2 1  
     2    2    6 1  
     3    2    3 1  
     4    3    5 ar 
     5    3    4 ar 
     6    6    7 1  
     7    7    8 1  
     8    8   10 am 
     9    8    9 2  
    10   10   11 1  
    11   11   14 1  
    12   11   12 1  
    13   12   16 am 
    14   12   13 2  
    15   16   17 1  
    16   17   18 1  
    17   18   20 ar 
    18   18   19 ar 
    19   14   15 1  
    20   15   21 1  
    21   21   22 1  
    22   21   34 1  
    23   34   35 1  
    24   34   33 1  
    25   33   32 ar 
    26   33   28 ar 
    27   28   29 ar 
    28   28   27 1  
    29   27   26 ar 
    30   27   22 ar 
    31   22   23 ar 
    32   23   24 ar 
    33   24   25 ar 
    34   25   26 ar 
    35   29   30 ar 
    36   30   31 ar 
    37   31   32 ar 
    38    1   36 1  
    39    1   37 1  
    40    1   38 1  
    41    2   39 1  
    42    6   40 1  
    43    6   41 1  
    44    7   42 1  
    45    7   43 1  
    46   10   44 1  
    47   11   45 1  
    48   14   46 1  
    49   14   47 1  
    50   16   48 1  
    51   17   49 1  
    52   17   50 1  
    53   21   51 1  
    54   23   52 1  
    55   24   53 1  
    56   25   54 1  
    57   26   55 1  
    58   29   56 1  
    59   30   57 1  
    60   31   58 1  
    61   32   59 1  
    62   34   60 1  
    63   35   61 1  
@<TRIPOS>SUBSTRUCTURE
     1 GPR         1

