### 
### Created by X-TOOL on Mon Sep 10 21:13:02 2018
### 

@<TRIPOS>MOLECULE
3gt9_ligand
   73    77     1     0     0
SMALL
GAST_HUCK


@<TRIPOS>ATOM
      1 O16        80.5260   62.0630   14.9220 O.2       1 516        -0.3941
      2 C15        80.8480   62.3490   13.7780 C.2       1 516         0.2072
      3 C8         82.0200   61.6510   13.1440 C.3       1 516         0.1341
      4 C9         81.5110   60.5290   12.2340 C.3       1 516        -0.0006
      5 C10        80.8980   59.3690   13.0190 C.3       1 516        -0.0460
      6 C11        80.3590   58.2930   12.0840 C.3       1 516        -0.0526
      7 C12        81.4490   57.7770   11.1490 C.3       1 516        -0.0530
      8 C13        82.1060   58.9230   10.3860 C.3       1 516        -0.0526
      9 C14        82.6270   59.9900   11.3440 C.3       1 516        -0.0460
     10 N7         82.9330   61.1350   14.1560 N.am      1 516        -0.2607
     11 C5         84.2610   61.1950   14.0560 C.2       1 516         0.2265
     12 O6         84.8450   61.6540   13.0890 O.2       1 516        -0.3907
     13 C3         85.0460   60.6330   15.2060 C.3       1 516         0.0637
     14 C4         85.1240   61.6510   16.3340 C.3       1 516        -0.0039
     15 N2         86.3820   60.2450   14.7900 N.4       1 516         0.2438
     16 C1         86.5510   59.0820   13.9390 C.3       1 516        -0.0428
     17 N17        80.1740   63.2600   13.0650 N.am      1 516        -0.2494
     18 C18        78.9940   63.9020   13.6370 C.3       1 516         0.1155
     19 C19        78.5650   64.9660   12.6290 C.3       1 516        -0.0105
     20 C20        79.7190   65.1120   11.7070 C.3       1 516        -0.0275
     21 C21        80.4380   63.7690   11.7230 C.3       1 516         0.0377
     22 C22        77.8710   62.9390   13.9260 C.2       1 516         0.1202
     23 S23        77.6080   61.5130   13.0980 S.3       1 516         0.0045
     24 C24        76.3070   61.2890   14.1180 C.2       1 516         0.0184
     25 C25        76.1160   62.2510   15.0320 C.2       1 516         0.0188
     26 N26        77.0230   63.2090   14.9080 N.2       1 516        -0.3131
     27 C27        74.9950   62.2610   16.0390 C.ar      1 516        -0.0145
     28 C28        73.7400   61.8380   15.5990 C.ar      1 516        -0.0588
     29 C29        72.6510   61.8240   16.4630 C.ar      1 516        -0.0656
     30 C30        72.8130   62.2410   17.7790 C.ar      1 516        -0.0583
     31 C31        74.0600   62.6690   18.2260 C.ar      1 516        -0.0210
     32 C33        74.1880   63.0810   19.5500 C.ar      1 516        -0.0556
     33 C32        75.1600   62.6850   17.3650 C.ar      1 516        -0.0133
     34 C36        76.3940   63.1240   17.8650 C.ar      1 516        -0.0546
     35 C35        76.5200   63.5360   19.1900 C.ar      1 516        -0.0621
     36 C34        75.4150   63.5160   20.0330 C.ar      1 516        -0.0622
     37 H1         82.5680   62.3787   12.5274 H         1 516         0.0803
     38 H2         80.7288   60.9541   11.5879 H         1 516         0.0348
     39 H3         80.0735   59.7514   13.6386 H         1 516         0.0270
     40 H4         81.6693   58.9273   13.6670 H         1 516         0.0270
     41 H5         79.5416   58.7172   11.4824 H         1 516         0.0265
     42 H6         79.9755   57.4551   12.6847 H         1 516         0.0265
     43 H7         81.0023   57.0756   10.4290 H         1 516         0.0265
     44 H8         82.2142   57.2554   11.7426 H         1 516         0.0265
     45 H9         81.3657   59.3766    9.7106 H         1 516         0.0265
     46 H10        82.9464   58.5276    9.7966 H         1 516         0.0265
     47 H11        83.4104   59.5500   11.9786 H         1 516         0.0270
     48 H12        83.0515   60.8196   10.7596 H         1 516         0.0270
     49 H13        82.5407   60.7115   14.9725 H         1 516         0.1885
     50 H14        84.5249   59.7381   15.5769 H         1 516         0.1096
     51 H15        85.7008   61.2285   17.1699 H         1 516         0.0310
     52 H16        84.1082   61.8970   16.6768 H         1 516         0.0310
     53 H17        85.6195   62.5635   15.9709 H         1 516         0.0310
     54 H18        86.9136   60.0749   15.6294 H         1 516         0.2032
     55 H19        86.7760   61.0304   14.2961 H         1 516         0.2032
     56 H20        87.6201   58.9368   13.7246 H         1 516         0.0777
     57 H21        86.0055   59.2351   12.9962 H         1 516         0.0777
     58 H22        86.1557   58.1924   14.4511 H         1 516         0.0777
     59 H23        79.2750   64.3878   14.5831 H         1 516         0.0821
     60 H24        78.3546   65.9181   13.1382 H         1 516         0.0320
     61 H25        77.6703   64.6387   12.0791 H         1 516         0.0320
     62 H26        80.3904   65.9097   12.0575 H         1 516         0.0288
     63 H27        79.3696   65.3469   10.6908 H         1 516         0.0288
     64 H28        80.0274   63.0936   10.9580 H         1 516         0.0525
     65 H29        81.5176   63.8985   11.5565 H         1 516         0.0525
     66 H30        75.6560   60.4190   14.0461 H         1 516         0.0744
     67 H31        73.6128   61.5166   14.5716 H         1 516         0.0581
     68 H32        71.6812   61.4898   16.1124 H         1 516         0.0606
     69 H33        71.9678   62.2329   18.4577 H         1 516         0.0585
     70 H34        73.3257   63.0620   20.2067 H         1 516         0.0615
     71 H35        77.2600   63.1431   17.2133 H         1 516         0.0623
     72 H36        77.4804   63.8723   19.5637 H         1 516         0.0609
     73 H37        75.5108   63.8387   21.0634 H         1 516         0.0616
@<TRIPOS>BOND
     1    1    2 2  
     2    2    3 1  
     3    2   17 am 
     4    3    4 1  
     5    3   10 1  
     6    4    5 1  
     7    4    9 1  
     8    5    6 1  
     9    6    7 1  
    10    7    8 1  
    11    8    9 1  
    12   10   11 am 
    13   11   12 2  
    14   11   13 1  
    15   13   14 1  
    16   13   15 1  
    17   15   16 1  
    18   17   18 1  
    19   17   21 1  
    20   18   19 1  
    21   18   22 1  
    22   19   20 1  
    23   20   21 1  
    24   22   23 1  
    25   22   26 2  
    26   23   24 1  
    27   24   25 2  
    28   25   26 1  
    29   25   27 1  
    30   27   28 ar 
    31   27   33 ar 
    32   28   29 ar 
    33   29   30 ar 
    34   30   31 ar 
    35   31   32 ar 
    36   31   33 ar 
    37   32   36 ar 
    38   33   34 ar 
    39   34   35 ar 
    40   35   36 ar 
    41    3   37 1  
    42    4   38 1  
    43    5   39 1  
    44    5   40 1  
    45    6   41 1  
    46    6   42 1  
    47    7   43 1  
    48    7   44 1  
    49    8   45 1  
    50    8   46 1  
    51    9   47 1  
    52    9   48 1  
    53   10   49 1  
    54   13   50 1  
    55   14   51 1  
    56   14   52 1  
    57   14   53 1  
    58   15   54 1  
    59   15   55 1  
    60   16   56 1  
    61   16   57 1  
    62   16   58 1  
    63   18   59 1  
    64   19   60 1  
    65   19   61 1  
    66   20   62 1  
    67   20   63 1  
    68   21   64 1  
    69   21   65 1  
    70   24   66 1  
    71   28   67 1  
    72   29   68 1  
    73   30   69 1  
    74   32   70 1  
    75   34   71 1  
    76   35   72 1  
    77   36   73 1  
@<TRIPOS>SUBSTRUCTURE
     1 516         1

