### 
### Created by X-TOOL on Mon Sep 10 21:13:02 2018
### 

@<TRIPOS>MOLECULE
3gta_ligand
   73    77     1     0     0
SMALL
GAST_HUCK


@<TRIPOS>ATOM
      1 O16        80.4330   61.7560   15.4270 O.2       1 851        -0.3941
      2 C15        80.7700   62.1380   14.2930 C.2       1 851         0.2074
      3 C8         81.9750   61.3850   13.6660 C.3       1 851         0.1341
      4 C9         81.5290   60.2760   12.6670 C.3       1 851        -0.0006
      5 C14        82.6820   59.6360   11.8340 C.3       1 851        -0.0460
      6 C13        82.1550   58.5610   10.8560 C.3       1 851        -0.0526
      7 C12        81.3870   57.4570   11.6180 C.3       1 851        -0.0530
      8 C11        80.2200   58.0420   12.4460 C.3       1 851        -0.0526
      9 C10        80.6940   59.1700   13.3930 C.3       1 851        -0.0460
     10 N7         82.9150   60.8590   14.6790 N.am      1 851        -0.2607
     11 C5         84.2370   61.0410   14.6090 C.2       1 851         0.2265
     12 O6         84.8010   61.5340   13.6320 O.2       1 851        -0.3907
     13 C3         85.0630   60.5500   15.8170 C.3       1 851         0.0637
     14 C4         85.0360   61.5460   16.9970 C.3       1 851        -0.0039
     15 N2         86.4270   60.1840   15.3400 N.4       1 851         0.2438
     16 C1         86.5950   58.9970   14.4650 C.3       1 851        -0.0428
     17 N17        80.0850   63.1360   13.6710 N.am      1 851        -0.2480
     18 C21        80.4050   63.7650   12.3760 C.3       1 851         0.0379
     19 C20        79.7530   65.1370   12.5130 C.3       1 851        -0.0273
     20 C19        78.4790   64.8370   13.2980 C.3       1 851        -0.0091
     21 C18        78.8720   63.7130   14.2760 C.3       1 851         0.1191
     22 C22        77.7280   62.7350   14.5760 C.2       1 851         0.1240
     23 N26        77.0680   62.7600   15.7460 N.2       1 851        -0.3042
     24 C25        76.1040   61.7730   15.7620 C.ar      1 851         0.0311
     25 C30        75.2040   61.4990   16.8200 C.ar      1 851        -0.0142
     26 C29        74.2910   60.4250   16.6210 C.ar      1 851        -0.0646
     27 C28        74.2730   59.6760   15.4400 C.ar      1 851        -0.0711
     28 C27        75.1600   59.9520   14.4060 C.ar      1 851        -0.0498
     29 C24        76.0830   61.0190   14.5860 C.ar      1 851         0.0539
     30 S23        77.2660   61.5220   13.4440 S.3       1 851         0.0106
     31 C31        75.2100   62.2320   18.0220 C.ar      1 851        -0.0220
     32 C36        76.4280   62.5490   18.6860 C.ar      1 851        -0.0557
     33 C35        76.4440   63.2730   19.8790 C.ar      1 851        -0.0622
     34 C34        75.2470   63.6920   20.4500 C.ar      1 851        -0.0626
     35 C33        74.0380   63.3990   19.8310 C.ar      1 851        -0.0622
     36 C32        74.0100   62.6790   18.6360 C.ar      1 851        -0.0557
     37 H1         82.5332   62.1295   13.0794 H         1 851         0.0803
     38 H2         80.8595   60.7645   11.9437 H         1 851         0.0348
     39 H3         83.4018   59.1690   12.5223 H         1 851         0.0270
     40 H4         83.1855   60.4258   11.2573 H         1 851         0.0270
     41 H5         83.0053   58.1082   10.3250 H         1 851         0.0265
     42 H6         81.4789   59.0348   10.1290 H         1 851         0.0265
     43 H7         82.0828   56.9418   12.2966 H         1 851         0.0265
     44 H8         80.9829   56.7369   10.8912 H         1 851         0.0265
     45 H9         79.7721   57.2373   13.0475 H         1 851         0.0265
     46 H10        79.4646   58.4493   11.7579 H         1 851         0.0265
     47 H11        79.8090   59.6411   13.8455 H         1 851         0.0270
     48 H12        81.3165   58.7244   14.1829 H         1 851         0.0270
     49 H13        82.5445   60.3436   15.4517 H         1 851         0.1885
     50 H14        84.5924   59.6261   16.1843 H         1 851         0.1096
     51 H15        85.6380   61.1476   17.8269 H         1 851         0.0310
     52 H16        83.9982   61.6890   17.3325 H         1 851         0.0310
     53 H17        85.4526   62.5108   16.6721 H         1 851         0.0310
     54 H18        86.9933   60.0282   16.1592 H         1 851         0.2032
     55 H19        86.7836   60.9776   14.8310 H         1 851         0.2032
     56 H20        87.6584   58.8764   14.2109 H         1 851         0.0777
     57 H21        86.0112   59.1355   13.5431 H         1 851         0.0777
     58 H22        86.2400   58.0994   14.9925 H         1 851         0.0777
     59 H23        79.9699   63.1987   11.5394 H         1 851         0.0525
     60 H24        81.4922   63.8528   12.2333 H         1 851         0.0525
     61 H25        79.5180   65.5630   11.5265 H         1 851         0.0288
     62 H26        80.4038   65.8302   13.0661 H         1 851         0.0288
     63 H27        77.6785   64.5003   12.6229 H         1 851         0.0322
     64 H28        78.1440   65.7289   13.8478 H         1 851         0.0322
     65 H29        79.1514   64.1645   15.2393 H         1 851         0.0843
     66 H30        73.5881   60.1802   17.4091 H         1 851         0.0561
     67 H31        73.5575   58.8692   15.3295 H         1 851         0.0555
     68 H32        75.1486   59.3718   13.4904 H         1 851         0.0568
     69 H33        77.3665   62.2200   18.2546 H         1 851         0.0615
     70 H34        77.3869   63.5082   20.3593 H         1 851         0.0615
     71 H35        75.2573   64.2485   21.3802 H         1 851         0.0610
     72 H36        73.1093   63.7323   20.2799 H         1 851         0.0615
     73 H37        73.0572   62.4574   18.1690 H         1 851         0.0615
@<TRIPOS>BOND
     1    1    2 2  
     2    2    3 1  
     3    2   17 am 
     4    3    4 1  
     5    3   10 1  
     6    4    5 1  
     7    4    9 1  
     8    5    6 1  
     9    6    7 1  
    10    7    8 1  
    11    8    9 1  
    12   10   11 am 
    13   11   12 2  
    14   11   13 1  
    15   13   14 1  
    16   13   15 1  
    17   15   16 1  
    18   17   18 1  
    19   17   21 1  
    20   18   19 1  
    21   19   20 1  
    22   20   21 1  
    23   21   22 1  
    24   22   23 2  
    25   22   30 1  
    26   23   24 1  
    27   24   25 ar 
    28   24   29 ar 
    29   25   26 ar 
    30   25   31 1  
    31   26   27 ar 
    32   27   28 ar 
    33   28   29 ar 
    34   29   30 1  
    35   31   32 ar 
    36   31   36 ar 
    37   32   33 ar 
    38   33   34 ar 
    39   34   35 ar 
    40   35   36 ar 
    41    3   37 1  
    42    4   38 1  
    43    5   39 1  
    44    5   40 1  
    45    6   41 1  
    46    6   42 1  
    47    7   43 1  
    48    7   44 1  
    49    8   45 1  
    50    8   46 1  
    51    9   47 1  
    52    9   48 1  
    53   10   49 1  
    54   13   50 1  
    55   14   51 1  
    56   14   52 1  
    57   14   53 1  
    58   15   54 1  
    59   15   55 1  
    60   16   56 1  
    61   16   57 1  
    62   16   58 1  
    63   18   59 1  
    64   18   60 1  
    65   19   61 1  
    66   19   62 1  
    67   20   63 1  
    68   20   64 1  
    69   21   65 1  
    70   26   66 1  
    71   27   67 1  
    72   28   68 1  
    73   32   69 1  
    74   33   70 1  
    75   34   71 1  
    76   35   72 1  
    77   36   73 1  
@<TRIPOS>SUBSTRUCTURE
     1 851         1

