### 
### Created by X-TOOL on Mon Sep 10 21:13:01 2018
### 

@<TRIPOS>MOLECULE
3gtc_ligand
   27    28     1     0     0
SMALL
GAST_HUCK


@<TRIPOS>ATOM
      1 C6         21.2240    4.0880   11.3600 C.3       1 GTC         0.0221
      2 C2         23.6620    4.6150   11.5230 C.3       1 GTC        -0.0508
      3 C5         21.1460    5.6220   11.2740 C.3       1 GTC         0.0254
      4 C4         22.1070    6.1300   10.2010 C.3       1 GTC        -0.0365
      5 C10        18.6190    2.1690    9.9100 C.2       1 GTC         0.1978
      6 O13        19.1490    5.9570    9.9930 O.co2     1 GTC        -0.5686
      7 C12        19.7450    6.1510   11.0740 C.2       1 GTC         0.0401
      8 O14        19.2200    6.7880   12.0160 O.co2     1 GTC        -0.5686
      9 C3         23.5410    5.8760   10.6680 C.3       1 GTC        -0.0510
     10 C1         22.6380    3.5700   11.1020 C.3       1 GTC        -0.0374
     11 C7         20.2660    3.3940   10.4610 C.2       1 GTC         0.0653
     12 N8         20.1930    3.3820    9.0980 N.2       1 GTC        -0.2155
     13 N9         19.1030    2.5740    8.7200 N.pl3     1 GTC        -0.1924
     14 N11        19.2820    2.6300   10.9610 N.2       1 GTC        -0.2840
     15 S15        17.2270    1.1000   10.1730 S.3       1 GTC        -0.0538
     16 H1         20.9562    3.8156   12.3915 H         1 GTC         0.0494
     17 H2         23.4945    4.8781   12.5778 H         1 GTC         0.0267
     18 H3         24.6724    4.1963   11.4055 H         1 GTC         0.0267
     19 H4         21.4950    6.0160   12.2399 H         1 GTC         0.0491
     20 H5         21.9534    7.2082   10.0468 H         1 GTC         0.0287
     21 H6         21.9247    5.5950    9.2573 H         1 GTC         0.0287
     22 H7         24.1860    5.7662    9.7837 H         1 GTC         0.0266
     23 H8         23.8768    6.7388   11.2619 H         1 GTC         0.0266
     24 H9         22.7570    3.3552   10.0298 H         1 GTC         0.0291
     25 H10        22.7993    2.6486   11.6807 H         1 GTC         0.0291
     26 H11        18.7626    2.3498    7.7741 H         1 GTC         0.2539
     27 H12        16.8336    0.8374    9.2828 H         1 GTC         0.1332
@<TRIPOS>BOND
     1    1    3 1  
     2    1   10 1  
     3   11    1 1  
     4    2    9 1  
     5   10    2 1  
     6    3    4 1  
     7    3    7 1  
     8    4    9 1  
     9    5   13 1  
    10   14    5 2  
    11    5   15 1  
    12    7    6 ar 
    13    7    8 ar 
    14   11   12 2  
    15   11   14 1  
    16   12   13 1  
    17    1   16 1  
    18    2   17 1  
    19    2   18 1  
    20    3   19 1  
    21    4   20 1  
    22    4   21 1  
    23    9   22 1  
    24    9   23 1  
    25   10   24 1  
    26   10   25 1  
    27   13   26 1  
    28   15   27 1  
@<TRIPOS>SUBSTRUCTURE
     1 GTC         1

