### 
### Created by X-TOOL on Mon Sep 10 21:13:01 2018
### 

@<TRIPOS>MOLECULE
3gur_ligand
   71    72     1     0     0
SMALL
GAST_HUCK


@<TRIPOS>ATOM
      1 C1         12.0480   -2.6040   11.0020 C.2       1 BYG         0.0846
      2 N1         11.7360   -2.2090   13.3580 N.4       1 BYG         0.2328
      3 S1          5.1230   -8.6280   13.7100 S.3       1 BYG        -0.2260
      4 C2         10.4640   -9.6260   13.3060 C.2       1 BYG         0.2039
      5 N2         10.7670   -7.2260   12.9830 N.am      1 BYG        -0.2649
      6 O2          9.6590  -10.7750   13.1720 O.2       1 BYG        -0.3944
      7 C3         13.2500  -11.4470   14.2170 C.2       1 BYG         0.0570
      8 N3         11.7920   -9.6740   13.3650 N.am      1 BYG        -0.2722
      9 CI          4.7470   -4.9620   14.5870 C.2       1 BYG         0.1382
     10 CL          5.4940   -6.2490   14.5960 C.2       1 BYG         0.0633
     11 O11        11.5610   -1.4820   10.7450 O.co2     1 BYG        -0.5643
     12 O12        12.1280   -3.4560   10.0910 O.co2     1 BYG        -0.5643
     13 O31        13.1120  -10.9330   15.3480 O.co2     1 BYG        -0.5669
     14 O32        14.0010  -12.4390   14.0910 O.co2     1 BYG        -0.5669
     15 CA1        12.5320   -2.9300   12.3840 C.3       1 BYG         0.0304
     16 NA1         4.6990   -4.5580   15.8590 N.2       1 BYG        -0.0777
     17 CA2         9.8400   -8.2640   13.3900 C.3       1 BYG         0.1383
     18 OA2         5.3260   -5.5430   16.6410 O.3       1 BYG        -0.0351
     19 CA3        12.5220  -10.8790   13.0230 C.3       1 BYG         0.0833
     20 NA3         5.8080   -6.6080   15.8470 N.2       1 BYG        -0.0719
     21 OA3         3.3150   -2.9430   11.6710 O.2       1 BYG         0.1951
     22 NA4         3.6430   -3.2290   12.9530 N.2       1 BYG         0.3368
     23 OA4         3.2180   -2.2530   13.8040 O.2       1 BYG         0.1951
     24 OA5        10.7660   -8.8840   16.9720 O.3       1 BYG        -0.3950
     25 CB1        12.3980   -4.4290   12.6280 C.3       1 BYG         0.0193
     26 CB2         8.5940   -8.2220   12.5140 C.3       1 BYG         0.0187
     27 CD1        10.8770   -6.0880   13.6630 C.2       1 BYG         0.1785
     28 CE1         9.4180   -9.0540   16.5210 C.3       1 BYG         0.0442
     29 OE1        10.9330   -6.0360   15.0710 O.2       1 BYG        -0.3969
     30 CE2         8.7310  -10.1340   17.3620 C.3       1 BYG        -0.0297
     31 CE3         8.3050  -11.3860   16.6210 C.3       1 BYG        -0.0510
     32 CE4         7.0130  -11.0710   15.9180 C.3       1 BYG        -0.0523
     33 CE5         6.9590   -9.6000   15.5050 C.3       1 BYG        -0.0454
     34 CE6         5.5450   -9.0240   15.3710 C.3       1 BYG        -0.0218
     35 CF4         5.8360   -7.0760   13.3810 C.3       1 BYG         0.0411
     36 CF5         5.2550   -6.4130   12.2310 C.2       1 BYG        -0.0815
     37 CF6         4.6040   -5.1750   12.2400 C.2       1 BYG         0.0216
     38 CF7         4.2960   -4.3920   13.2940 C.3       1 BYG         0.2925
     39 CG1        10.9410   -4.8190   12.8460 C.3       1 BYG         0.0441
     40 SG2         7.4430   -6.8930   12.9050 S.3       1 BYG        -0.2214
     41 H          11.8263   -1.2063   13.1939 H         1 BYG         0.2010
     42 H          10.7578   -2.4831   13.2658 H         1 BYG         0.2010
     43 H          12.0658   -2.4321   14.2971 H         1 BYG         0.2010
     44 H          11.3476   -7.3716   12.1571 H         1 BYG         0.1883
     45 H          12.3083   -8.8444   13.6574 H         1 BYG         0.1873
     46 H          13.5775   -2.6374   12.4814 H         1 BYG         0.1026
     47 H           9.5693   -8.0768   14.4291 H         1 BYG         0.0808
     48 H          11.8095  -11.6238   12.6684 H         1 BYG         0.0689
     49 H          13.2576  -10.6300   12.2582 H         1 BYG         0.0689
     50 H          11.1958   -8.2069   16.4443 H         1 BYG         0.2094
     51 H          12.9671   -4.6902   13.5202 H         1 BYG         0.0363
     52 H          12.7752   -4.9605   11.7543 H         1 BYG         0.0363
     53 H           8.0619   -9.1597   12.6742 H         1 BYG         0.0409
     54 H           8.9313   -8.0585   11.4905 H         1 BYG         0.0409
     55 H           9.4205   -9.3558   15.4736 H         1 BYG         0.0557
     56 H           8.8781   -8.1130   16.6265 H         1 BYG         0.0557
     57 H           7.8175   -9.6834   17.7502 H         1 BYG         0.0287
     58 H           9.4618  -10.4530   18.1051 H         1 BYG         0.0287
     59 H           8.1711  -12.2154   17.3154 H         1 BYG         0.0266
     60 H           9.0688  -11.6851   15.9032 H         1 BYG         0.0266
     61 H           6.1860  -11.2739   16.5984 H         1 BYG         0.0266
     62 H           6.9423  -11.6886   15.0226 H         1 BYG         0.0266
     63 H           7.4250   -9.5291   14.5222 H         1 BYG         0.0273
     64 H           7.4601   -9.0318   16.2887 H         1 BYG         0.0273
     65 H           4.8426   -9.7799   15.7222 H         1 BYG         0.0361
     66 H           5.5033   -8.1039   15.9539 H         1 BYG         0.0361
     67 H           5.3322   -6.9254   11.2721 H         1 BYG         0.0428
     68 H           4.3056   -4.7917   11.2642 H         1 BYG         0.1405
     69 H           3.9892   -3.7579   14.1258 H         1 BYG         0.1309
     70 H          10.4602   -4.9828   11.8816 H         1 BYG         0.0505
     71 H          10.4258   -4.0184   13.3768 H         1 BYG         0.0505
@<TRIPOS>BOND
     1    1   11 ar 
     2    1   12 ar 
     3   15    1 1  
     4   15    2 1  
     5    3   34 1  
     6   35    3 1  
     7    4    6 2  
     8    4    8 am 
     9   17    4 1  
    10   17    5 1  
    11    5   27 am 
    12    7   13 ar 
    13    7   14 ar 
    14   19    7 1  
    15    8   19 1  
    16   10    9 1  
    17    9   16 2  
    18    9   38 1  
    19   10   20 2  
    20   35   10 1  
    21   25   15 1  
    22   18   16 1  
    23   26   17 1  
    24   20   18 1  
    25   22   21 2  
    26   22   23 2  
    27   38   22 1  
    28   28   24 1  
    29   39   25 1  
    30   40   26 1  
    31   27   29 2  
    32   27   39 1  
    33   30   28 1  
    34   31   30 1  
    35   32   31 1  
    36   33   32 1  
    37   34   33 1  
    38   35   36 1  
    39   35   40 1  
    40   36   37 2  
    41   37   38 1  
    42    2   41 1  
    43    2   42 1  
    44    2   43 1  
    45    5   44 1  
    46    8   45 1  
    47   15   46 1  
    48   17   47 1  
    49   19   48 1  
    50   19   49 1  
    51   24   50 1  
    52   25   51 1  
    53   25   52 1  
    54   26   53 1  
    55   26   54 1  
    56   28   55 1  
    57   28   56 1  
    58   30   57 1  
    59   30   58 1  
    60   31   59 1  
    61   31   60 1  
    62   32   61 1  
    63   32   62 1  
    64   33   63 1  
    65   33   64 1  
    66   34   65 1  
    67   34   66 1  
    68   36   67 1  
    69   37   68 1  
    70   38   69 1  
    71   39   70 1  
    72   39   71 1  
@<TRIPOS>SUBSTRUCTURE
     1 BYG         1

