### 
### Created by X-TOOL on Fri Sep 26 17:34:43 2014
### 

@<TRIPOS>MOLECULE
3gus_ligand
   35    36     1     0     0
SMALL
GAST_HUCK


@<TRIPOS>ATOM
      1 OA5         1.9180    6.1580   32.8910 O.3       1 N11        -0.3950
      2 CE1         2.4840    5.1660   32.0260 C.3       1 N11         0.0442
      3 CE2         3.9230    5.5470   31.6970 C.3       1 N11        -0.0297
      4 CE3         4.5510    4.5520   30.7290 C.3       1 N11        -0.0510
      5 CE4         5.5370    3.6440   31.4530 C.3       1 N11        -0.0521
      6 CE5         6.5650    3.0720   30.4850 C.3       1 N11        -0.0418
      7 CE6         6.3030    1.5950   30.2080 C.3       1 N11         0.0082
      8 S1          7.5060    0.9370   29.0960 S.3       1 N11        -0.0957
      9 CF4         7.6960    1.8900   27.7030 C.ar      1 N11         0.0403
     10 CL          6.5560    2.6660   27.1260 C.ar      1 N11         0.1012
     11 NA3         5.2580    2.8150   27.4830 N.2       1 N11        -0.0880
     12 OA2         4.7190    3.7060   26.5020 O.3       1 N11        -0.0328
     13 NA1         5.6770    4.1200   25.5270 N.2       1 N11        -0.0815
     14 CI          6.8150    3.4890   25.9030 C.ar      1 N11         0.1185
     15 CF5         8.9470    1.9380   27.0910 C.ar      1 N11        -0.0399
     16 CF6         9.1770    2.6950   25.9390 C.ar      1 N11        -0.0232
     17 CF7         8.1850    3.4670   25.3270 C.ar      1 N11         0.2112
     18 NA4         8.4670    4.2280   24.1820 N.2       1 N11         0.3108
     19 OA4         7.4850    5.0590   23.6390 O.2       1 N11         0.1751
     20 OA3         9.7300    4.1720   23.5950 O.2       1 N11         0.1751
     21 H1          1.0211    5.9222   33.0972 H         1 N11         0.2094
     22 H2          1.8971    5.1101   31.0973 H         1 N11         0.0557
     23 H3          2.4686    4.1878   32.5289 H         1 N11         0.0557
     24 H4          4.5111    5.5627   32.6265 H         1 N11         0.0287
     25 H5          3.9333    6.5473   31.2396 H         1 N11         0.0287
     26 H6          5.0814    5.1031   29.9385 H         1 N11         0.0266
     27 H7          3.7580    3.9371   30.2785 H         1 N11         0.0266
     28 H8          4.9856    2.8161   31.9226 H         1 N11         0.0266
     29 H9          6.0576    4.2245   32.2289 H         1 N11         0.0266
     30 H10         7.5686    3.1822   30.9216 H         1 N11         0.0275
     31 H11         6.5140    3.6288   29.5377 H         1 N11         0.0275
     32 H12         5.3032    1.4842   29.7630 H         1 N11         0.0403
     33 H13         6.3464    1.0380   31.1556 H         1 N11         0.0403
     34 H14         9.7654    1.3718   27.5209 H         1 N11         0.0582
     35 H15        10.1683    2.6831   25.5006 H         1 N11         0.0676
@<TRIPOS>BOND
     1    1    2 1  
     2    2    3 1  
     3    3    4 1  
     4    4    5 1  
     5    5    6 1  
     6    6    7 1  
     7    7    8 1  
     8    8    9 1  
     9    9   10 ar 
    10    9   15 ar 
    11   10   11 2  
    12   10   14 ar 
    13   11   12 1  
    14   12   13 1  
    15   13   14 2  
    16   14   17 ar 
    17   15   16 ar 
    18   16   17 ar 
    19   17   18 1  
    20   18   19 2  
    21   18   20 2  
    22    1   21 1  
    23    2   22 1  
    24    2   23 1  
    25    3   24 1  
    26    3   25 1  
    27    4   26 1  
    28    4   27 1  
    29    5   28 1  
    30    5   29 1  
    31    6   30 1  
    32    6   31 1  
    33    7   32 1  
    34    7   33 1  
    35   15   34 1  
    36   16   35 1  
@<TRIPOS>SUBSTRUCTURE
     1 N11         1

