### 
### Created by X-TOOL on Fri Sep 26 17:34:47 2014
### 

@<TRIPOS>MOLECULE
3guz_ligand
   21    20     1     0     0
SMALL
GAST_HUCK


@<TRIPOS>ATOM
      1 O1         10.7970  -12.2620    0.3240 O.co2     1 PAF        -0.5663
      2 C1         10.2210  -11.9000   -0.7230 C.2       1 PAF         0.0639
      3 O2          9.0580  -11.4290   -0.8090 O.co2     1 PAF        -0.5663
      4 C2         11.0630  -11.9320   -1.9960 C.3       1 PAF         0.1144
      5 O3         10.8930  -10.6780   -2.6850 O.3       1 PAF        -0.3771
      6 C3         10.7810  -13.1240   -2.9290 C.3       1 PAF         0.0259
      7 C4         11.0140  -14.4470   -2.1540 C.3       1 PAF        -0.0538
      8 C5          9.3140  -13.0570   -3.5090 C.3       1 PAF        -0.0538
      9 C6         11.7240  -13.0270   -4.1610 C.3       1 PAF         0.0532
     10 O4         13.1430  -12.9540   -3.8010 O.3       1 PAF        -0.3943
     11 H1         12.1164  -12.0119   -1.6895 H         1 PAF         0.0769
     12 H2          9.9762  -10.5600   -2.9039 H         1 PAF         0.2124
     13 H3         10.8134  -15.3009   -2.8177 H         1 PAF         0.0238
     14 H4         10.3370  -14.4888   -1.2880 H         1 PAF         0.0238
     15 H5         12.0568  -14.4897   -1.8066 H         1 PAF         0.0238
     16 H6          9.1774  -12.1104   -4.0523 H         1 PAF         0.0238
     17 H7          8.5901  -13.1132   -2.6827 H         1 PAF         0.0238
     18 H8          9.1524  -13.9007   -4.1961 H         1 PAF         0.0238
     19 H9         11.4616  -12.1237   -4.7312 H         1 PAF         0.0564
     20 H10        11.5688  -13.9158   -4.7903 H         1 PAF         0.0564
     21 H11        13.6666  -12.8966   -4.5916 H         1 PAF         0.2094
@<TRIPOS>BOND
     1    1    2 ar 
     2    2    3 ar 
     3    2    4 1  
     4    4    5 1  
     5    4    6 1  
     6    6    7 1  
     7    6    8 1  
     8    6    9 1  
     9    9   10 1  
    10    4   11 1  
    11    5   12 1  
    12    7   13 1  
    13    7   14 1  
    14    7   15 1  
    15    8   16 1  
    16    8   17 1  
    17    8   18 1  
    18    9   19 1  
    19    9   20 1  
    20   10   21 1  
@<TRIPOS>SUBSTRUCTURE
     1 PAF         1

