### 
### Created by X-TOOL on Mon Sep 10 21:13:01 2018
### 

@<TRIPOS>MOLECULE
3gv9_ligand
   18    18     1     0     0
SMALL
GAST_HUCK


@<TRIPOS>ATOM
      1 O11       -34.7700    5.4140   13.1710 O.2       1 GV9        -0.3867
      2 C10       -35.1090    4.3990   13.7540 C.2       1 GV9         0.1971
      3 C12       -35.4310    3.1390   13.0060 C.3       1 GV9         0.0310
      4 N9        -35.2120    4.3220   15.0820 N.am      1 GV9        -0.2439
      5 C3        -35.2950    5.4090   15.8870 C.2       1 GV9         0.0618
      6 C4        -35.5620    6.7710   15.6670 C.2       1 GV9        -0.0405
      7 C5        -35.5530    7.5640   16.8210 C.2       1 GV9        -0.0069
      8 S1        -35.2020    6.5610   18.2030 S.3       1 GV9        -0.0571
      9 C2        -35.0620    5.0960   17.3140 C.2       1 GV9         0.0647
     10 C6        -34.7550    3.7910   17.9590 C.2       1 GV9         0.0458
     11 O7        -34.5680    2.8110   17.2160 O.co2     1 GV9        -0.5737
     12 O8        -34.6960    3.7050   19.2040 O.co2     1 GV9        -0.5737
     13 H1        -35.7119    2.3505   13.7197 H         1 GV9         0.0471
     14 H2        -34.5491    2.8173   12.4327 H         1 GV9         0.0471
     15 H3        -36.2682    3.3252   12.3172 H         1 GV9         0.0471
     16 H4        -35.2288    3.4160   15.5049 H         1 GV9         0.2213
     17 H5        -35.7604    7.1779   14.6765 H         1 GV9         0.0420
     18 H6        -35.7362    8.6371   16.8505 H         1 GV9         0.0775
@<TRIPOS>BOND
     1    1    2 2  
     2    2    3 1  
     3    2    4 am 
     4    4    5 1  
     5    5    6 1  
     6    5    9 2  
     7    6    7 2  
     8    7    8 1  
     9    8    9 1  
    10    9   10 1  
    11   10   11 ar 
    12   10   12 ar 
    13    3   13 1  
    14    3   14 1  
    15    3   15 1  
    16    4   16 1  
    17    6   17 1  
    18    7   18 1  
@<TRIPOS>SUBSTRUCTURE
     1 GV9         1

