### 
### Created by X-TOOL on Mon Sep 10 21:13:01 2018
### 

@<TRIPOS>MOLECULE
3gvb_ligand
   26    27     1     0     0
SMALL
GAST_HUCK


@<TRIPOS>ATOM
      1 O13        10.6950   45.9040   27.6200 O.2       1 3GV        -0.3859
      2 C9         11.6200   45.6950   26.8510 C.2       1 3GV         0.2054
      3 C10        11.6820   46.2100   25.4390 C.3       1 3GV         0.0594
      4 N8         12.7120   44.9870   27.0890 N.am      1 3GV        -0.2205
      5 C12        13.6140   44.7690   25.9690 C.3       1 3GV         0.0697
      6 C11        12.8010   45.3730   24.8190 C.3       1 3GV         0.0540
      7 C14        12.2160   44.2710   23.9810 C.2       1 3GV         0.0425
      8 O15        11.0200   43.9420   24.1510 O.co2     1 3GV        -0.5685
      9 O16        12.9500   43.7150   23.1350 O.co2     1 3GV        -0.5685
     10 C4         12.9990   44.4750   28.3680 C.ar      1 3GV         0.0990
     11 C5         13.0000   43.1020   28.6060 C.ar      1 3GV         0.1092
     12 O7         12.7250   42.2200   27.6050 O.3       1 3GV        -0.3394
     13 C6         13.2900   42.6120   29.8790 C.ar      1 3GV        -0.0463
     14 C1         13.5740   43.4910   30.9220 C.ar      1 3GV        -0.0862
     15 C2         13.5730   44.8650   30.6890 C.ar      1 3GV        -0.0868
     16 C3         13.2880   45.3550   29.4140 C.ar      1 3GV        -0.0491
     17 H1         11.9315   47.2811   25.4190 H         1 3GV         0.0529
     18 H2         10.7286   46.0458   24.9156 H         1 3GV         0.0529
     19 H3         13.8075   43.6982   25.8083 H         1 3GV         0.0604
     20 H4         14.5686   45.2970   26.1100 H         1 3GV         0.0604
     21 H5         13.4450   46.0091   24.1940 H         1 3GV         0.0515
     22 H6         11.8528   42.3873   27.2677 H         1 3GV         0.2433
     23 H7         13.2945   41.5428   30.0578 H         1 3GV         0.0495
     24 H8         13.7950   43.1074   31.9115 H         1 3GV         0.0460
     25 H9         13.7934   45.5525   31.4976 H         1 3GV         0.0484
     26 H10        13.2908   46.4240   29.2341 H         1 3GV         0.0466
@<TRIPOS>BOND
     1    1    2 2  
     2    2    3 1  
     3    2    4 am 
     4    3    6 1  
     5    4    5 1  
     6    4   10 1  
     7    5    6 1  
     8    6    7 1  
     9    7    8 ar 
    10    7    9 ar 
    11   10   11 ar 
    12   10   16 ar 
    13   11   12 1  
    14   11   13 ar 
    15   13   14 ar 
    16   14   15 ar 
    17   15   16 ar 
    18    3   17 1  
    19    3   18 1  
    20    5   19 1  
    21    5   20 1  
    22    6   21 1  
    23   12   22 1  
    24   13   23 1  
    25   14   24 1  
    26   15   25 1  
    27   16   26 1  
@<TRIPOS>SUBSTRUCTURE
     1 3GV         1

