### 
### Created by X-TOOL on Mon Sep 10 21:13:00 2018
### 

@<TRIPOS>MOLECULE
3gvu_ligand
   70    74     1     0     0
SMALL
GAST_HUCK


@<TRIPOS>ATOM
      1 C1          6.5740    7.6540   23.3390 C.ar      1 STI        -0.0301
      2 C6          7.4130    8.3860   22.5000 C.ar      1 STI        -0.0291
      3 C5          8.4740    7.7180   21.8660 C.ar      1 STI         0.0316
      4 C4          8.6330    6.3510   22.1020 C.ar      1 STI         0.0248
      5 N3          7.8150    5.6800   22.9090 N.ar      1 STI        -0.2920
      6 C2          6.8080    6.2840   23.5180 C.ar      1 STI         0.0142
      7 C7          9.3520    8.3900   21.0090 C.ar      1 STI         0.0621
      8 C12         9.1360    9.7250   20.6710 C.ar      1 STI        -0.0153
      9 C11        10.0430   10.3330   19.8050 C.ar      1 STI         0.0146
     10 N10        11.0820    9.6760   19.3270 N.ar      1 STI        -0.2516
     11 C9         11.2910    8.4030   19.6710 C.ar      1 STI         0.2094
     12 N8         10.4260    7.7590   20.4800 N.ar      1 STI        -0.2455
     13 N13        12.3370    7.7430   19.1900 N.pl3     1 STI        -0.2475
     14 C14        13.1720    8.2180   18.2450 C.ar      1 STI         0.0547
     15 C19        12.8640    8.1260   16.9010 C.ar      1 STI        -0.0359
     16 C18        13.7850    8.5730   15.9640 C.ar      1 STI        -0.0821
     17 C17        14.9980    9.0950   16.3390 C.ar      1 STI        -0.0588
     18 C16        15.3370    9.1920   17.6800 C.ar      1 STI         0.0494
     19 C15        14.4110    8.7260   18.6160 C.ar      1 STI        -0.0244
     20 N21        16.5710    9.6630   17.9920 N.am      1 STI        -0.2404
     21 C22        17.0770    9.8360   19.2270 C.2       1 STI         0.2255
     22 C23        18.5640   10.2230   19.2890 C.ar      1 STI         0.0485
     23 C25        19.2470   10.8230   18.2380 C.ar      1 STI        -0.0479
     24 C26        20.5980   11.1530   18.3750 C.ar      1 STI        -0.0494
     25 C27        21.2810   10.8870   19.5570 C.ar      1 STI         0.0061
     26 C28        20.5900   10.2840   20.5790 C.ar      1 STI        -0.0494
     27 C29        19.2470    9.9610   20.4560 C.ar      1 STI        -0.0479
     28 C46        22.7850   11.2550   19.7710 C.3       1 STI         0.0045
     29 N48        23.0820   12.6190   19.2840 N.4       1 STI         0.2553
     30 C53        22.2630   13.5090   20.0220 C.3       1 STI         0.0110
     31 C52        22.5130   14.8940   19.4090 C.3       1 STI         0.0092
     32 N51        23.9200   15.3340   19.5840 N.4       1 STI         0.2405
     33 C54        24.2840   16.4960   18.7780 C.3       1 STI        -0.0427
     34 C50        24.7180   14.3030   18.8430 C.3       1 STI         0.0092
     35 C49        24.4870   12.8940   19.4590 C.3       1 STI         0.0110
     36 O29        16.4480    9.7480   20.2870 O.2       1 STI        -0.3771
     37 C20        11.5170    7.5620   16.4330 C.3       1 STI        -0.0402
     38 H1          5.7491    8.1396   23.8477 H         1 STI         0.0718
     39 H2          7.2505    9.4458   22.3405 H         1 STI         0.0773
     40 H3          9.4444    5.8223   21.6149 H         1 STI         0.0864
     41 H4          6.1541    5.7107   24.1651 H         1 STI         0.0847
     42 H5          8.2895   10.2728   21.0691 H         1 STI         0.0677
     43 H6          9.8914   11.3674   19.5183 H         1 STI         0.0893
     44 H7         12.5236    6.8021   19.5651 H         1 STI         0.2158
     45 H8         13.5405    8.5083   14.9099 H         1 STI         0.0490
     46 H9         15.6956    9.4337   15.5816 H         1 STI         0.0394
     47 H10        14.6678    8.7619   19.6685 H         1 STI         0.0399
     48 H11        17.1653    9.9065   17.2255 H         1 STI         0.2227
     49 H12        18.7303   11.0357   17.3091 H         1 STI         0.0652
     50 H13        21.1204   11.6224   17.5493 H         1 STI         0.0572
     51 H14        21.1066   10.0550   21.5040 H         1 STI         0.0572
     52 H15        18.7290    9.4971   21.2876 H         1 STI         0.0652
     53 H16        23.4109   10.5353   19.2230 H         1 STI         0.0991
     54 H17        23.0175   11.2000   20.8447 H         1 STI         0.0991
     55 H18        22.8553   12.6913   18.3045 H         1 STI         0.2053
     56 H19        22.5463   13.5015   21.0849 H         1 STI         0.0868
     57 H20        21.2037   13.2295   19.9229 H         1 STI         0.0868
     58 H21        21.8496   15.6233   19.8969 H         1 STI         0.0868
     59 H22        22.2850   14.8528   18.3337 H         1 STI         0.0868
     60 H23        24.1596   15.4414   20.5572 H         1 STI         0.2035
     61 H24        25.3363   16.7565   18.9646 H         1 STI         0.0778
     62 H25        23.6419   17.3467   19.0501 H         1 STI         0.0778
     63 H26        24.1481   16.2601   17.7122 H         1 STI         0.0778
     64 H27        25.7865   14.5562   18.9076 H         1 STI         0.0868
     65 H28        24.4067   14.2929   17.7880 H         1 STI         0.0868
     66 H29        25.0937   12.1415   18.9341 H         1 STI         0.0868
     67 H30        24.7478   12.8949   20.5276 H         1 STI         0.0868
     68 H31        10.9221    7.2601   17.3076 H         1 STI         0.0342
     69 H32        11.6897    6.6881   15.7877 H         1 STI         0.0342
     70 H33        10.9729    8.3332   15.8680 H         1 STI         0.0342
@<TRIPOS>BOND
     1    1    2 ar 
     2    1    6 ar 
     3    2    3 ar 
     4    3    4 ar 
     5    3    7 1  
     6    4    5 ar 
     7    5    6 ar 
     8    7    8 ar 
     9    7   12 ar 
    10    8    9 ar 
    11    9   10 ar 
    12   10   11 ar 
    13   11   12 ar 
    14   11   13 1  
    15   13   14 1  
    16   14   15 ar 
    17   14   19 ar 
    18   15   16 ar 
    19   15   37 1  
    20   16   17 ar 
    21   17   18 ar 
    22   18   19 ar 
    23   18   20 1  
    24   20   21 am 
    25   21   22 1  
    26   21   36 2  
    27   22   23 ar 
    28   22   27 ar 
    29   23   24 ar 
    30   24   25 ar 
    31   25   26 ar 
    32   25   28 1  
    33   26   27 ar 
    34   28   29 1  
    35   29   30 1  
    36   29   35 1  
    37   30   31 1  
    38   31   32 1  
    39   32   33 1  
    40   32   34 1  
    41   34   35 1  
    42    1   38 1  
    43    2   39 1  
    44    4   40 1  
    45    6   41 1  
    46    8   42 1  
    47    9   43 1  
    48   13   44 1  
    49   16   45 1  
    50   17   46 1  
    51   19   47 1  
    52   20   48 1  
    53   23   49 1  
    54   24   50 1  
    55   26   51 1  
    56   27   52 1  
    57   28   53 1  
    58   28   54 1  
    59   29   55 1  
    60   30   56 1  
    61   30   57 1  
    62   31   58 1  
    63   31   59 1  
    64   32   60 1  
    65   33   61 1  
    66   33   62 1  
    67   33   63 1  
    68   34   64 1  
    69   34   65 1  
    70   35   66 1  
    71   35   67 1  
    72   37   68 1  
    73   37   69 1  
    74   37   70 1  
@<TRIPOS>SUBSTRUCTURE
     1 STI         1

