### 
### Created by X-TOOL on Mon Sep 10 21:13:01 2018
### 

@<TRIPOS>MOLECULE
3gw5_ligand
   82    84     1     0     0
SMALL
GAST_HUCK


@<TRIPOS>ATOM
      1 C1         29.0520   -7.7360  -14.5800 C.3       1 72X         0.0611
      2 O2         28.3380   -7.4420  -15.8020 O.3       1 72X        -0.4228
      3 C3         30.5570   -8.0720  -14.9200 C.ar      1 72X        -0.0211
      4 C4         31.2010   -8.0810  -16.2280 C.ar      1 72X        -0.0370
      5 C5         31.3830   -8.4210  -13.6600 C.ar      1 72X        -0.0230
      6 C6         32.6220   -8.4200  -16.3310 C.ar      1 72X        -0.0318
      7 C7         32.7770   -8.7520  -13.8130 C.ar      1 72X         0.0694
      8 C8         33.4000   -8.7530  -15.1410 C.ar      1 72X        -0.0199
      9 C15        28.9810   -6.4490  -13.6720 C.3       1 72X        -0.0472
     10 C18        29.6150   -5.1110  -14.1530 C.3       1 72X        -0.0558
     11 C21        29.5150   -3.9070  -13.1820 C.3       1 72X        -0.0301
     12 C24        28.0770   -3.4730  -12.8320 C.3       1 72X         0.0473
     13 O27        27.3650   -3.1910  -14.0050 O.3       1 72X        -0.3830
     14 C28        26.0340   -2.8060  -13.7510 C.3       1 72X         0.0364
     15 C32        26.5300   -8.8260   -9.1820 C.3       1 72X         0.0822
     16 C33        25.1140   -8.3550   -8.7230 C.3       1 72X        -0.0106
     17 C34        27.6640   -7.8160   -8.8540 C.3       1 72X        -0.0223
     18 N35        25.0300   -8.1250   -7.2700 N.4       1 72X         0.2264
     19 C36        29.1080   -8.2160   -9.2440 C.3       1 72X        -0.0388
     20 C37        30.1190   -7.1050   -8.8610 C.3       1 72X        -0.0501
     21 C38        31.5950   -7.4570   -9.2340 C.3       1 72X        -0.0528
     22 C39        32.0760   -8.8390   -8.6880 C.3       1 72X        -0.0530
     23 C40        29.5560   -9.5880   -8.5120 C.3       1 72X        -0.0501
     24 C41        31.0280  -10.0350   -8.8720 C.3       1 72X        -0.0528
     25 N42        26.5350   -9.0280  -10.6220 N.am      1 72X        -0.2649
     26 C43        26.2580  -10.1770  -11.3420 C.2       1 72X         0.2603
     27 O44        25.9530  -11.2340  -10.7900 O.2       1 72X        -0.4007
     28 N45        26.3650  -10.0150  -12.7320 N.am      1 72X        -0.2599
     29 C46        27.6060  -11.5600  -14.0030 C.3       1 72X        -0.0331
     30 C47        28.3230  -10.3470  -14.6870 C.3       1 72X        -0.0514
     31 C48        28.3170   -8.9620  -13.8230 C.3       1 72X        -0.0153
     32 C49        26.7540   -8.7170  -13.4460 C.3       1 72X         0.0323
     33 C50        26.1260  -11.1000  -13.6550 C.3       1 72X         0.0342
     34 C51        25.1760   -9.3290   -6.4430 C.3       1 72X        -0.0448
     35 CL1        33.6920   -9.1440  -12.4460 Cl        1 72X        -0.0626
     36 H1         27.4325   -7.2398  -15.5976 H         1 72X         0.1962
     37 H2         30.6319   -7.8384  -17.1182 H         1 72X         0.0852
     38 H3         30.9215   -8.4167  -12.6792 H         1 72X         0.0857
     39 H4         33.1023   -8.4238  -17.3028 H         1 72X         0.0698
     40 H5         34.4499   -9.0038  -15.2401 H         1 72X         0.0862
     41 H6         29.4699   -6.7062  -12.7208 H         1 72X         0.0197
     42 H7         27.9146   -6.2469  -13.4933 H         1 72X         0.0197
     43 H8         29.1182   -4.8247  -15.0917 H         1 72X         0.0259
     44 H9         30.6820   -5.2972  -14.3448 H         1 72X         0.0259
     45 H10        30.0271   -3.0508  -13.6453 H         1 72X         0.0287
     46 H11        30.0271   -4.1785  -12.2471 H         1 72X         0.0287
     47 H12        28.1112   -2.5728  -12.2008 H         1 72X         0.0560
     48 H13        27.5737   -4.2846  -12.2862 H         1 72X         0.0560
     49 H14        25.5245   -2.5976  -14.7034 H         1 72X         0.0523
     50 H15        26.0270   -1.9010  -13.1258 H         1 72X         0.0523
     51 H16        25.5111   -3.6187  -13.2256 H         1 72X         0.0523
     52 H17        26.7531   -9.7783   -8.6787 H         1 72X         0.0606
     53 H18        24.3806   -9.1268   -8.9992 H         1 72X         0.0836
     54 H19        24.8711   -7.4159   -9.2417 H         1 72X         0.0836
     55 H20        27.6507   -7.6461   -7.7673 H         1 72X         0.0292
     56 H21        27.4298   -6.8760   -9.3750 H         1 72X         0.0292
     57 H22        24.1313   -7.7148   -7.0695 H         1 72X         0.2011
     58 H23        25.7593   -7.4785   -7.0128 H         1 72X         0.2011
     59 H24        29.1418   -8.3674  -10.3330 H         1 72X         0.0302
     60 H25        30.0630   -6.9414   -7.7747 H         1 72X         0.0268
     61 H26        29.8373   -6.1804   -9.3861 H         1 72X         0.0268
     62 H27        32.2513   -6.6755   -8.8234 H         1 72X         0.0265
     63 H28        31.6811   -7.4694  -10.3305 H         1 72X         0.0265
     64 H29        32.2842   -8.7288   -7.6135 H         1 72X         0.0265
     65 H30        33.0023   -9.1116   -9.2150 H         1 72X         0.0265
     66 H31        28.8641  -10.3877   -8.8150 H         1 72X         0.0268
     67 H32        29.4920   -9.4405   -7.4238 H         1 72X         0.0268
     68 H33        31.3183  -10.8669   -8.2134 H         1 72X         0.0265
     69 H34        31.0517  -10.3709   -9.9192 H         1 72X         0.0265
     70 H35        26.7716   -8.2245  -11.1683 H         1 72X         0.1850
     71 H36        28.1386  -11.8418  -13.0827 H         1 72X         0.0284
     72 H37        27.5814  -12.4187  -14.6900 H         1 72X         0.0284
     73 H38        27.8221  -10.1520  -15.6467 H         1 72X         0.0262
     74 H39        29.3701  -10.6295  -14.8706 H         1 72X         0.0262
     75 H40        28.8720   -9.1294  -12.8881 H         1 72X         0.0253
     76 H41        26.6393   -7.8494  -12.7796 H         1 72X         0.0515
     77 H42        26.1477   -8.5667  -14.3514 H         1 72X         0.0515
     78 H43        25.5928  -10.7528  -14.5523 H         1 72X         0.0519
     79 H44        25.5552  -11.9117  -13.1803 H         1 72X         0.0519
     80 H45        25.0993   -9.0554   -5.3803 H         1 72X         0.0777
     81 H46        26.1574   -9.7879   -6.6335 H         1 72X         0.0777
     82 H47        24.3808  -10.0459   -6.6954 H         1 72X         0.0777
@<TRIPOS>BOND
     1    1    2 1  
     2    1    3 1  
     3    1    9 1  
     4   31    1 1  
     5    3    4 ar 
     6    3    5 ar 
     7    4    6 ar 
     8    5    7 ar 
     9    6    8 ar 
    10    7    8 ar 
    11    7   35 1  
    12    9   10 1  
    13   10   11 1  
    14   11   12 1  
    15   12   13 1  
    16   13   14 1  
    17   15   16 1  
    18   15   17 1  
    19   25   15 1  
    20   16   18 1  
    21   17   19 1  
    22   18   34 1  
    23   19   20 1  
    24   19   23 1  
    25   20   21 1  
    26   21   22 1  
    27   24   22 1  
    28   23   24 1  
    29   26   25 am 
    30   26   27 2  
    31   28   26 am 
    32   28   32 1  
    33   33   28 1  
    34   30   29 1  
    35   29   33 1  
    36   30   31 1  
    37   31   32 1  
    38    2   36 1  
    39    4   37 1  
    40    5   38 1  
    41    6   39 1  
    42    8   40 1  
    43    9   41 1  
    44    9   42 1  
    45   10   43 1  
    46   10   44 1  
    47   11   45 1  
    48   11   46 1  
    49   12   47 1  
    50   12   48 1  
    51   14   49 1  
    52   14   50 1  
    53   14   51 1  
    54   15   52 1  
    55   16   53 1  
    56   16   54 1  
    57   17   55 1  
    58   17   56 1  
    59   18   57 1  
    60   18   58 1  
    61   19   59 1  
    62   20   60 1  
    63   20   61 1  
    64   21   62 1  
    65   21   63 1  
    66   22   64 1  
    67   22   65 1  
    68   23   66 1  
    69   23   67 1  
    70   24   68 1  
    71   24   69 1  
    72   25   70 1  
    73   29   71 1  
    74   29   72 1  
    75   30   73 1  
    76   30   74 1  
    77   31   75 1  
    78   32   76 1  
    79   32   77 1  
    80   33   78 1  
    81   33   79 1  
    82   34   80 1  
    83   34   81 1  
    84   34   82 1  
@<TRIPOS>SUBSTRUCTURE
     1 72X         1

