### 
### Created by X-TOOL on Mon Sep 10 21:13:00 2018
### 

@<TRIPOS>MOLECULE
3gws_ligand
   35    36     1     0     0
SMALL
GAST_HUCK


@<TRIPOS>ATOM
      1 C1          6.7540   20.8300   27.5330 C.ar      1 T3         -0.0403
      2 C2          3.4700   18.0600   30.0340 C.ar      1 T3          0.1078
      3 C3          7.0140   20.4060   28.9320 C.ar      1 T3         -0.0541
      4 C4          3.0840   17.1850   31.1010 C.ar      1 T3         -0.0257
      5 C5          6.2920   19.3900   29.4820 C.ar      1 T3          0.0381
      6 C6          1.9570   17.4760   31.8880 C.ar      1 T3          0.0300
      7 C7          5.2900   18.7570   28.7180 C.ar      1 T3          0.1288
      8 C8          1.2190   18.5980   31.6290 C.ar      1 T3          0.0884
      9 C9          5.0450   19.1580   27.3620 C.ar      1 T3          0.0381
     10 C10         1.6140   19.4970   30.5220 C.ar      1 T3         -0.0376
     11 C11         5.7930   20.2090   26.7870 C.ar      1 T3         -0.0541
     12 C12         2.7070   19.2150   29.7580 C.ar      1 T3         -0.0341
     13 C13         7.5750   21.9560   26.9160 C.3       1 T3          0.0324
     14 C15         8.2510   21.6500   25.5790 C.3       1 T3          0.0365
     15 C17         9.2900   22.6910   25.2040 C.2       1 T3          0.0864
     16 I1          6.6770   18.7820   31.4690 I         1 T3         -0.0570
     17 I2          1.4590   16.1470   33.4570 I         1 T3         -0.0593
     18 I3          3.5680   18.1570   26.2350 I         1 T3         -0.0570
     19 N1          8.7460   20.2940   25.4590 N.4       1 T3          0.2340
     20 O1          0.0790   18.8970   32.3880 O.3       1 T3         -0.3376
     21 O2          4.5660   17.6890   29.2450 O.3       1 T3         -0.2645
     22 O3         10.2350   22.3770   24.5640 O.co2     1 T3         -0.5641
     23 O4          9.0920   24.0140   25.6110 O.co2     1 T3         -0.5641
     24 H1          7.7787   20.9051   29.5161 H         1 T3          0.0581
     25 H2          3.6654   16.2925   31.3024 H         1 T3          0.0555
     26 H3          1.0296   20.3867   30.3171 H         1 T3          0.0525
     27 H4          5.6066   20.5193   25.7652 H         1 T3          0.0581
     28 H5          2.9884   19.8732   28.9440 H         1 T3          0.0548
     29 H6          8.3621   22.2288   27.6343 H         1 T3          0.0481
     30 H7          6.9044   22.8144   26.7633 H         1 T3          0.0481
     31 H8          7.4565   21.7373   24.8233 H         1 T3          0.1046
     32 H9          9.1753   20.1718   24.5552 H         1 T3          0.2012
     33 H10         7.9797   19.6466   25.5572 H         1 T3          0.2012
     34 H11         9.4276   20.1200   26.1810 H         1 T3          0.2012
     35 H12        -0.6820   18.9176   31.8197 H         1 T3          0.2458
@<TRIPOS>BOND
     1    3    1 ar 
     2    1   11 ar 
     3    1   13 1  
     4    2    4 ar 
     5    2   12 ar 
     6   21    2 1  
     7    5    3 ar 
     8    4    6 ar 
     9    7    5 ar 
    10    5   16 1  
    11    6    8 ar 
    12    6   17 1  
    13    7    9 ar 
    14    7   21 1  
    15    8   10 ar 
    16    8   20 1  
    17    9   11 ar 
    18    9   18 1  
    19   10   12 ar 
    20   13   14 1  
    21   14   15 1  
    22   14   19 1  
    23   15   22 ar 
    24   15   23 ar 
    25    3   24 1  
    26    4   25 1  
    27   10   26 1  
    28   11   27 1  
    29   12   28 1  
    30   13   29 1  
    31   13   30 1  
    32   14   31 1  
    33   19   32 1  
    34   19   33 1  
    35   19   34 1  
    36   20   35 1  
@<TRIPOS>SUBSTRUCTURE
     1 T3          1

