### 
### Created by X-TOOL on Mon Sep 10 21:13:03 2018
### 

@<TRIPOS>MOLECULE
3gwt_ligand
   63    66     1     0     0
SMALL
GAST_HUCK


@<TRIPOS>ATOM
      1 O5         44.0530   46.0630   61.6620 O.2       1 066        -0.3933
      2 C26        43.6220   45.8360   62.7810 C.2       1 066         0.1971
      3 N4         42.4210   45.2780   62.9690 N.am      1 066        -0.3025
      4 C8         44.4500   46.2530   63.9850 C.ar      1 066         0.0957
      5 C9         43.8350   46.2940   65.2340 C.ar      1 066         0.0088
      6 N2         44.4700   46.7120   66.3520 N.ar      1 066        -0.3158
      7 C10        45.7380   47.1390   66.2630 C.ar      1 066         0.0411
      8 C16        46.4130   47.1630   65.0420 C.ar      1 066         0.0368
      9 C15        47.7360   47.6170   64.9820 C.ar      1 066        -0.0278
     10 C14        48.3750   48.0540   66.1460 C.ar      1 066         0.0890
     11 S          50.0300   48.6840   66.0440 S.o2      1 066         0.0244
     12 O3         50.4000   48.6620   64.6550 O.2       1 066        -0.1645
     13 C17        51.1110   47.6430   66.9220 C.ar      1 066         0.0987
     14 C22        51.4520   46.4770   66.3150 C.ar      1 066        -0.0167
     15 C21        52.3090   45.6140   66.9360 C.ar      1 066         0.0518
     16 C23        52.5960   44.3780   66.1690 C.2       1 066         0.2070
     17 N3         52.9680   44.5120   64.8880 N.am      1 066        -0.2785
     18 C25        53.4160   43.3940   64.1040 C.3       1 066         0.0218
     19 C24        52.9620   45.7780   64.1520 C.3       1 066         0.0218
     20 O4         52.4410   43.3100   66.7300 O.2       1 066        -0.3845
     21 C20        52.8340   45.9010   68.1910 C.ar      1 066        -0.0418
     22 C19        52.4970   47.1020   68.8110 C.ar      1 066        -0.0544
     23 C18        51.6290   47.9830   68.1690 C.ar      1 066        -0.0322
     24 O2         50.0920   49.9530   66.7220 O.2       1 066        -0.1645
     25 C13        47.6860   48.0290   67.3590 C.ar      1 066        -0.0325
     26 C11        46.3720   47.5720   67.4230 C.ar      1 066        -0.0236
     27 C12        45.6210   47.5380   68.7240 C.3       1 066        -0.0286
     28 C7         45.7650   46.7210   63.8780 C.ar      1 066         0.1103
     29 N1         46.4540   46.7160   62.6990 N.pl3     1 066        -0.2593
     30 C6         47.6140   45.9730   62.6520 C.ar      1 066         0.0572
     31 C27        48.4850   46.0740   61.5800 C.ar      1 066        -0.0100
     32 C5         47.9690   45.0810   63.6680 C.ar      1 066        -0.0485
     33 C4         49.1540   44.3060   63.6060 C.ar      1 066        -0.0794
     34 C3         50.0240   44.4320   62.5280 C.ar      1 066        -0.0443
     35 C2         49.6630   45.3230   61.5150 C.ar      1 066         0.0816
     36 O1         50.4770   45.4850   60.4310 O.3       1 066        -0.3241
     37 C1         50.0800   46.3110   59.3470 C.3       1 066         0.0591
     38 H1         42.0909   45.1024   63.8965 H         1 066         0.1802
     39 H2         41.8532   45.0365   62.1821 H         1 066         0.1802
     40 H3         42.8015   45.9767   65.3132 H         1 066         0.0830
     41 H4         48.2636   47.6296   64.0352 H         1 066         0.0609
     42 H5         51.0452   46.2321   65.3405 H         1 066         0.0688
     43 H6         53.6676   43.7353   63.0890 H         1 066         0.0486
     44 H7         52.6166   42.6403   64.0498 H         1 066         0.0486
     45 H8         54.3067   42.9507   64.5730 H         1 066         0.0486
     46 H9         52.6097   46.5842   64.8122 H         1 066         0.0486
     47 H10        52.2907   45.6947   63.2846 H         1 066         0.0486
     48 H11        53.9811   46.0061   63.8065 H         1 066         0.0486
     49 H12        53.4979   45.1983   68.6813 H         1 066         0.0669
     50 H13        52.9062   47.3490   69.7839 H         1 066         0.0630
     51 H14        51.3597   48.9236   68.6357 H         1 066         0.0672
     52 H15        48.1793   48.3693   68.2623 H         1 066         0.0589
     53 H16        44.6077   47.1459   68.5523 H         1 066         0.0398
     54 H17        45.5553   48.5557   69.1362 H         1 066         0.0398
     55 H18        46.1501   46.8875   69.4359 H         1 066         0.0398
     56 H19        46.1212   47.2447   61.8801 H         1 066         0.2194
     57 H20        48.2473   46.7534   60.7695 H         1 066         0.0458
     58 H21        47.3185   44.9790   64.5291 H         1 066         0.0450
     59 H22        49.3840   43.6099   64.4045 H         1 066         0.0562
     60 H23        50.9445   43.8619   62.4763 H         1 066         0.0451
     61 H24        50.8670   46.3108   58.5785 H         1 066         0.0577
     62 H25        49.9202   47.3378   59.7078 H         1 066         0.0577
     63 H26        49.1453   45.9245   58.9147 H         1 066         0.0577
@<TRIPOS>BOND
     1    1    2 2  
     2    2    3 am 
     3    2    4 1  
     4    4    5 ar 
     5    4   28 ar 
     6    5    6 ar 
     7    6    7 ar 
     8    7    8 ar 
     9    7   26 ar 
    10    8    9 ar 
    11    8   28 ar 
    12    9   10 ar 
    13   10   11 1  
    14   10   25 ar 
    15   11   12 2  
    16   11   13 1  
    17   11   24 2  
    18   13   14 ar 
    19   13   23 ar 
    20   14   15 ar 
    21   15   16 1  
    22   15   21 ar 
    23   16   17 am 
    24   16   20 2  
    25   17   18 1  
    26   17   19 1  
    27   21   22 ar 
    28   22   23 ar 
    29   25   26 ar 
    30   26   27 1  
    31   28   29 1  
    32   29   30 1  
    33   30   31 ar 
    34   30   32 ar 
    35   31   35 ar 
    36   32   33 ar 
    37   33   34 ar 
    38   34   35 ar 
    39   35   36 1  
    40   36   37 1  
    41    3   38 1  
    42    3   39 1  
    43    5   40 1  
    44    9   41 1  
    45   14   42 1  
    46   18   43 1  
    47   18   44 1  
    48   18   45 1  
    49   19   46 1  
    50   19   47 1  
    51   19   48 1  
    52   21   49 1  
    53   22   50 1  
    54   23   51 1  
    55   25   52 1  
    56   27   53 1  
    57   27   54 1  
    58   27   55 1  
    59   29   56 1  
    60   31   57 1  
    61   32   58 1  
    62   33   59 1  
    63   34   60 1  
    64   37   61 1  
    65   37   62 1  
    66   37   63 1  
@<TRIPOS>SUBSTRUCTURE
     1 066         1

