### 
### Created by X-TOOL on Mon Sep 10 21:13:01 2018
### 

@<TRIPOS>MOLECULE
3gwu_ligand
   38    40     1     0     0
SMALL
GAST_HUCK


@<TRIPOS>ATOM
      1 CL19       29.1850   25.6670   20.9190 Cl        1 SRE        -0.0762
      2 C16        28.3210   24.3370   21.7520 C.ar      1 SRE         0.0471
      3 C15        27.9210   23.2600   20.9910 C.ar      1 SRE         0.0480
      4 CL20       28.3030   23.2900   19.2480 Cl        1 SRE        -0.0718
      5 C17        28.0540   24.3680   23.1210 C.ar      1 SRE        -0.0538
      6 C18        27.3770   23.2940   23.7040 C.ar      1 SRE        -0.0576
      7 C13        26.9760   22.1970   22.9280 C.ar      1 SRE        -0.0293
      8 C14        27.2470   22.1830   21.5630 C.ar      1 SRE        -0.0439
      9 C4         26.2490   21.0360   23.5120 C.3       1 SRE         0.0238
     10 C5         27.0520   20.2860   24.5290 C.ar      1 SRE        -0.0215
     11 C6         28.4180   20.0890   24.2980 C.ar      1 SRE        -0.0644
     12 C7         29.2060   19.3810   25.2020 C.ar      1 SRE        -0.0751
     13 C8         28.6320   18.8660   26.3580 C.ar      1 SRE        -0.0751
     14 C9         27.2720   19.0520   26.5970 C.ar      1 SRE        -0.0611
     15 C10        26.4740   19.7550   25.6930 C.ar      1 SRE         0.0086
     16 C1         25.0260   19.9110   26.0190 C.3       1 SRE         0.0091
     17 N11        24.8540   20.8810   27.0950 N.4       1 SRE         0.2381
     18 C12        23.5360   21.1370   27.6580 C.3       1 SRE        -0.0434
     19 C2         24.2260   20.3160   24.7800 C.3       1 SRE         0.0030
     20 C3         24.8970   21.4840   24.0700 C.3       1 SRE        -0.0251
     21 H1         28.3672   25.2130   23.7234 H         1 SRE         0.0606
     22 H2         27.1597   23.3088   24.7659 H         1 SRE         0.0562
     23 H3         26.9371   21.3433   20.9515 H         1 SRE         0.0566
     24 H4         26.0471   20.3350   22.6887 H         1 SRE         0.0605
     25 H5         28.8705   20.4943   23.4002 H         1 SRE         0.0541
     26 H6         30.2615   19.2324   25.0049 H         1 SRE         0.0542
     27 H7         29.2401   18.3215   27.0713 H         1 SRE         0.0543
     28 H8         26.8273   18.6449   27.4979 H         1 SRE         0.0540
     29 H9         24.6453   18.9397   26.3678 H         1 SRE         0.1001
     30 H10        25.1945   21.7630   26.7454 H         1 SRE         0.2026
     31 H11        25.4381   20.5734   27.8567 H         1 SRE         0.2026
     32 H12        23.6170   21.8947   28.4513 H         1 SRE         0.0777
     33 H13        23.1305   20.2058   28.0805 H         1 SRE         0.0777
     34 H14        22.8646   21.5040   26.8677 H         1 SRE         0.0777
     35 H15        23.2116   20.6124   25.0851 H         1 SRE         0.0344
     36 H16        24.1665   19.4600   24.0918 H         1 SRE         0.0344
     37 H17        24.2561   21.8280   23.2449 H         1 SRE         0.0313
     38 H18        25.0498   22.3072   24.7834 H         1 SRE         0.0313
@<TRIPOS>BOND
     1    1    2 1  
     2    2    3 ar 
     3    2    5 ar 
     4    3    4 1  
     5    3    8 ar 
     6    5    6 ar 
     7    6    7 ar 
     8    7    8 ar 
     9    7    9 1  
    10    9   10 1  
    11    9   20 1  
    12   10   11 ar 
    13   10   15 ar 
    14   11   12 ar 
    15   12   13 ar 
    16   13   14 ar 
    17   14   15 ar 
    18   15   16 1  
    19   16   17 1  
    20   16   19 1  
    21   17   18 1  
    22   19   20 1  
    23    5   21 1  
    24    6   22 1  
    25    8   23 1  
    26    9   24 1  
    27   11   25 1  
    28   12   26 1  
    29   13   27 1  
    30   14   28 1  
    31   16   29 1  
    32   17   30 1  
    33   17   31 1  
    34   18   32 1  
    35   18   33 1  
    36   18   34 1  
    37   19   35 1  
    38   19   36 1  
    39   20   37 1  
    40   20   38 1  
@<TRIPOS>SUBSTRUCTURE
     1 SRE         1

