### 
### Created by X-TOOL on Mon Sep 10 21:13:01 2018
### 

@<TRIPOS>MOLECULE
3gwv_ligand
   41    42     1     0     0
SMALL
GAST_HUCK


@<TRIPOS>ATOM
      1 F14        27.2850   25.1570   19.2720 F         1 RFX        -0.2324
      2 C12        28.3210   24.7390   19.9700 C.3       1 RFX         0.3627
      3 F15        28.9740   25.8030   20.3920 F         1 RFX        -0.2324
      4 F13        29.1130   24.0210   19.2000 F         1 RFX        -0.2324
      5 C9         27.8530   23.9030   21.1340 C.ar      1 RFX         0.0326
      6 C10        28.2450   24.2330   22.4320 C.ar      1 RFX        -0.0383
      7 C11        27.8170   23.4620   23.5130 C.ar      1 RFX         0.0018
      8 C6         26.9950   22.3520   23.3130 C.ar      1 RFX         0.1322
      9 C7         26.5940   22.0220   22.0120 C.ar      1 RFX         0.0018
     10 C8         27.0280   22.7940   20.9270 C.ar      1 RFX        -0.0383
     11 O5         26.5880   21.6380   24.4210 O.3       1 RFX        -0.2772
     12 C3         26.3090   20.2340   24.4430 C.3       1 RFX         0.1290
     13 C2         25.2390   19.9490   25.4940 C.3       1 RFX         0.0297
     14 C1         23.9160   19.5580   24.8450 C.3       1 RFX        -0.0292
     15 N4         22.9530   20.6440   24.8690 N.4       1 RFX         0.2250
     16 C22        21.7900   20.5640   25.7350 C.3       1 RFX        -0.0449
     17 C16        27.5450   19.4840   24.7680 C.ar      1 RFX        -0.0080
     18 C21        27.6800   18.1590   24.3590 C.ar      1 RFX        -0.0574
     19 C20        28.8350   17.4370   24.6450 C.ar      1 RFX        -0.0685
     20 C19        29.8650   18.0470   25.3510 C.ar      1 RFX        -0.0687
     21 C18        29.7330   19.3720   25.7640 C.ar      1 RFX        -0.0685
     22 C17        28.5790   20.0950   25.4760 C.ar      1 RFX        -0.0574
     23 H1         28.8846   25.0918   22.6010 H         1 RFX         0.0825
     24 H2         28.1257   23.7275   24.5176 H         1 RFX         0.0651
     25 H3         25.9472   21.1683   21.8449 H         1 RFX         0.0651
     26 H4         26.7223   22.5299   19.9211 H         1 RFX         0.0825
     27 H5         25.9425   19.9191   23.4548 H         1 RFX         0.0836
     28 H6         25.0861   20.8517   26.1037 H         1 RFX         0.0370
     29 H7         25.5796   19.1248   26.1380 H         1 RFX         0.0370
     30 H8         23.4950   18.6989   25.3879 H         1 RFX         0.0816
     31 H9         24.1044   19.2743   23.7990 H         1 RFX         0.0816
     32 H10        22.6081   20.7480   23.9276 H         1 RFX         0.2011
     33 H11        23.4578   21.4747   25.1357 H         1 RFX         0.2011
     34 H12        21.1814   21.4726   25.6165 H         1 RFX         0.0777
     35 H13        22.1174   20.4760   26.7814 H         1 RFX         0.0777
     36 H14        21.1902   19.6829   25.4630 H         1 RFX         0.0777
     37 H15        26.8746   17.6840   23.8106 H         1 RFX         0.0558
     38 H16        28.9304   16.4073   24.3198 H         1 RFX         0.0599
     39 H17        30.7688   17.4939   25.5800 H         1 RFX         0.0559
     40 H18        30.5379   19.8443   26.3155 H         1 RFX         0.0599
     41 H19        28.4849   21.1253   25.7997 H         1 RFX         0.0558
@<TRIPOS>BOND
     1    1    2 1  
     2    2    3 1  
     3    2    4 1  
     4    2    5 1  
     5    5    6 ar 
     6    5   10 ar 
     7    6    7 ar 
     8    7    8 ar 
     9    8    9 ar 
    10    8   11 1  
    11    9   10 ar 
    12   11   12 1  
    13   12   13 1  
    14   12   17 1  
    15   13   14 1  
    16   14   15 1  
    17   15   16 1  
    18   17   18 ar 
    19   17   22 ar 
    20   18   19 ar 
    21   19   20 ar 
    22   20   21 ar 
    23   21   22 ar 
    24    6   23 1  
    25    7   24 1  
    26    9   25 1  
    27   10   26 1  
    28   12   27 1  
    29   13   28 1  
    30   13   29 1  
    31   14   30 1  
    32   14   31 1  
    33   15   32 1  
    34   15   33 1  
    35   16   34 1  
    36   16   35 1  
    37   16   36 1  
    38   18   37 1  
    39   19   38 1  
    40   20   39 1  
    41   21   40 1  
    42   22   41 1  
@<TRIPOS>SUBSTRUCTURE
     1 RFX         1

