### 
### Created by X-TOOL on Mon Sep 10 21:13:01 2018
### 

@<TRIPOS>MOLECULE
3gww_ligand
   41    42     1     0     0
SMALL
GAST_HUCK


@<TRIPOS>ATOM
      1 F15        28.6310   24.0470   19.2590 F         1 SFX        -0.2324
      2 C12        27.8130   24.5380   20.1680 C.3       1 SFX         0.3627
      3 F13        26.6790   24.9030   19.5960 F         1 SFX        -0.2324
      4 F14        28.3760   25.5930   20.7270 F         1 SFX        -0.2324
      5 C9         27.5440   23.4780   21.1970 C.ar      1 SFX         0.0326
      6 C8         27.9580   23.6640   22.5170 C.ar      1 SFX        -0.0383
      7 C7         27.7110   22.6790   23.4710 C.ar      1 SFX         0.0018
      8 C6         27.0500   21.5070   23.1090 C.ar      1 SFX         0.1322
      9 C11        26.6370   21.3170   21.7840 C.ar      1 SFX         0.0018
     10 C10        26.8840   22.3020   20.8290 C.ar      1 SFX        -0.0383
     11 O5         26.8260   20.5660   24.0840 O.3       1 SFX        -0.2772
     12 C3         26.0580   19.3770   23.8770 C.3       1 SFX         0.1290
     13 C2         26.4320   18.3540   24.9520 C.3       1 SFX         0.0297
     14 C1         27.9530   18.2080   25.0380 C.3       1 SFX        -0.0292
     15 N4         28.4010   16.8520   25.3040 N.4       1 SFX         0.2250
     16 C22        28.9220   16.0250   24.2290 C.3       1 SFX        -0.0449
     17 C16        24.5980   19.6850   23.8680 C.ar      1 SFX        -0.0080
     18 C17        23.7960   19.1640   22.8490 C.ar      1 SFX        -0.0574
     19 C18        22.4280   19.4410   22.8160 C.ar      1 SFX        -0.0685
     20 C19        21.8540   20.2480   23.7990 C.ar      1 SFX        -0.0687
     21 C20        22.6510   20.7740   24.8160 C.ar      1 SFX        -0.0685
     22 C21        24.0190   20.4980   24.8500 C.ar      1 SFX        -0.0574
     23 H1         28.4720   24.5754   22.8001 H         1 SFX         0.0825
     24 H2         28.0333   22.8246   24.4957 H         1 SFX         0.0651
     25 H3         26.1254   20.4041   21.5013 H         1 SFX         0.0651
     26 H4         26.5650   22.1563   19.8033 H         1 SFX         0.0825
     27 H5         26.3204   18.9566   22.8950 H         1 SFX         0.0836
     28 H6         25.9876   17.3806   24.6972 H         1 SFX         0.0370
     29 H7         26.0440   18.6909   25.9246 H         1 SFX         0.0370
     30 H8         28.3180   18.8580   25.8469 H         1 SFX         0.0816
     31 H9         28.3867   18.5344   24.0813 H         1 SFX         0.0816
     32 H10        27.6129   16.3581   25.6927 H         1 SFX         0.2011
     33 H11        29.1303   16.9191   25.9966 H         1 SFX         0.2011
     34 H12        29.2060   15.0403   24.6286 H         1 SFX         0.0777
     35 H13        29.8052   16.5103   23.7881 H         1 SFX         0.0777
     36 H14        28.1493   15.8982   23.4565 H         1 SFX         0.0777
     37 H15        24.2385   18.5413   22.0799 H         1 SFX         0.0558
     38 H16        21.8111   19.0287   22.0258 H         1 SFX         0.0599
     39 H17        20.7924   20.4655   23.7725 H         1 SFX         0.0559
     40 H18        22.2067   21.3990   25.5822 H         1 SFX         0.0599
     41 H19        24.6348   20.9143   25.6390 H         1 SFX         0.0558
@<TRIPOS>BOND
     1    1    2 1  
     2    2    3 1  
     3    2    4 1  
     4    2    5 1  
     5    5    6 ar 
     6    5   10 ar 
     7    6    7 ar 
     8    7    8 ar 
     9    8    9 ar 
    10    8   11 1  
    11    9   10 ar 
    12   11   12 1  
    13   12   13 1  
    14   12   17 1  
    15   13   14 1  
    16   14   15 1  
    17   15   16 1  
    18   17   18 ar 
    19   17   22 ar 
    20   18   19 ar 
    21   19   20 ar 
    22   20   21 ar 
    23   21   22 ar 
    24    6   23 1  
    25    7   24 1  
    26    9   25 1  
    27   10   26 1  
    28   12   27 1  
    29   13   28 1  
    30   13   29 1  
    31   14   30 1  
    32   14   31 1  
    33   15   32 1  
    34   15   33 1  
    35   16   34 1  
    36   16   35 1  
    37   16   36 1  
    38   18   37 1  
    39   19   38 1  
    40   20   39 1  
    41   21   40 1  
    42   22   41 1  
@<TRIPOS>SUBSTRUCTURE
     1 SFX         1

