### 
### Created by X-TOOL on Mon Sep 10 21:12:48 2018
### 

@<TRIPOS>MOLECULE
3gwx_ligand
   51    50     1     0     0
SMALL
GAST_HUCK


@<TRIPOS>ATOM
      1 C1         35.2730   12.1360   61.7350 C.2       1 EPA         0.0349
      2 OA         34.4850   13.0750   61.9770 O.co2     1 EPA        -0.5690
      3 OB         36.2310   11.8620   62.5240 O.co2     1 EPA        -0.5690
      4 C2         35.0620   11.3240   60.4380 C.3       1 EPA         0.0018
      5 C3         35.2530    9.8000   60.6270 C.3       1 EPA        -0.0347
      6 C4         35.0240    9.1900   59.2230 C.3       1 EPA        -0.0345
      7 C5         35.2220    7.6510   59.1200 C.2       1 EPA        -0.0966
      8 C6         34.2240    6.7670   59.2710 C.2       1 EPA        -0.0908
      9 C7         32.8570    7.2170   59.5780 C.3       1 EPA        -0.0199
     10 C8         31.8960    6.9060   58.4600 C.2       1 EPA        -0.0890
     11 C9         30.5870    7.0900   58.6680 C.2       1 EPA        -0.0889
     12 C10        30.0590    7.6010   59.9920 C.3       1 EPA        -0.0194
     13 C11        29.1350    8.7640   59.7240 C.2       1 EPA        -0.0889
     14 C12        27.8580    8.7800   60.1850 C.2       1 EPA        -0.0889
     15 C13        27.2020    7.6620   60.9890 C.3       1 EPA        -0.0194
     16 C14        26.4500    8.2610   62.1380 C.2       1 EPA        -0.0889
     17 C15        25.1970    8.0900   62.5490 C.2       1 EPA        -0.0890
     18 C16        24.0940    7.2290   61.9490 C.3       1 EPA        -0.0199
     19 C17        22.7550    7.9330   61.8760 C.2       1 EPA        -0.0908
     20 C18        22.4130    9.0390   61.1600 C.2       1 EPA        -0.0969
     21 C19        23.2550    9.9010   60.2500 C.3       1 EPA        -0.0388
     22 C20        22.9110    9.4190   58.8640 C.3       1 EPA        -0.0584
     23 H1         35.7840   11.6749   59.6860 H         1 EPA         0.0432
     24 H2         34.0389   11.5046   60.0765 H         1 EPA         0.0432
     25 H3         34.5191    9.4045   61.3446 H         1 EPA         0.0303
     26 H4         36.2700    9.5791   60.9832 H         1 EPA         0.0303
     27 H5         35.7277    9.6693   58.5266 H         1 EPA         0.0391
     28 H6         33.9924    9.4199   58.9180 H         1 EPA         0.0391
     29 H7         36.2218    7.2713   58.9148 H         1 EPA         0.0458
     30 H8         34.4283    5.7026   59.1650 H         1 EPA         0.0463
     31 H9         32.8697    8.3045   59.7431 H         1 EPA         0.0513
     32 H10        32.5136    6.7112   60.4925 H         1 EPA         0.0513
     33 H11        32.2596    6.5387   57.5015 H         1 EPA         0.0471
     34 H12        29.8848    6.8670   57.8661 H         1 EPA         0.0471
     35 H13        30.8973    7.9313   60.6229 H         1 EPA         0.0515
     36 H14        29.5072    6.7997   60.5053 H         1 EPA         0.0515
     37 H15        29.5017    9.6113   59.1465 H         1 EPA         0.0471
     38 H16        27.2552    9.6595   59.9635 H         1 EPA         0.0471
     39 H17        27.9759    6.9799   61.3708 H         1 EPA         0.0515
     40 H18        26.5068    7.1039   60.3447 H         1 EPA         0.0515
     41 H19        27.0304    8.9574   62.7414 H         1 EPA         0.0471
     42 H20        24.9199    8.6458   63.4435 H         1 EPA         0.0471
     43 H21        23.9803    6.3266   62.5677 H         1 EPA         0.0513
     44 H22        24.3921    6.9401   60.9304 H         1 EPA         0.0513
     45 H23        21.9591    7.4957   62.4770 H         1 EPA         0.0463
     46 H24        21.3738    9.3495   61.2585 H         1 EPA         0.0458
     47 H25        24.3257    9.7588   60.4582 H         1 EPA         0.0387
     48 H26        22.9962   10.9635   60.3692 H         1 EPA         0.0387
     49 H27        23.4834    9.9959   58.1226 H         1 EPA         0.0249
     50 H28        21.8346    9.5571   58.6844 H         1 EPA         0.0249
     51 H29        23.1641    8.3524   58.7734 H         1 EPA         0.0249
@<TRIPOS>BOND
     1    1    4 1  
     2    1    3 ar 
     3    1    2 ar 
     4    4    5 1  
     5    5    6 1  
     6    6    7 1  
     7    7    8 2  
     8    8    9 1  
     9    9   10 1  
    10   10   11 2  
    11   11   12 1  
    12   12   13 1  
    13   13   14 2  
    14   14   15 1  
    15   15   16 1  
    16   16   17 2  
    17   17   18 1  
    18   18   19 1  
    19   19   20 2  
    20   20   21 1  
    21   21   22 1  
    22    4   23 1  
    23    4   24 1  
    24    5   25 1  
    25    5   26 1  
    26    6   27 1  
    27    6   28 1  
    28    7   29 1  
    29    8   30 1  
    30    9   31 1  
    31    9   32 1  
    32   10   33 1  
    33   11   34 1  
    34   12   35 1  
    35   12   36 1  
    36   13   37 1  
    37   14   38 1  
    38   15   39 1  
    39   15   40 1  
    40   16   41 1  
    41   17   42 1  
    42   18   43 1  
    43   18   44 1  
    44   19   45 1  
    45   20   46 1  
    46   21   47 1  
    47   21   48 1  
    48   22   49 1  
    49   22   50 1  
    50   22   51 1  
@<TRIPOS>SUBSTRUCTURE
     1 EPA         1

