### 
### Created by X-TOOL on Mon Sep 10 21:13:00 2018
### 

@<TRIPOS>MOLECULE
3gx0_ligand
   70    69     1     0     0
SMALL
GAST_HUCK


@<TRIPOS>ATOM
      1 N1         28.5050   43.3690   52.6740 N.4       1 GDS         0.2328
      2 CA1        29.1170   42.6390   51.5640 C.3       1 GDS         0.0304
      3 C1         30.6390   42.7150   51.7130 C.2       1 GDS         0.0846
      4 OE1        31.1300   43.8220   52.0710 O.co2     1 GDS        -0.5643
      5 OE2        31.2850   41.6510   51.4660 O.co2     1 GDS        -0.5643
      6 CB1        28.6430   43.1670   50.1740 C.3       1 GDS         0.0193
      7 CG1        28.9750   42.1580   49.0490 C.3       1 GDS         0.0441
      8 CD1        28.1870   40.8130   49.1730 C.2       1 GDS         0.1785
      9 O1         26.9970   40.8010   49.5300 O.2       1 GDS        -0.3969
     10 N2         28.9030   39.7120   48.8760 N.am      1 GDS        -0.2648
     11 CA2        28.3560   38.3280   48.9200 C.3       1 GDS         0.1405
     12 C2         29.2770   37.4440   49.7480 C.2       1 GDS         0.2040
     13 O2         30.4790   37.7260   49.8340 O.2       1 GDS        -0.3944
     14 CB2        28.3020   37.7470   47.5070 C.3       1 GDS         0.0443
     15 SG2        26.9750   38.4120   46.4380 S.3       1 GDS        -0.0882
     16 N3         28.7060   36.3740   50.3280 N.am      1 GDS        -0.2722
     17 CA3        29.4900   35.4180   51.1330 C.3       1 GDS         0.0833
     18 C3         28.7720   34.0640   51.2530 C.2       1 GDS         0.0570
     19 OE3        28.9360   33.4560   52.3550 O.co2     1 GDS        -0.5669
     20 OE4        28.0600   33.6650   50.2840 O.co2     1 GDS        -0.5669
     21 N4         24.2610   41.1860   50.6440 N.am      1 GDS        -0.2722
     22 CA4        23.5070   42.3500   51.2010 C.3       1 GDS         0.0833
     23 C4         24.4160   43.1380   52.1650 C.2       1 GDS         0.0570
     24 OE5        25.5730   42.6700   52.3400 O.co2     1 GDS        -0.5669
     25 OE6        23.9320   44.1750   52.7010 O.co2     1 GDS        -0.5669
     26 C5         23.5870   40.1340   50.1530 C.2       1 GDS         0.2040
     27 O5         22.3440   40.0470   50.1090 O.2       1 GDS        -0.3944
     28 CA5        24.4640   39.0110   49.5970 C.3       1 GDS         0.1405
     29 N5         23.9530   37.7400   50.1660 N.am      1 GDS        -0.2648
     30 CB5        24.4070   39.0950   48.0570 C.3       1 GDS         0.0443
     31 SG5        25.2090   37.6800   47.2480 S.3       1 GDS        -0.0882
     32 CA6        24.1470   33.6470   52.8660 C.3       1 GDS         0.0304
     33 C6         23.4210   32.7160   51.8780 C.2       1 GDS         0.0846
     34 OE7        22.2830   33.0980   51.5270 O.co2     1 GDS        -0.5643
     35 OE8        23.9860   31.6500   51.5000 O.co2     1 GDS        -0.5643
     36 N6         25.1010   32.9150   53.7340 N.4       1 GDS         0.2328
     37 CB6        24.8910   34.7500   52.1250 C.3       1 GDS         0.0193
     38 CG6        23.9520   35.6380   51.3420 C.3       1 GDS         0.0441
     39 CD6        24.7220   36.8400   50.7820 C.2       1 GDS         0.1785
     40 O6         25.9490   36.9120   50.8970 O.2       1 GDS        -0.3969
     41 H1         27.5013   43.3282   52.5901 H         1 GDS         0.2010
     42 H2         28.8054   44.3309   52.6498 H         1 GDS         0.2010
     43 H3         28.7865   42.9509   53.5469 H         1 GDS         0.2010
     44 H4         28.8149   41.5839   51.6385 H         1 GDS         0.1026
     45 H5         29.1482   44.1206   49.9611 H         1 GDS         0.0363
     46 H6         27.5551   43.3269   50.2029 H         1 GDS         0.0363
     47 H7         30.0518   41.9364   49.0851 H         1 GDS         0.0505
     48 H8         28.7278   42.6196   48.0816 H         1 GDS         0.0505
     49 H9         29.8596   39.8311   48.6099 H         1 GDS         0.1883
     50 H10        27.3482   38.3418   49.3607 H         1 GDS         0.0808
     51 H11        28.1571   36.6599   47.5919 H         1 GDS         0.0432
     52 H12        29.2662   37.9514   47.0185 H         1 GDS         0.0432
     53 H13        27.7246   36.2222   50.2108 H         1 GDS         0.1873
     54 H14        29.6379   35.8350   52.1401 H         1 GDS         0.0689
     55 H15        30.4676   35.2633   50.6530 H         1 GDS         0.0689
     56 H16        25.2610   41.1908   50.6371 H         1 GDS         0.1873
     57 H17        22.6226   41.9873   51.7453 H         1 GDS         0.0689
     58 H18        23.1876   43.0072   50.3788 H         1 GDS         0.0689
     59 H19        25.5069   39.1487   49.9185 H         1 GDS         0.0808
     60 H20        22.9754   37.5463   50.0832 H         1 GDS         0.1883
     61 H21        24.9131   40.0173   47.7358 H         1 GDS         0.0432
     62 H22        23.3527   39.1276   47.7450 H         1 GDS         0.0432
     63 H23        23.3864   34.1126   53.5099 H         1 GDS         0.1026
     64 H24        25.5502   33.5636   54.3613 H         1 GDS         0.2010
     65 H25        25.7976   32.4637   53.1620 H         1 GDS         0.2010
     66 H26        24.6037   32.2202   54.2687 H         1 GDS         0.2010
     67 H27        25.6076   34.2896   51.4290 H         1 GDS         0.0363
     68 H28        25.4345   35.3656   52.8569 H         1 GDS         0.0363
     69 H29        23.1491   35.9946   52.0040 H         1 GDS         0.0505
     70 H30        23.5148   35.0649   50.5111 H         1 GDS         0.0505
@<TRIPOS>BOND
     1    2    1 1  
     2    2    3 1  
     3    6    2 1  
     4    3    4 ar 
     5    3    5 ar 
     6    7    6 1  
     7    8    7 1  
     8    8    9 2  
     9   10    8 am 
    10   11   10 1  
    11   11   12 1  
    12   14   11 1  
    13   12   13 2  
    14   12   16 am 
    15   15   14 1  
    16   31   15 1  
    17   16   17 1  
    18   17   18 1  
    19   18   19 ar 
    20   18   20 ar 
    21   21   22 1  
    22   26   21 am 
    23   22   23 1  
    24   23   24 ar 
    25   23   25 ar 
    26   26   27 2  
    27   28   26 1  
    28   29   28 1  
    29   28   30 1  
    30   39   29 am 
    31   30   31 1  
    32   32   33 1  
    33   32   36 1  
    34   37   32 1  
    35   33   34 ar 
    36   33   35 ar 
    37   38   37 1  
    38   38   39 1  
    39   39   40 2  
    40    1   41 1  
    41    1   42 1  
    42    1   43 1  
    43    2   44 1  
    44    6   45 1  
    45    6   46 1  
    46    7   47 1  
    47    7   48 1  
    48   10   49 1  
    49   11   50 1  
    50   14   51 1  
    51   14   52 1  
    52   16   53 1  
    53   17   54 1  
    54   17   55 1  
    55   21   56 1  
    56   22   57 1  
    57   22   58 1  
    58   28   59 1  
    59   29   60 1  
    60   30   61 1  
    61   30   62 1  
    62   32   63 1  
    63   36   64 1  
    64   36   65 1  
    65   36   66 1  
    66   37   67 1  
    67   37   68 1  
    68   38   69 1  
    69   38   70 1  
@<TRIPOS>SUBSTRUCTURE
     1 GDS         1

