### 
### Created by X-TOOL on Mon Sep 10 21:13:01 2018
### 

@<TRIPOS>MOLECULE
3gxl_ligand
   43    47     1     0     0
SMALL
GAST_HUCK


@<TRIPOS>ATOM
      1 C1         10.5430   63.4270    5.7160 C.3       1 QIG        -0.0147
      2 C2         11.9710   63.6300    5.2890 C.ar      1 QIG         0.0282
      3 C3         12.4230   63.1370    4.0410 C.ar      1 QIG        -0.0296
      4 C4         13.7740   63.3590    3.6870 C.ar      1 QIG        -0.0446
      5 C5         14.6400   64.0490    4.5510 C.ar      1 QIG        -0.0266
      6 C6         14.1390   64.5220    5.7880 C.ar      1 QIG         0.0774
      7 N7         12.8130   64.3140    6.1560 N.ar      1 QIG        -0.2852
      8 C8         15.0010   65.2550    6.7440 C.ar      1 QIG         0.1147
      9 N9         16.0450   65.9520    6.2370 N.ar      1 QIG        -0.2453
     10 C10        16.8690   66.6410    7.0800 C.ar      1 QIG         0.1620
     11 N11        17.9370   67.3340    6.4620 N.pl3     1 QIG        -0.2454
     12 C12        18.1890   67.7830    5.1390 C.ar      1 QIG         0.0699
     13 C13        19.5150   68.2030    4.7920 C.ar      1 QIG        -0.0367
     14 C14        19.8420   68.6760    3.4870 C.ar      1 QIG        -0.0679
     15 C15        18.7840   68.7140    2.5300 C.ar      1 QIG        -0.0258
     16 N16        18.7540   69.1080    1.2150 N.2       1 QIG        -0.3406
     17 N18        17.5260   68.9890    0.6340 N.pl3     1 QIG        -0.2459
     18 C19        16.7490   68.5010    1.6190 C.2       1 QIG         0.1066
     19 C20        17.4620   68.3060    2.8250 C.ar      1 QIG         0.0239
     20 C21        17.1590   67.8350    4.1460 C.ar      1 QIG        -0.0218
     21 C22        16.6650   66.6530    8.4910 C.ar      1 QIG         0.0582
     22 C23        17.4710   67.3440    9.4690 C.ar      1 QIG        -0.0396
     23 C24        17.1590   67.2720   10.8450 C.ar      1 QIG        -0.0543
     24 C25        16.0440   66.5100   11.2690 C.ar      1 QIG        -0.0553
     25 C26        15.2340   65.8140   10.3020 C.ar      1 QIG        -0.0398
     26 C27        15.5260   65.8760    8.9280 C.ar      1 QIG         0.0453
     27 N28        14.7140   65.1940    8.0750 N.ar      1 QIG        -0.2864
     28 H1         10.0016   62.8741    4.9342 H         1 QIG         0.0421
     29 H2         10.0642   64.4050    5.8717 H         1 QIG         0.0421
     30 H3         10.5188   62.8534    6.6543 H         1 QIG         0.0421
     31 H4         11.7526   62.6046    3.3760 H         1 QIG         0.0677
     32 H5         14.1458   62.9921    2.7371 H         1 QIG         0.0726
     33 H6         15.6749   64.2167    4.2754 H         1 QIG         0.0695
     34 H7         18.6991   67.5630    7.1159 H         1 QIG         0.2227
     35 H8         20.2934   68.1597    5.5451 H         1 QIG         0.0543
     36 H9         20.8475   68.9920    3.2337 H         1 QIG         0.0589
     37 H10        17.2560   69.2189   -0.3330 H         1 QIG         0.2934
     38 H11        15.6891   68.2808    1.5005 H         1 QIG         0.1368
     39 H12        16.1516   67.5190    4.3918 H         1 QIG         0.0554
     40 H13        18.3262   67.9253    9.1437 H         1 QIG         0.0685
     41 H14        17.7693   67.7967   11.5711 H         1 QIG         0.0629
     42 H15        15.7991   66.4500   12.3233 H         1 QIG         0.0674
     43 H16        14.3841   65.2320   10.6398 H         1 QIG         0.0629
@<TRIPOS>BOND
     1    1    2 1  
     2    2    3 ar 
     3    2    7 ar 
     4    3    4 ar 
     5    4    5 ar 
     6    5    6 ar 
     7    6    7 ar 
     8    6    8 1  
     9    8    9 ar 
    10    8   27 ar 
    11    9   10 ar 
    12   10   11 1  
    13   10   21 ar 
    14   11   12 1  
    15   12   13 ar 
    16   12   20 ar 
    17   13   14 ar 
    18   14   15 ar 
    19   15   16 2  
    20   15   19 ar 
    21   16   17 1  
    22   17   18 1  
    23   18   19 2  
    24   19   20 ar 
    25   21   22 ar 
    26   21   26 ar 
    27   22   23 ar 
    28   23   24 ar 
    29   24   25 ar 
    30   25   26 ar 
    31   26   27 ar 
    32    1   28 1  
    33    1   29 1  
    34    1   30 1  
    35    3   31 1  
    36    4   32 1  
    37    5   33 1  
    38   11   34 1  
    39   13   35 1  
    40   14   36 1  
    41   17   37 1  
    42   18   38 1  
    43   20   39 1  
    44   22   40 1  
    45   23   41 1  
    46   24   42 1  
    47   25   43 1  
@<TRIPOS>SUBSTRUCTURE
     1 QIG         1

