### 
### Created by X-TOOL on Mon Sep 10 21:13:02 2018
### 

@<TRIPOS>MOLECULE
3gxt_ligand
   25    25     1     0     0
SMALL
GAST_HUCK


@<TRIPOS>ATOM
      1 C1        -17.1670   61.3430  105.6910 C.3       1 NOJ        -0.0040
      2 C2        -16.5510   60.2280  106.5580 C.3       1 NOJ         0.1231
      3 O2        -15.2570   60.5800  107.0860 O.3       1 NOJ        -0.3838
      4 C3        -16.5720   58.9340  105.7210 C.3       1 NOJ         0.1171
      5 O3        -15.7340   57.8550  106.1940 O.3       1 NOJ        -0.3862
      6 C4        -18.0540   58.6060  105.7750 C.3       1 NOJ         0.1280
      7 O4        -18.2930   57.2700  105.3800 O.3       1 NOJ        -0.3835
      8 C5        -18.6920   59.6290  104.8380 C.3       1 NOJ         0.0301
      9 N5        -18.5550   60.9970  105.3720 N.4       1 NOJ         0.2346
     10 C6        -20.1520   59.3860  104.6420 C.3       1 NOJ         0.0893
     11 O6        -20.5860   60.3980  103.7420 O.3       1 NOJ        -0.3894
     12 H1        -16.5905   61.4454  104.7598 H         1 NOJ         0.0840
     13 H2        -17.1430   62.2938  106.2435 H         1 NOJ         0.0840
     14 H3        -17.2093   60.0721  107.4254 H         1 NOJ         0.0674
     15 H4        -14.6595   60.7529  106.3679 H         1 NOJ         0.2101
     16 H5        -16.2663   59.1553  104.6878 H         1 NOJ         0.0649
     17 H6        -15.8199   57.1099  105.6110 H         1 NOJ         0.2100
     18 H7        -18.4386   58.7427  106.7965 H         1 NOJ         0.0678
     19 H8        -19.2248   57.0903  105.4223 H         1 NOJ         0.2102
     20 H9        -18.1841   59.5666  103.8643 H         1 NOJ         0.0900
     21 H10       -18.8996   61.6478  104.6838 H         1 NOJ         0.2019
     22 H11       -19.1073   61.0722  106.2118 H         1 NOJ         0.2019
     23 H12       -20.6876   59.4670  105.5994 H         1 NOJ         0.0614
     24 H13       -20.3216   58.3886  104.2102 H         1 NOJ         0.0614
     25 H14       -21.5158   60.2956  103.5766 H         1 NOJ         0.2097
@<TRIPOS>BOND
     1    1    2 1  
     2    1    9 1  
     3    2    3 1  
     4    2    4 1  
     5    4    5 1  
     6    4    6 1  
     7    6    7 1  
     8    6    8 1  
     9    8    9 1  
    10    8   10 1  
    11   10   11 1  
    12    1   12 1  
    13    1   13 1  
    14    2   14 1  
    15    3   15 1  
    16    4   16 1  
    17    5   17 1  
    18    6   18 1  
    19    7   19 1  
    20    8   20 1  
    21    9   21 1  
    22    9   22 1  
    23   10   23 1  
    24   10   24 1  
    25   11   25 1  
@<TRIPOS>SUBSTRUCTURE
     1 NOJ         1

