### 
### Created by X-TOOL on Fri Sep 26 17:34:45 2014
### 

@<TRIPOS>MOLECULE
3gxy_ligand
   81    83     1     0     0
SMALL
GAST_HUCK


@<TRIPOS>ATOM
      1 C3'        22.2950   60.5660  140.2000 C.3       1 OPM        -0.0512
      2 C4'        22.3720   61.9470  140.8720 C.3       1 OPM        -0.0558
      3 C5'        23.3230   62.0110  142.0620 C.3       1 OPM        -0.0653
      4 C1'        20.6620   58.8370  139.2380 C.3       1 OPM         0.0508
      5 C2'        20.8630   60.0130  140.2000 C.3       1 OPM        -0.0294
      6 C2         21.7640   57.7630  136.6240 C.3       1 OPM         0.1345
      7 O2         20.7830   56.8570  137.1640 O.3       1 OPM        -0.3841
      8 C3         21.8810   57.6140  135.1040 C.3       1 OPM         0.1206
      9 O3         22.0010   56.2360  134.7100 O.3       1 OPM        -0.3400
     10 C4         20.6960   58.2460  134.3800 C.3       1 OPM         0.1123
     11 O4         21.0130   58.2700  132.9900 O.3       1 OPM        -0.3865
     12 C5         20.4150   59.6740  134.8580 C.3       1 OPM         0.1130
     13 O5         21.3070   60.0940  135.9070 O.3       1 OPM        -0.3405
     14 C6         18.9550   59.8410  135.2730 C.3       1 OPM         0.0730
     15 O6         18.2210   60.3590  134.1520 O.3       1 OPM        -0.3924
     16 O1         20.3340   59.3030  137.9110 O.3       1 OPM        -0.3487
     17 C1         21.4650   59.2140  137.0330 C.3       1 OPM         0.1879
     18 C1         22.7690   55.2750  134.2060 C.3       1 OPM         0.1888
     19 C2         22.6150   53.8680  133.6600 C.3       1 OPM         0.1406
     20 C3         22.6420   52.8970  134.8320 C.3       1 OPM         0.1144
     21 C4         23.9460   53.0350  135.6000 C.3       1 OPM         0.1119
     22 C5         24.1950   54.4980  135.9220 C.3       1 OPM         0.1130
     23 C6         25.5900   54.6500  136.5030 C.3       1 OPM         0.0730
     24 O2         23.7500   53.6430  132.8560 O.3       1 OPM        -0.3378
     25 O3         22.5520   51.5610  134.4320 O.3       1 OPM        -0.3864
     26 O4         23.8580   52.3110  136.8110 O.3       1 OPM        -0.3865
     27 O5         24.0570   55.3480  134.7860 O.3       1 OPM        -0.3405
     28 O6         25.8490   56.0380  136.5490 O.3       1 OPM        -0.3924
     29 C1         23.6220   54.2140  131.5370 C.3       1 OPM         0.1885
     30 C2         24.2830   53.3080  130.5110 C.3       1 OPM         0.1341
     31 C3         25.8000   53.3360  130.6130 C.3       1 OPM         0.1141
     32 C4         26.3130   54.7400  130.3230 C.3       1 OPM         0.1119
     33 C5         25.4950   55.7740  131.1000 C.3       1 OPM         0.1130
     34 C6         25.5790   57.1000  130.4070 C.3       1 OPM         0.0730
     35 O2         23.9960   53.8690  129.2600 O.3       1 OPM        -0.3841
     36 O3         26.3280   52.4650  129.6600 O.3       1 OPM        -0.3864
     37 O4         27.6540   54.8860  130.7480 O.3       1 OPM        -0.3865
     38 O5         24.1120   55.5390  131.3670 O.3       1 OPM        -0.3405
     39 O6         25.5320   57.9170  131.5370 O.3       1 OPM        -0.3924
     40 H1         22.9467   59.8675  140.7453 H         1 OPM         0.0266
     41 H2         22.6423   60.6558  139.1601 H         1 OPM         0.0266
     42 H3         21.3645   62.2176  141.2208 H         1 OPM         0.0263
     43 H4         22.7088   62.6774  140.1217 H         1 OPM         0.0263
     44 H5         23.3178   63.0280  142.4812 H         1 OPM         0.0230
     45 H6         24.3408   61.7556  141.7322 H         1 OPM         0.0230
     46 H7         22.9965   61.2957  142.8312 H         1 OPM         0.0230
     47 H8         19.8424   58.2044  139.6097 H         1 OPM         0.0561
     48 H9         21.5892   58.2469  139.1928 H         1 OPM         0.0561
     49 H10        20.1772   60.8222  139.9087 H         1 OPM         0.0287
     50 H11        20.6201   59.6752  141.2183 H         1 OPM         0.0287
     51 H12        22.7383   57.4928  137.0572 H         1 OPM         0.0671
     52 H13        20.7323   56.9715  138.1058 H         1 OPM         0.2101
     53 H14        22.7939   58.1399  134.7877 H         1 OPM         0.0651
     54 H15        19.7990   57.6319  134.5484 H         1 OPM         0.0647
     55 H16        21.1569   57.3823  132.6838 H         1 OPM         0.2100
     56 H17        20.5897   60.3407  134.0007 H         1 OPM         0.0647
     57 H18        18.8868   60.5423  136.1177 H         1 OPM         0.0584
     58 H19        18.5397   58.8669  135.5707 H         1 OPM         0.0584
     59 H20        17.3092   60.4685  134.3952 H         1 OPM         0.2095
     60 H21        22.3403   59.5696  137.5963 H         1 OPM         0.0937
     61 H22        22.9279   55.7622  133.2327 H         1 OPM         0.0938
     62 H23        21.6857   53.7591  133.0816 H         1 OPM         0.0675
     63 H24        21.7965   53.1311  135.4956 H         1 OPM         0.0648
     64 H25        24.7748   52.6428  134.9923 H         1 OPM         0.0647
     65 H26        23.4592   54.8135  136.6764 H         1 OPM         0.0647
     66 H27        26.3274   54.1457  135.8612 H         1 OPM         0.0584
     67 H28        25.6304   54.2209  137.5150 H         1 OPM         0.0584
     68 H29        22.5540   51.0010  135.1994 H         1 OPM         0.2100
     69 H30        23.7021   51.3936  136.6196 H         1 OPM         0.2100
     70 H31        25.8033   56.3968  135.6705 H         1 OPM         0.2095
     71 H32        22.5450   54.2464  131.3158 H         1 OPM         0.0938
     72 H33        23.9036   52.2794  130.6007 H         1 OPM         0.0671
     73 H34        26.1114   53.0259  131.6214 H         1 OPM         0.0648
     74 H35        26.2393   54.9354  129.2430 H         1 OPM         0.0647
     75 H36        25.9853   55.8643  132.0805 H         1 OPM         0.0647
     76 H37        24.7266   57.2722  129.7334 H         1 OPM         0.0584
     77 H38        26.5184   57.2181  129.8471 H         1 OPM         0.0584
     78 H39        24.3346   54.7559  129.2267 H         1 OPM         0.2101
     79 H40        26.0506   52.7392  128.7938 H         1 OPM         0.2100
     80 H41        28.2007   54.2596  130.2883 H         1 OPM         0.2100
     81 H42        24.7197   57.7622  132.0047 H         1 OPM         0.2095
@<TRIPOS>BOND
     1    1    2 1  
     2    5    1 1  
     3    2    3 1  
     4    4    5 1  
     5   16    4 1  
     6    6    7 1  
     7    6    8 1  
     8   17    6 1  
     9    8    9 1  
    10    8   10 1  
    11    9   18 1  
    12   10   11 1  
    13   12   10 1  
    14   13   12 1  
    15   12   14 1  
    16   17   13 1  
    17   14   15 1  
    18   16   17 1  
    19   18   19 1  
    20   18   27 1  
    21   19   20 1  
    22   19   24 1  
    23   20   21 1  
    24   20   25 1  
    25   21   22 1  
    26   21   26 1  
    27   22   23 1  
    28   22   27 1  
    29   23   28 1  
    30   24   29 1  
    31   29   30 1  
    32   29   38 1  
    33   30   31 1  
    34   30   35 1  
    35   31   32 1  
    36   31   36 1  
    37   32   33 1  
    38   32   37 1  
    39   33   34 1  
    40   33   38 1  
    41   34   39 1  
    42    1   40 1  
    43    1   41 1  
    44    2   42 1  
    45    2   43 1  
    46    3   44 1  
    47    3   45 1  
    48    3   46 1  
    49    4   47 1  
    50    4   48 1  
    51    5   49 1  
    52    5   50 1  
    53    6   51 1  
    54    7   52 1  
    55    8   53 1  
    56   10   54 1  
    57   11   55 1  
    58   12   56 1  
    59   14   57 1  
    60   14   58 1  
    61   15   59 1  
    62   17   60 1  
    63   18   61 1  
    64   19   62 1  
    65   20   63 1  
    66   21   64 1  
    67   22   65 1  
    68   23   66 1  
    69   23   67 1  
    70   25   68 1  
    71   26   69 1  
    72   28   70 1  
    73   29   71 1  
    74   30   72 1  
    75   31   73 1  
    76   32   74 1  
    77   33   75 1  
    78   34   76 1  
    79   34   77 1  
    80   35   78 1  
    81   36   79 1  
    82   37   80 1  
    83   39   81 1  
@<TRIPOS>SUBSTRUCTURE
     1 OPM         1

