### 
### Created by X-TOOL on Mon Sep 10 21:13:02 2018
### 

@<TRIPOS>MOLECULE
3gy2_ligand
   38    39     1     0     0
SMALL
GAST_HUCK


@<TRIPOS>ATOM
      1 C1         -1.3590   15.3070   18.1730 C.ar      1 BRN         0.0504
      2 C2         -1.4670   13.9260   18.2200 C.ar      1 BRN        -0.0436
      3 C3         -1.7290   13.2440   17.0460 C.ar      1 BRN        -0.0570
      4 C4         -1.8850   13.9480   15.8520 C.ar      1 BRN         0.0241
      5 C5         -1.7850   15.3400   15.8080 C.ar      1 BRN        -0.0570
      6 C6         -1.5080   16.0210   16.9890 C.ar      1 BRN        -0.0436
      7 C7         -2.1850   13.1850   14.6090 C.cat     1 BRN         0.2346
      8 NA         -2.8060   13.7420   13.6570 N.pl3     1 BRN        -0.2723
      9 NB         -1.8170   11.9080   14.5290 N.pl3     1 BRN        -0.2723
     10 N1         -1.1240   15.9530   19.3140 N.2       1 BRN        -0.1832
     11 N          -0.1060   16.7440   19.4670 N.2       1 BRN        -0.0589
     12 N1'        -0.2690   17.6320   20.3050 N.pl3     1 BRN        -0.1720
     13 C1'         0.7740   18.4940   20.5940 C.ar      1 BRN         0.0877
     14 C2'         1.9990   18.3640   19.9350 C.ar      1 BRN        -0.0346
     15 C3'         3.0340   19.2290   20.2600 C.ar      1 BRN        -0.0650
     16 C4'         2.8190   20.1830   21.2550 C.ar      1 BRN         0.0150
     17 C5'         1.5990   20.3020   21.9100 C.ar      1 BRN        -0.0650
     18 C6'         0.5640   19.4460   21.5840 C.ar      1 BRN        -0.0346
     19 C7'         3.9220   21.1130   21.6240 C.cat     1 BRN         0.2297
     20 NA'         4.7550   21.4260   20.7390 N.pl3     1 BRN        -0.2733
     21 NB'         4.0240   21.5830   22.8690 N.pl3     1 BRN        -0.2733
     22 H1         -1.3487   13.3925   19.1562 H         1 BRN         0.0615
     23 H2         -1.8131   12.1633   17.0536 H         1 BRN         0.0613
     24 H3         -1.9199   15.8770   14.8761 H         1 BRN         0.0613
     25 H4         -1.4090   17.1005   16.9863 H         1 BRN         0.0615
     26 H5         -3.0129   13.2131   12.7977 H         1 BRN         0.3181
     27 H6         -3.1045   14.7242   13.7416 H         1 BRN         0.3181
     28 H7         -1.3122   11.4675   15.3113 H         1 BRN         0.3181
     29 H8         -2.0371   11.3605   13.6848 H         1 BRN         0.3181
     30 H9         -1.1740   17.7320   20.7865 H         1 BRN         0.2473
     31 H10         2.1389   17.5983   19.1806 H         1 BRN         0.0547
     32 H11         3.9893   19.1649   19.7517 H         1 BRN         0.0590
     33 H12         1.4602   21.0610   22.6714 H         1 BRN         0.0590
     34 H13        -0.3920   19.5159   22.0903 H         1 BRN         0.0547
     35 H14         5.5290   22.0672   20.9640 H         1 BRN         0.3180
     36 H15         4.6646   21.0416   19.7877 H         1 BRN         0.3180
     37 H16         3.3292   21.3132   23.5799 H         1 BRN         0.3180
     38 H17         4.7975   22.2155   23.1189 H         1 BRN         0.3180
@<TRIPOS>BOND
     1    1    2 ar 
     2    1    6 ar 
     3    1   10 1  
     4    2    3 ar 
     5    3    4 ar 
     6    4    5 ar 
     7    4    7 1  
     8    5    6 ar 
     9    7    8 ar 
    10    7    9 ar 
    11   10   11 2  
    12   11   12 1  
    13   12   13 1  
    14   13   14 ar 
    15   13   18 ar 
    16   14   15 ar 
    17   15   16 ar 
    18   16   17 ar 
    19   16   19 1  
    20   17   18 ar 
    21   19   20 ar 
    22   19   21 ar 
    23    2   22 1  
    24    3   23 1  
    25    5   24 1  
    26    6   25 1  
    27    8   26 1  
    28    8   27 1  
    29    9   28 1  
    30    9   29 1  
    31   12   30 1  
    32   14   31 1  
    33   15   32 1  
    34   17   33 1  
    35   18   34 1  
    36   20   35 1  
    37   20   36 1  
    38   21   37 1  
    39   21   38 1  
@<TRIPOS>SUBSTRUCTURE
     1 BRN         1

