### 
### Created by X-TOOL on Mon Sep 10 21:13:02 2018
### 

@<TRIPOS>MOLECULE
3gy3_ligand
   51    52     1     0     0
SMALL
GAST_HUCK


@<TRIPOS>ATOM
      1 C1         -9.6230   21.1830   50.0110 C.ar      1 PNT         0.0911
      2 C2         -9.6360   19.9500   49.3440 C.ar      1 PNT        -0.0332
      3 C3         -9.1680   18.8130   49.9850 C.ar      1 PNT        -0.0654
      4 C4         -8.6880   18.9130   51.2910 C.ar      1 PNT         0.0145
      5 C5         -8.6590   20.1490   51.9470 C.ar      1 PNT        -0.0654
      6 C6         -9.1160   21.2900   51.3060 C.ar      1 PNT        -0.0332
      7 C7        -10.6310   22.3540   48.1270 C.3       1 PNT         0.0704
      8 C8        -11.3130   23.7070   47.9560 C.3       1 PNT        -0.0250
      9 C9         -8.1870   17.7040   52.0120 C.cat     1 PNT         0.2294
     10 C10       -12.5790   23.8290   48.8010 C.3       1 PNT        -0.0482
     11 C1'       -13.3640   25.5950   51.6180 C.ar      1 PNT         0.0911
     12 C2'       -14.5970   26.2610   51.5370 C.ar      1 PNT        -0.0332
     13 C3'       -15.6400   25.9190   52.3850 C.ar      1 PNT        -0.0654
     14 C4'       -15.4450   24.9150   53.3170 C.ar      1 PNT         0.0145
     15 C5'       -14.2130   24.2490   53.4130 C.ar      1 PNT        -0.0654
     16 C6'       -13.1620   24.5850   52.5550 C.ar      1 PNT        -0.0332
     17 C7'       -12.5390   26.3230   49.4130 C.3       1 PNT         0.0704
     18 C8'       -13.1980   25.2060   48.5920 C.3       1 PNT        -0.0250
     19 C9'       -16.5630   24.5160   54.2220 C.cat     1 PNT         0.2294
     20 O1        -10.0520   22.3380   49.4220 O.3       1 PNT        -0.3180
     21 O1'       -12.3390   25.9400   50.7820 O.3       1 PNT        -0.3180
     22 N1         -8.5890   16.5530   51.6950 N.pl3     1 PNT        -0.2733
     23 N2         -7.3320   17.8570   53.0220 N.pl3     1 PNT        -0.2733
     24 N1'       -17.3890   25.3750   54.6390 N.pl3     1 PNT        -0.2733
     25 N2'       -16.6890   23.2220   54.5320 N.pl3     1 PNT        -0.2733
     26 H1        -10.0112   19.8856   48.3290 H         1 PNT         0.0542
     27 H2         -9.1751   17.8558   49.4763 H         1 PNT         0.0588
     28 H3         -8.2779   20.2143   52.9597 H         1 PNT         0.0588
     29 H4         -9.0798   22.2520   51.8043 H         1 PNT         0.0542
     30 H5         -9.8499   22.2262   47.3631 H         1 PNT         0.0614
     31 H6        -11.3702   21.5447   48.0345 H         1 PNT         0.0614
     32 H7        -11.5808   23.8368   46.8970 H         1 PNT         0.0291
     33 H8        -10.6099   24.4980   48.2561 H         1 PNT         0.0291
     34 H9        -12.3249   23.6986   49.8633 H         1 PNT         0.0267
     35 H10       -13.2983   23.0538   48.4981 H         1 PNT         0.0267
     36 H11       -14.7352   27.0491   50.8057 H         1 PNT         0.0542
     37 H12       -16.5934   26.4305   52.3186 H         1 PNT         0.0588
     38 H13       -14.0762   23.4711   54.1554 H         1 PNT         0.0588
     39 H14       -12.2100   24.0703   52.6177 H         1 PNT         0.0542
     40 H15       -13.1850   27.2128   49.3843 H         1 PNT         0.0614
     41 H16       -11.5633   26.5637   48.9658 H         1 PNT         0.0614
     42 H17       -14.2604   25.1528   48.8721 H         1 PNT         0.0291
     43 H18       -13.1123   25.4647   47.5263 H         1 PNT         0.0291
     44 H19        -8.2363   15.7272   52.1995 H         1 PNT         0.3180
     45 H20        -9.2704   16.4377   50.9313 H         1 PNT         0.3180
     46 H21        -7.0037   18.7984   53.2807 H         1 PNT         0.3180
     47 H22        -6.9992   17.0339   53.5442 H         1 PNT         0.3180
     48 H23       -18.1572   25.0902   55.2632 H         1 PNT         0.3180
     49 H24       -17.2946   26.3606   54.3550 H         1 PNT         0.3180
     50 H25       -16.0029   22.5390   54.1803 H         1 PNT         0.3180
     51 H26       -17.4722   22.9078   55.1226 H         1 PNT         0.3180
@<TRIPOS>BOND
     1    1    2 ar 
     2    1    6 ar 
     3   20    1 1  
     4    2    3 ar 
     5    3    4 ar 
     6    5    4 ar 
     7    4    9 1  
     8    6    5 ar 
     9    8    7 1  
    10    7   20 1  
    11   10    8 1  
    12    9   22 ar 
    13    9   23 ar 
    14   18   10 1  
    15   11   12 ar 
    16   11   16 ar 
    17   21   11 1  
    18   12   13 ar 
    19   13   14 ar 
    20   15   14 ar 
    21   14   19 1  
    22   16   15 ar 
    23   17   18 1  
    24   17   21 1  
    25   19   24 ar 
    26   19   25 ar 
    27    2   26 1  
    28    3   27 1  
    29    5   28 1  
    30    6   29 1  
    31    7   30 1  
    32    7   31 1  
    33    8   32 1  
    34    8   33 1  
    35   10   34 1  
    36   10   35 1  
    37   12   36 1  
    38   13   37 1  
    39   15   38 1  
    40   16   39 1  
    41   17   40 1  
    42   17   41 1  
    43   18   42 1  
    44   18   43 1  
    45   22   44 1  
    46   22   45 1  
    47   23   46 1  
    48   23   47 1  
    49   24   48 1  
    50   24   49 1  
    51   25   50 1  
    52   25   51 1  
@<TRIPOS>SUBSTRUCTURE
     1 PNT         1

