### 
### Created by X-TOOL on Mon Sep 10 21:13:02 2018
### 

@<TRIPOS>MOLECULE
3gy4_ligand
   20    20     1     0     0
SMALL
GAST_HUCK


@<TRIPOS>ATOM
      1 N2         -2.8520   13.9410   14.0880 N.pl3     1 PBZ        -0.2736
      2 N3         -1.7170   12.1590   14.9580 N.pl3     1 PBZ        -0.2736
      3 C7         -2.1180   13.4280   15.0660 C.cat     1 PBZ         0.2283
      4 C4         -1.7750   14.2680   16.2680 C.ar      1 PBZ         0.0122
      5 C2         -1.0460   14.4040   18.5710 C.ar      1 PBZ        -0.0447
      6 C3         -1.3480   13.6480   17.4430 C.ar      1 PBZ        -0.0685
      7 C5         -1.8870   15.6600   16.2240 C.ar      1 PBZ        -0.0685
      8 C6         -1.5760   16.4150   17.3610 C.ar      1 PBZ        -0.0447
      9 C1         -1.1650   15.7870   18.5320 C.ar      1 PBZ         0.0352
     10 N1         -0.8600   16.5180   19.6370 N.pl3     1 PBZ        -0.3369
     11 H1         -3.1754   14.9173   14.1445 H         1 PBZ         0.3179
     12 H2         -3.0988   13.3632   13.2718 H         1 PBZ         0.3179
     13 H3         -1.1458   11.7343   15.7025 H         1 PBZ         0.3179
     14 H4         -1.9789   11.6048   14.1302 H         1 PBZ         0.3179
     15 H5         -0.7178   13.9136   19.4803 H         1 PBZ         0.0515
     16 H6         -1.2509   12.5689   17.4770 H         1 PBZ         0.0582
     17 H7         -2.2128   16.1524   15.3149 H         1 PBZ         0.0582
     18 H8         -1.6560   17.4956   17.3286 H         1 PBZ         0.0515
     19 H9         -0.5565   16.0447   20.5000 H         1 PBZ         0.1719
     20 H10        -0.9325   17.5451   19.6112 H         1 PBZ         0.1719
@<TRIPOS>BOND
     1    1    3 ar 
     2    3    2 ar 
     3    3    4 1  
     4    4    6 ar 
     5    4    7 ar 
     6    6    5 ar 
     7    5    9 ar 
     8    7    8 ar 
     9    8    9 ar 
    10    9   10 1  
    11    1   11 1  
    12    1   12 1  
    13    2   13 1  
    14    2   14 1  
    15    5   15 1  
    16    6   16 1  
    17    7   17 1  
    18    8   18 1  
    19   10   19 1  
    20   10   20 1  
@<TRIPOS>SUBSTRUCTURE
     1 PBZ         1

