### 
### Created by X-TOOL on Mon Sep 10 21:13:02 2018
### 

@<TRIPOS>MOLECULE
3gy7_ligand
   18    18     1     0     0
SMALL
GAST_HUCK


@<TRIPOS>ATOM
      1 C1         -1.8340   14.0880   16.4010 C.ar      1 BEN         0.0260
      2 C2         -1.2040   13.4690   17.4820 C.ar      1 BEN        -0.0565
      3 C3         -0.8720   14.1820   18.6280 C.ar      1 BEN        -0.0618
      4 C4         -1.1670   15.5370   18.7190 C.ar      1 BEN        -0.0618
      5 C5         -1.7900   16.1650   17.6420 C.ar      1 BEN        -0.0618
      6 C6         -2.1330   15.4490   16.4910 C.ar      1 BEN        -0.0565
      7 C          -2.1740   13.3630   15.2370 C.cat     1 BEN         0.2356
      8 N1         -2.9450   13.8830   14.3060 N.pl3     1 BEN        -0.2721
      9 N2         -1.7370   12.1440   15.0050 N.pl3     1 BEN        -0.2721
     10 H1         -0.9692   12.4122   17.4266 H         1 BEN         0.0617
     11 H2         -0.3813   13.6794   19.4536 H         1 BEN         0.0618
     12 H3         -0.9166   16.0964   19.6131 H         1 BEN         0.0618
     13 H4         -2.0120   17.2246   17.6975 H         1 BEN         0.0618
     14 H5         -2.6308   15.9503   15.6689 H         1 BEN         0.0617
     15 H6         -3.1792   13.3350   13.4659 H         1 BEN         0.3181
     16 H7         -3.3143   14.8380   14.4174 H         1 BEN         0.3181
     17 H8         -1.1287   11.6756   15.6917 H         1 BEN         0.3181
     18 H9         -2.0031   11.6580   14.1367 H         1 BEN         0.3181
@<TRIPOS>BOND
     1    1    2 ar 
     2    1    6 ar 
     3    1    7 1  
     4    2    3 ar 
     5    3    4 ar 
     6    4    5 ar 
     7    5    6 ar 
     8    7    8 ar 
     9    7    9 ar 
    10    2   10 1  
    11    3   11 1  
    12    4   12 1  
    13    5   13 1  
    14    6   14 1  
    15    8   15 1  
    16    8   16 1  
    17    9   17 1  
    18    9   18 1  
@<TRIPOS>SUBSTRUCTURE
     1 BEN         1

