### 
### Created by X-TOOL on Mon Sep 10 21:13:01 2018
### 

@<TRIPOS>MOLECULE
3gyn_ligand
   70    73     1     0     0
SMALL
GAST_HUCK


@<TRIPOS>ATOM
      1 O33        95.8800    7.0940   63.7860 O.2       1 B42        -0.1485
      2 S36        96.4120    8.3350   64.3280 S.o2      1 B42         0.0628
      3 O32        95.9970    8.7650   65.6400 O.2       1 B42        -0.1485
      4 C21        98.1850    8.2380   64.4260 C.3       1 B42         0.0804
      5 N28        96.2480    9.6440   63.2180 N.am      1 B42        -0.1786
      6 C5         96.0730    9.4350   61.8080 C.ar      1 B42         0.0839
      7 C2         95.3600   10.3820   61.0690 C.ar      1 B42        -0.0296
      8 C3         96.6090    8.3140   61.1530 C.ar      1 B42        -0.0024
      9 C6         96.4260    8.1500   59.7730 C.ar      1 B42         0.1318
     10 S35        97.0830    6.7200   58.9770 S.o2      1 B42         0.0971
     11 O30        98.4090    6.4840   59.4990 O.2       1 B42        -0.1431
     12 O31        96.0370    5.7210   59.1000 O.2       1 B42        -0.1431
     13 N26        97.1570    7.2590   57.3750 N.am      1 B42        -0.1504
     14 C9         96.3400    8.3230   56.9020 C.2       1 B42         0.2032
     15 N25        95.4890    8.9840   57.6300 N.2       1 B42        -0.2537
     16 C4         95.7040    9.0870   59.0170 C.ar      1 B42         0.0620
     17 C1         95.1820   10.2130   59.6880 C.ar      1 B42        -0.0435
     18 C7         96.5490    8.6450   55.4730 C.2       1 B42         0.1653
     19 C10        97.1590    7.6460   54.5120 C.2       1 B42         0.2453
     20 O29        97.0210    6.4350   54.7100 O.2       1 B42        -0.3660
     21 N27        97.8450    8.1930   53.4260 N.am      1 B42        -0.2803
     22 C16        98.5510    7.3160   52.4870 C.3       1 B42         0.0432
     23 C14        99.9500    7.7820   52.0590 C.3       1 B42        -0.0298
     24 C12       100.0940    7.3780   50.5910 C.3       1 B42        -0.0509
     25 C13        97.7500    7.0720   51.2080 C.3       1 B42        -0.0298
     26 C11        98.6740    7.3720   50.0330 C.3       1 B42        -0.0509
     27 C15        97.8630    9.6430   53.1890 C.3       1 B42        -0.0103
     28 C17        96.5530   10.3410   53.6060 C.3       1 B42        -0.0335
     29 C18        96.7950   11.8730   53.5220 C.3       1 B42        -0.1094
     30 C8         96.1980    9.8690   55.0180 C.2       1 B42         0.0726
     31 O34        95.5090   10.7900   55.7900 O.3       1 B42        -0.3323
     32 C22        95.4340    9.9230   52.6220 C.3       1 B42        -0.0972
     33 C23        94.0570   10.4720   52.9820 C.3       1 B42        -0.0654
     34 C24        92.8980    9.7250   52.3000 C.3       1 B42        -0.0481
     35 C20        91.5600   10.1440   52.9050 C.3       1 B42        -0.0627
     36 C19        92.9020    9.9870   50.7860 C.3       1 B42        -0.0627
     37 H1         98.5886    7.9131   63.4557 H         1 B42         0.0489
     38 H2         98.4702    7.5134   65.2029 H         1 B42         0.0489
     39 H3         98.5929    9.2275   64.6799 H         1 B42         0.0489
     40 H4         96.2757   10.5804   63.5678 H         1 B42         0.2293
     41 H5         94.9426   11.2509   61.5648 H         1 B42         0.0543
     42 H6         97.1657    7.5737   61.7162 H         1 B42         0.0563
     43 H7         97.7932    6.8170   56.7426 H         1 B42         0.2291
     44 H8         94.6337   10.9607   59.1264 H         1 B42         0.0641
     45 H9         98.6722    6.3506   53.0002 H         1 B42         0.0557
     46 H10       100.7211    7.2889   52.6691 H         1 B42         0.0287
     47 H11       100.0396    8.8731   52.1663 H         1 B42         0.0287
     48 H12       100.5441    6.3777   50.5092 H         1 B42         0.0266
     49 H13       100.7171    8.1058   50.0506 H         1 B42         0.0266
     50 H14        96.8748    7.7377   51.1786 H         1 B42         0.0287
     51 H15        97.4157    6.0248   51.1667 H         1 B42         0.0287
     52 H16        98.5720    6.5950   49.2611 H         1 B42         0.0266
     53 H17        98.4316    8.3535   49.5996 H         1 B42         0.0266
     54 H18        98.0277    9.8202   52.1159 H         1 B42         0.0326
     55 H19        98.6916   10.0814   53.7645 H         1 B42         0.0326
     56 H20        95.8778   12.4056   53.8138 H         1 B42         0.0036
     57 H21        97.0651   12.1456   52.4911 H         1 B42         0.0036
     58 H22        97.6134   12.1528   54.2017 H         1 B42         0.0036
     59 H23        95.3314   10.4153   56.6448 H         1 B42         0.2560
     60 H24        95.3764    8.8246   52.6095 H         1 B42         0.0072
     61 H25        95.7008   10.2877   51.6191 H         1 B42         0.0072
     62 H26        94.0145   11.5290   52.6806 H         1 B42         0.0253
     63 H27        93.9263   10.3958   54.0715 H         1 B42         0.0253
     64 H28        93.0338    8.6463   52.4673 H         1 B42         0.0295
     65 H29        90.7451    9.5999   52.4050 H         1 B42         0.0232
     66 H30        91.4176   11.2259   52.7664 H         1 B42         0.0232
     67 H31        91.5533    9.9079   53.9793 H         1 B42         0.0232
     68 H32        93.8705    9.6810   50.3635 H         1 B42         0.0232
     69 H33        92.7427   11.0592   50.5990 H         1 B42         0.0232
     70 H34        92.0958    9.4083   50.3116 H         1 B42         0.0232
@<TRIPOS>BOND
     1    1    2 2  
     2    2    3 2  
     3    2    4 1  
     4    2    5 am 
     5    5    6 1  
     6    6    7 ar 
     7    6    8 ar 
     8    7   17 ar 
     9    8    9 ar 
    10    9   10 1  
    11    9   16 ar 
    12   10   11 2  
    13   10   12 2  
    14   10   13 am 
    15   13   14 1  
    16   14   15 2  
    17   14   18 1  
    18   15   16 1  
    19   16   17 ar 
    20   18   19 1  
    21   18   30 2  
    22   19   20 2  
    23   19   21 am 
    24   21   22 1  
    25   21   27 1  
    26   22   23 1  
    27   22   25 1  
    28   23   24 1  
    29   24   26 1  
    30   25   26 1  
    31   27   28 1  
    32   28   29 1  
    33   28   30 1  
    34   28   32 1  
    35   30   31 1  
    36   32   33 1  
    37   33   34 1  
    38   34   35 1  
    39   34   36 1  
    40    4   37 1  
    41    4   38 1  
    42    4   39 1  
    43    5   40 1  
    44    7   41 1  
    45    8   42 1  
    46   13   43 1  
    47   17   44 1  
    48   22   45 1  
    49   23   46 1  
    50   23   47 1  
    51   24   48 1  
    52   24   49 1  
    53   25   50 1  
    54   25   51 1  
    55   26   52 1  
    56   26   53 1  
    57   27   54 1  
    58   27   55 1  
    59   29   56 1  
    60   29   57 1  
    61   29   58 1  
    62   31   59 1  
    63   32   60 1  
    64   32   61 1  
    65   33   62 1  
    66   33   63 1  
    67   34   64 1  
    68   35   65 1  
    69   35   66 1  
    70   35   67 1  
    71   36   68 1  
    72   36   69 1  
    73   36   70 1  
@<TRIPOS>SUBSTRUCTURE
     1 B42         1

