### 
### Created by X-TOOL on Mon Sep 10 21:13:00 2018
### 

@<TRIPOS>MOLECULE
3gz9_ligand
   60    62     1     0     0
SMALL
GAST_HUCK


@<TRIPOS>ATOM
      1 O22        38.6210   77.7970   -5.1200 O.co2     1 D32        -0.5663
      2 C17        38.0720   76.7800   -5.5820 C.2       1 D32         0.0648
      3 O21        38.7470   76.1040   -6.3480 O.co2     1 D32        -0.5663
      4 C14        36.6200   76.4590   -5.3700 C.3       1 D32         0.1193
      5 O11        36.3070   75.2270   -6.0720 O.3       1 D32        -0.3137
      6 C5         36.6560   74.0030   -5.4790 C.ar      1 D32         0.0816
      7 C10        37.5940   73.7930   -4.4870 C.ar      1 D32        -0.0516
      8 C8         37.8940   72.4700   -3.9420 C.ar      1 D32        -0.0697
      9 C2         36.0120   72.8890   -5.9740 C.ar      1 D32        -0.0204
     10 C6         35.0320   73.0790   -7.1090 C.3       1 D32        -0.0372
     11 C1         36.3150   71.6140   -5.5190 C.ar      1 D32        -0.0383
     12 C4         35.5610   70.5040   -6.1810 C.3       1 D32        -0.0377
     13 C3         37.2230   71.3750   -4.4900 C.ar      1 D32         0.0109
     14 S7         37.5160   69.7580   -3.9510 S.3       1 D32        -0.0680
     15 C13        36.5170   69.5570   -2.5690 C.ar      1 D32         0.0489
     16 C16        35.9150   70.6320   -1.9370 C.ar      1 D32        -0.0628
     17 C20        35.0710   70.4920   -0.7940 C.ar      1 D32        -0.0743
     18 C15        36.3070   68.3070   -2.0900 C.ar      1 D32         0.1020
     19 O1         36.9440   67.2320   -2.7270 O.3       1 D32        -0.3087
     20 C7         36.6170   65.9970   -2.0840 C.3       1 D32         0.0971
     21 C11        37.6110   65.7780   -1.0390 C.2       1 D32        -0.0594
     22 C19        38.5250   65.5050   -0.1680 C.2       1 D32        -0.1150
     23 C18        35.4780   68.1540   -0.9410 C.ar      1 D32        -0.0342
     24 C23        34.8770   69.2330   -0.2670 C.ar      1 D32        -0.0266
     25 C24        34.0070   69.0960    0.9760 C.3       1 D32         0.1082
     26 O25        32.9240   70.0100    0.8180 O.3       1 D32        -0.2819
     27 C26        31.6570   69.6870    0.3040 C.ar      1 D32         0.1317
     28 C28        30.5250   70.2170    0.9260 C.ar      1 D32         0.0018
     29 C30        29.2800   69.8970    0.4880 C.ar      1 D32        -0.0383
     30 C27        31.4990   68.7860   -0.7460 C.ar      1 D32         0.0018
     31 C29        30.2340   68.4540   -1.1810 C.ar      1 D32        -0.0383
     32 C31        29.1320   69.0430   -0.5880 C.ar      1 D32         0.0326
     33 C32        27.7570   68.6210   -1.0470 C.3       1 D32         0.3627
     34 F34        27.0160   68.1680   -0.0370 F         1 D32        -0.2324
     35 F35        27.8370   67.5690   -1.8140 F         1 D32        -0.2324
     36 F33        27.1720   69.5830   -1.7000 F         1 D32        -0.2324
     37 H1         35.9990   77.2771   -5.7637 H         1 D32         0.0779
     38 H2         36.4221   76.3329   -4.2953 H         1 D32         0.0779
     39 H3         38.1323   74.6482   -4.0947 H         1 D32         0.0451
     40 H4         38.6125   72.3435   -3.1402 H         1 D32         0.0467
     41 H5         34.9239   74.1523   -7.3243 H         1 D32         0.0351
     42 H6         34.0549   72.6621   -6.8235 H         1 D32         0.0351
     43 H7         35.4040   72.5610   -8.0052 H         1 D32         0.0351
     44 H8         34.9052   70.9199   -6.9600 H         1 D32         0.0360
     45 H9         34.9519   69.9767   -5.4320 H         1 D32         0.0360
     46 H10        36.2716   69.7994   -6.6377 H         1 D32         0.0360
     47 H11        36.0930   71.6270   -2.3286 H         1 D32         0.0521
     48 H12        34.5928   71.3575   -0.3499 H         1 D32         0.0448
     49 H13        36.6482   65.1732   -2.8122 H         1 D32         0.0793
     50 H14        35.6119   66.0572   -1.6412 H         1 D32         0.0793
     51 H15        37.2489   66.6245   -0.4574 H         1 D32         0.0699
     52 H16        38.6228   66.1157    0.7283 H         1 D32         0.0291
     53 H17        39.1978   64.6641   -0.3300 H         1 D32         0.0291
     54 H18        35.3009   67.1524   -0.5661 H         1 D32         0.0462
     55 H19        34.5879   69.3478    1.8755 H         1 D32         0.0784
     56 H20        33.6262   68.0675    1.0613 H         1 D32         0.0784
     57 H21        30.6410   70.8908    1.7672 H         1 D32         0.0651
     58 H22        28.4067   70.3095    0.9801 H         1 D32         0.0825
     59 H23        32.3691   68.3467   -1.2202 H         1 D32         0.0651
     60 H24        30.1036   67.7360   -1.9826 H         1 D32         0.0825
@<TRIPOS>BOND
     1    1    2 ar 
     2    2    3 ar 
     3    2    4 1  
     4    4    5 1  
     5    5    6 1  
     6    6    7 ar 
     7    6    9 ar 
     8    7    8 ar 
     9    8   13 ar 
    10    9   10 1  
    11    9   11 ar 
    12   11   12 1  
    13   11   13 ar 
    14   13   14 1  
    15   14   15 1  
    16   15   16 ar 
    17   15   18 ar 
    18   16   17 ar 
    19   17   24 ar 
    20   18   19 1  
    21   18   23 ar 
    22   19   20 1  
    23   20   21 1  
    24   21   22 2  
    25   23   24 ar 
    26   24   25 1  
    27   25   26 1  
    28   26   27 1  
    29   27   28 ar 
    30   27   30 ar 
    31   28   29 ar 
    32   29   32 ar 
    33   30   31 ar 
    34   31   32 ar 
    35   32   33 1  
    36   33   34 1  
    37   33   35 1  
    38   33   36 1  
    39    4   37 1  
    40    4   38 1  
    41    7   39 1  
    42    8   40 1  
    43   10   41 1  
    44   10   42 1  
    45   10   43 1  
    46   12   44 1  
    47   12   45 1  
    48   12   46 1  
    49   16   47 1  
    50   17   48 1  
    51   20   49 1  
    52   20   50 1  
    53   21   51 1  
    54   22   52 1  
    55   22   53 1  
    56   23   54 1  
    57   25   55 1  
    58   25   56 1  
    59   28   57 1  
    60   29   58 1  
    61   30   59 1  
    62   31   60 1  
@<TRIPOS>SUBSTRUCTURE
     1 D32         1

