### 
### Created by X-TOOL on Mon Sep 10 21:13:04 2018
### 

@<TRIPOS>MOLECULE
3gzn_ligand
   56    60     1     0     0
SMALL
GAST_HUCK


@<TRIPOS>ATOM
      1 C4          8.5800   73.2300  -25.4140 C.3       1 B39         0.0684
      2 C5         10.1090   73.2160  -25.1580 C.3       1 B39        -0.0155
      3 C6         10.2850   72.6570  -23.7390 C.3       1 B39         0.0136
      4 C8         11.5860   73.1820  -23.0930 C.3       1 B39         0.0834
      5 C10         7.9010   70.2450  -27.3080 C.2       1 B39        -0.0543
      6 C13         7.3390   72.3500  -27.4280 C.ar      1 B39         0.1381
      7 C15         5.9590   73.2950  -29.0720 C.ar      1 B39         0.0500
      8 C17         6.3860   71.0090  -29.1870 C.ar      1 B39         0.1206
      9 C20         5.5140   67.8650  -28.5080 C.3       1 B39        -0.0118
     10 C21         6.5830   67.5450  -30.6010 C.ar      1 B39        -0.0153
     11 C22         6.1450   66.2860  -30.1530 C.ar      1 B39        -0.0385
     12 C24         6.4210   65.4170  -32.3740 C.ar      1 B39        -0.0755
     13 C26         6.9430   67.7350  -31.9350 C.ar      1 B39        -0.0646
     14 C19         5.8220   66.3810  -28.6590 C.3       1 B39        -0.0177
     15 C23         6.0640   65.2210  -31.0430 C.ar      1 B39        -0.0668
     16 C25         6.8570   66.6640  -32.8230 C.ar      1 B39        -0.0754
     17 C1          6.5720   68.5010  -29.4090 C.3       1 B39         0.0741
     18 N18         6.1730   69.8550  -29.8550 N.pl3     1 B39        -0.2885
     19 N16         5.7950   72.1250  -29.6730 N.ar      1 B39        -0.2730
     20 N14         6.7090   73.4130  -27.9720 N.ar      1 B39        -0.2771
     21 C12         7.1860   71.1100  -28.0330 C.ar      1 B39         0.0436
     22 C11         8.4850   70.8870  -26.2940 C.2       1 B39         0.0280
     23 N7          8.1450   72.1710  -26.3710 N.pl3     1 B39        -0.2493
     24 C3          7.9100   73.0320  -24.0410 C.3       1 B39         0.0035
     25 C2          9.0240   73.1210  -22.9990 C.3       1 B39         0.0631
     26 O9          9.1620   74.4740  -22.5970 O.3       1 B39        -0.3913
     27 O27        11.7750   72.5750  -21.8130 O.3       1 B39        -0.2225
     28 S28        12.9320   72.7020  -20.9710 S.o2      1 B39         0.1597
     29 O29        13.0530   74.1010  -20.4560 O.2       1 B39        -0.1270
     30 O30        12.7530   71.7840  -19.8030 O.2       1 B39        -0.1270
     31 N31        14.3130   72.2840  -21.7500 N.am      1 B39        -0.2415
     32 H           8.2906   74.1737  -25.8763 H         1 B39         0.0646
     33 H          10.5373   74.2142  -25.2490 H         1 B39         0.0299
     34 H          10.6307   72.6049  -25.8945 H         1 B39         0.0299
     35 H          10.3867   71.5721  -23.7136 H         1 B39         0.0350
     36 H          11.5151   74.2628  -22.9706 H         1 B39         0.0588
     37 H          12.4309   72.9347  -23.7357 H         1 B39         0.0588
     38 H           7.9932   69.1785  -27.5132 H         1 B39         0.0311
     39 H           5.4721   74.1792  -29.4834 H         1 B39         0.0975
     40 H           5.5594   68.2130  -27.4760 H         1 B39         0.0329
     41 H           4.4936   68.1254  -28.7893 H         1 B39         0.0329
     42 H           6.3591   64.5848  -33.0752 H         1 B39         0.0541
     43 H           7.2877   68.7101  -32.2793 H         1 B39         0.0538
     44 H           5.0036   65.7319  -28.3476 H         1 B39         0.0413
     45 H           6.6309   66.0358  -28.0151 H         1 B39         0.0413
     46 H           5.7245   64.2429  -30.7021 H         1 B39         0.0537
     47 H           7.1306   66.8008  -33.8692 H         1 B39         0.0541
     48 H           7.5342   68.6292  -28.9133 H         1 B39         0.0712
     49 H           5.6916   69.9226  -30.7517 H         1 B39         0.1890
     50 H           9.1274   70.4384  -25.5362 H         1 B39         0.0924
     51 H           7.4027   72.0687  -23.9892 H         1 B39         0.0320
     52 H           7.1486   73.7918  -23.8647 H         1 B39         0.0320
     53 H           8.8318   72.5216  -22.1091 H         1 B39         0.0598
     54 H           9.3843   75.0123  -23.3602 H         1 B39         0.2098
     55 H          15.0819   72.9508  -21.8183 H         1 B39         0.1654
     56 H          14.4032   71.3572  -22.1663 H         1 B39         0.1654
@<TRIPOS>BOND
     1    1    2 1  
     2   23    1 1  
     3    1   24 1  
     4    2    3 1  
     5    3    4 1  
     6    3   25 1  
     7    4   27 1  
     8   21    5 1  
     9    5   22 2  
    10    6   20 ar 
    11   21    6 ar 
    12    6   23 1  
    13   19    7 ar 
    14    7   20 ar 
    15   18    8 1  
    16    8   19 ar 
    17    8   21 ar 
    18    9   14 1  
    19   17    9 1  
    20   10   11 ar 
    21   10   13 ar 
    22   17   10 1  
    23   11   14 1  
    24   11   15 ar 
    25   15   12 ar 
    26   16   12 ar 
    27   13   16 ar 
    28   17   18 1  
    29   22   23 1  
    30   24   25 1  
    31   25   26 1  
    32   27   28 1  
    33   28   29 2  
    34   28   30 2  
    35   28   31 am 
    36    1   32 1  
    37    2   33 1  
    38    2   34 1  
    39    3   35 1  
    40    4   36 1  
    41    4   37 1  
    42    5   38 1  
    43    7   39 1  
    44    9   40 1  
    45    9   41 1  
    46   12   42 1  
    47   13   43 1  
    48   14   44 1  
    49   14   45 1  
    50   15   46 1  
    51   16   47 1  
    52   17   48 1  
    53   18   49 1  
    54   22   50 1  
    55   24   51 1  
    56   24   52 1  
    57   25   53 1  
    58   26   54 1  
    59   31   55 1  
    60   31   56 1  
@<TRIPOS>SUBSTRUCTURE
     1 B39         1

