### 
### Created by X-TOOL on Mon Sep 10 21:13:01 2018
### 

@<TRIPOS>MOLECULE
3h03_ligand
   31    31     1     0     0
SMALL
GAST_HUCK


@<TRIPOS>ATOM
      1 N1         21.5620   -2.3380   22.0240 N.am      1 UBP        -0.1820
      2 C2         22.6370   -2.6700   21.1380 C.2       1 UBP         0.3335
      3 O2         22.3590   -2.9250   19.9310 O.2       1 UBP        -0.3814
      4 N3         23.9910   -2.7000   21.5770 N.am      1 UBP        -0.1709
      5 C4         24.1850   -2.3680   22.9670 C.2       1 UBP         0.1848
      6 O4         25.3360   -2.3590   23.4520 O.2       1 UBP        -0.4122
      7 C5         23.1650   -2.0480   23.8300 C.2       1 UBP         0.0063
      8 C6         21.8870   -2.0400   23.3490 C.2       1 UBP         0.0566
      9 C7         20.1610   -2.3070   21.5610 C.3       1 UBP         0.1204
     10 C8         19.8870   -1.0010   20.7820 C.3       1 UBP         0.0566
     11 N8         20.2540    0.1680   21.7070 N.4       1 UBP         0.2347
     12 C9         18.4130   -0.9800   20.3680 C.2       1 UBP         0.0872
     13 O91        17.7820   -0.0460   20.8530 O.co2     1 UBP        -0.5642
     14 O92        17.9540   -1.8060   19.6420 O.co2     1 UBP        -0.5642
     15 C1         24.9720   -3.0750   20.5000 C.3       1 UBP         0.0703
     16 C3         26.4730   -3.1840   20.7200 C.3       1 UBP         0.0250
     17 C10        27.1730   -3.5670   19.4550 C.2       1 UBP         0.0371
     18 O3         27.1930   -2.7680   18.5390 O.co2     1 UBP        -0.5689
     19 O1         27.6720   -4.6720   19.3940 O.co2     1 UBP        -0.5689
     20 H1         23.3706   -1.8067   24.8718 H         1 UBP         0.0258
     21 H2         21.0791   -1.7881   24.0344 H         1 UBP         0.1177
     22 H3         19.4894   -2.3594   22.4306 H         1 UBP         0.0692
     23 H4         19.9764   -3.1686   20.9026 H         1 UBP         0.0692
     24 H5         20.5140   -0.9608   19.8791 H         1 UBP         0.1052
     25 H6         20.0870    1.0397   21.2292 H         1 UBP         0.2011
     26 H7         21.2279    0.1042   21.9590 H         1 UBP         0.2011
     27 H8         19.6880    0.1278   22.5401 H         1 UBP         0.2011
     28 H9         24.8405   -2.3282   19.7031 H         1 UBP         0.0595
     29 H10        24.6514   -4.0617   20.1344 H         1 UBP         0.0595
     30 H11        26.6699   -3.9487   21.4858 H         1 UBP         0.0454
     31 H12        26.8577   -2.2127   21.0642 H         1 UBP         0.0454
@<TRIPOS>BOND
     1    1    2 am 
     2    1    8 1  
     3    1    9 1  
     4    2    3 2  
     5    2    4 am 
     6    4    5 am 
     7    4   15 1  
     8    5    6 2  
     9    5    7 1  
    10    7    8 2  
    11    9   10 1  
    12   10   11 1  
    13   10   12 1  
    14   12   13 ar 
    15   12   14 ar 
    16   15   16 1  
    17   16   17 1  
    18   17   18 ar 
    19   17   19 ar 
    20    7   20 1  
    21    8   21 1  
    22    9   22 1  
    23    9   23 1  
    24   10   24 1  
    25   11   25 1  
    26   11   26 1  
    27   11   27 1  
    28   15   28 1  
    29   15   29 1  
    30   16   30 1  
    31   16   31 1  
@<TRIPOS>SUBSTRUCTURE
     1 UBP         1

