### 
### Created by X-TOOL on Mon Sep 10 21:13:01 2018
### 

@<TRIPOS>MOLECULE
3h06_ligand
   55    56     1     0     0
SMALL
GAST_HUCK


@<TRIPOS>ATOM
      1 C10        34.4200  -22.5340  -34.1430 C.3       1 VBP        -0.0180
      2 C11        34.4900  -21.2200  -34.8740 C.3       1 VBP        -0.0002
      3 C12        33.3900  -20.1720  -34.6740 C.3       1 VBP        -0.0436
      4 C13        33.4630  -18.8160  -35.4230 C.3       1 VBP        -0.0382
      5 C14        34.6350  -18.5250  -36.3630 C.3       1 VBP         0.0118
      6 C15        35.7400  -19.5940  -36.5570 C.3       1 VBP        -0.0382
      7 C16        35.6770  -20.9490  -35.8130 C.3       1 VBP        -0.0436
      8 C17        34.7150  -17.1990  -37.1000 C.2       1 VBP         0.0379
      9 C20        33.0280  -23.9510  -35.8460 C.3       1 VBP         0.1152
     10 C22        30.5160  -25.3840  -39.5530 C.3       1 VBP         0.2027
     11 N01        29.7490  -23.7760  -37.7920 N.4       1 VBP         0.2282
     12 C02        30.8830  -24.4780  -38.3830 C.3       1 VBP         0.0683
     13 C03        31.5090  -25.3790  -37.3420 C.3       1 VBP         0.0250
     14 N04        31.8100  -24.8070  -36.0750 N.4       1 VBP         0.2964
     15 C05        30.8690  -25.0820  -34.9500 C.3       1 VBP        -0.0158
     16 C06        31.1060  -24.5200  -33.5850 C.3       1 VBP         0.0572
     17 C07        32.3300  -23.6540  -33.3470 C.3       1 VBP         0.0954
     18 O08        32.5660  -23.1180  -32.0750 O.3       1 VBP        -0.3525
     19 N09        33.2860  -23.3680  -34.4690 N.4       1 VBP         0.3132
     20 O18        34.0400  -17.0750  -38.0790 O.co2     1 VBP        -0.5687
     21 O19        35.6480  -16.3030  -36.4720 O.co2     1 VBP        -0.5687
     22 O21        33.8980  -23.6970  -36.8740 O.3       1 VBP        -0.3125
     23 O23        31.3490  -25.5240  -40.3600 O.3       1 VBP        -0.3628
     24 O24        29.3250  -24.9700  -40.1620 O.3       1 VBP        -0.3628
     25 H1         34.3844  -22.3203  -33.0646 H         1 VBP         0.0821
     26 H2         35.3344  -23.0998  -34.3748 H         1 VBP         0.0821
     27 H3         33.9235  -21.6510  -35.7126 H         1 VBP         0.0353
     28 H4         33.3649  -19.9396  -33.5991 H         1 VBP         0.0271
     29 H5         32.4424  -20.6465  -34.9688 H         1 VBP         0.0271
     30 H6         33.4685  -18.0285  -34.6550 H         1 VBP         0.0286
     31 H7         32.5456  -18.7353  -36.0245 H         1 VBP         0.0286
     32 H8         34.0697  -18.9553  -37.2028 H         1 VBP         0.0466
     33 H9         36.6885  -19.1202  -36.2640 H         1 VBP         0.0286
     34 H10        35.7636  -19.8281  -37.6315 H         1 VBP         0.0286
     35 H11        35.6715  -21.7389  -36.5785 H         1 VBP         0.0271
     36 H12        36.5929  -21.0299  -35.2092 H         1 VBP         0.0271
     37 H13        33.6080  -24.8463  -35.5777 H         1 VBP         0.1854
     38 H14        30.3318  -26.3792  -39.1222 H         1 VBP         0.0967
     39 H15        30.0705  -23.2006  -37.0293 H         1 VBP         0.2001
     40 H16        29.0805  -24.4473  -37.4478 H         1 VBP         0.2001
     41 H17        29.3125  -23.1949  -38.4904 H         1 VBP         0.2001
     42 H18        31.6145  -23.7305  -38.7238 H         1 VBP         0.0954
     43 H19        32.4501  -25.7637  -37.7619 H         1 VBP         0.0875
     44 H20        30.8154  -26.2152  -37.1697 H         1 VBP         0.0875
     45 H21        31.2866  -23.9819  -36.3228 H         1 VBP         0.2127
     46 H22        30.8326  -26.1753  -34.8346 H         1 VBP         0.0820
     47 H23        29.8834  -24.7142  -35.2714 H         1 VBP         0.0820
     48 H24        31.1750  -25.3724  -32.8932 H         1 VBP         0.0399
     49 H25        30.2261  -23.9111  -33.3300 H         1 VBP         0.0399
     50 H26        32.9115  -24.5487  -33.0800 H         1 VBP         0.1189
     51 H27        31.8742  -23.3914  -31.4841 H         1 VBP         0.2154
     52 H28        32.7590  -22.5495  -34.7305 H         1 VBP         0.2155
     53 H29        33.5924  -24.1327  -37.6609 H         1 VBP         0.2213
     54 H30        31.4963  -24.6993  -40.8078 H         1 VBP         0.2127
     55 H31        28.6537  -24.8587  -39.4990 H         1 VBP         0.2127
@<TRIPOS>BOND
     1    1    2 1  
     2   19    1 1  
     3    2    3 1  
     4    2    7 1  
     5    3    4 1  
     6    4    5 1  
     7    6    5 1  
     8    5    8 1  
     9    7    6 1  
    10    8   20 ar 
    11    8   21 ar 
    12   14    9 1  
    13    9   19 1  
    14    9   22 1  
    15   12   10 1  
    16   10   23 1  
    17   10   24 1  
    18   12   11 1  
    19   13   12 1  
    20   13   14 1  
    21   14   15 1  
    22   15   16 1  
    23   16   17 1  
    24   17   18 1  
    25   17   19 1  
    26    1   25 1  
    27    1   26 1  
    28    2   27 1  
    29    3   28 1  
    30    3   29 1  
    31    4   30 1  
    32    4   31 1  
    33    5   32 1  
    34    6   33 1  
    35    6   34 1  
    36    7   35 1  
    37    7   36 1  
    38    9   37 1  
    39   10   38 1  
    40   11   39 1  
    41   11   40 1  
    42   11   41 1  
    43   12   42 1  
    44   13   43 1  
    45   13   44 1  
    46   14   45 1  
    47   15   46 1  
    48   15   47 1  
    49   16   48 1  
    50   16   49 1  
    51   17   50 1  
    52   18   51 1  
    53   19   52 1  
    54   22   53 1  
    55   23   54 1  
    56   24   55 1  
@<TRIPOS>SUBSTRUCTURE
     1 VBP         1

