### 
### Created by X-TOOL on Mon Sep 10 21:13:02 2018
### 

@<TRIPOS>MOLECULE
3h0a_ligand
   68    71     1     0     0
SMALL
GAST_HUCK


@<TRIPOS>ATOM
      1 C2         67.7960   -2.2630    0.1760 C.ar      1 D30        -0.0171
      2 C3         69.5260   -3.7280    0.9670 C.ar      1 D30         0.0112
      3 C6         66.9680   -0.9990    0.2270 C.3       1 D30        -0.0250
      4 C7         74.8550   -5.0370    3.4270 C.3       1 D30         0.1292
      5 C9         68.3300   -0.3150    2.2800 C.3       1 D30        -0.0441
      6 C10        68.1930   -4.3790   -0.9350 C.ar      1 D30        -0.0516
      7 C20        73.3080   -2.4420   -0.5730 C.ar      1 D30        -0.0743
      8 C21        76.2830   -1.7320    5.3130 C.3       1 D30         0.0064
      9 C26        77.7050   -3.6620   -1.9010 C.ar      1 D30         0.1317
     10 C27        78.2800   -4.9210   -2.0640 C.ar      1 D30         0.0018
     11 C28        78.4050   -2.5290   -2.3000 C.ar      1 D30         0.0018
     12 C29        79.5520   -5.0280   -2.6240 C.ar      1 D30        -0.0383
     13 C30        79.6740   -2.6250   -2.8450 C.ar      1 D30        -0.0383
     14 C31        80.2490   -3.8790   -3.0160 C.ar      1 D30         0.0326
     15 C32        81.6390   -3.9960   -3.5930 C.3       1 D30         0.3627
     16 O21        66.8580   -4.9800   -4.5200 O.co2     1 D30        -0.5663
     17 C17        66.9860   -3.9890   -3.8430 C.2       1 D30         0.0648
     18 O22        67.8730   -3.1460   -4.1290 O.co2     1 D30        -0.5663
     19 C14        66.0090   -3.8460   -2.6990 C.3       1 D30         0.1193
     20 O11        66.4610   -2.8950   -1.7220 O.3       1 D30        -0.3137
     21 C5         67.4780   -3.1880   -0.8130 C.ar      1 D30         0.0819
     22 C8         69.2210   -4.6520   -0.0490 C.ar      1 D30        -0.0697
     23 C12        67.6960    0.1080    0.9570 C.3       1 D30        -0.0445
     24 C4         69.2170   -1.5500    2.1770 C.3       1 D30        -0.0255
     25 C1         68.8290   -2.5210    1.0760 C.ar      1 D30        -0.0350
     26 S7         70.8040   -4.1110    2.0240 S.3       1 D30        -0.0680
     27 C13        72.2230   -3.6050    1.2030 C.ar      1 D30         0.0487
     28 C16        72.1350   -2.8230    0.0660 C.ar      1 D30        -0.0628
     29 C15        73.4920   -3.9420    1.6980 C.ar      1 D30         0.1000
     30 O1         73.6020   -4.7100    2.8260 O.3       1 D30        -0.3097
     31 C11        75.4030   -3.8110    3.9790 C.1       1 D30        -0.0692
     32 C19        75.7950   -2.8360    4.5050 C.1       1 D30        -0.0998
     33 C22        77.6410   -2.1210    5.9070 C.3       1 D30        -0.0543
     34 C18        74.6460   -3.5520    1.0430 C.ar      1 D30        -0.0344
     35 C23        74.5560   -2.7800   -0.0910 C.ar      1 D30        -0.0266
     36 C24        75.8410   -2.3550   -0.8060 C.3       1 D30         0.1082
     37 O25        76.4440   -3.5410   -1.3480 O.3       1 D30        -0.2819
     38 F35        81.6430   -4.9440   -4.5050 F         1 D30        -0.2324
     39 F33        82.5200   -4.3270   -2.6460 F         1 D30        -0.2324
     40 F34        82.0000   -2.8420   -4.1130 F         1 D30        -0.2324
     41 H1         66.0231   -1.2108    0.7488 H         1 D30         0.0386
     42 H2         66.7537   -0.6697   -0.8004 H         1 D30         0.0386
     43 H3         75.5395   -5.4478    2.6703 H         1 D30         0.0749
     44 H4         74.7067   -5.7767    4.2275 H         1 D30         0.0749
     45 H5         67.5237   -0.5275    2.9974 H         1 D30         0.0285
     46 H6         68.9418    0.5198    2.6526 H         1 D30         0.0285
     47 H7         67.9455   -5.0863   -1.7183 H         1 D30         0.0451
     48 H8         73.2405   -1.8578   -1.4836 H         1 D30         0.0448
     49 H9         75.5701   -1.5236    6.1244 H         1 D30         0.0395
     50 H10        76.3965   -0.8358    4.6854 H         1 D30         0.0395
     51 H11        77.7419   -5.8107   -1.7575 H         1 D30         0.0651
     52 H12        77.9489   -1.5527   -2.1822 H         1 D30         0.0651
     53 H13        80.0032   -6.0047   -2.7565 H         1 D30         0.0825
     54 H14        80.2139   -1.7311   -3.1355 H         1 D30         0.0825
     55 H15        65.8865   -4.8247   -2.2120 H         1 D30         0.0779
     56 H16        65.0403   -3.5115   -3.0987 H         1 D30         0.0779
     57 H17        69.7874   -5.5720   -0.1375 H         1 D30         0.0467
     58 H18        66.9768    0.9143    1.1632 H         1 D30         0.0284
     59 H19        68.4928    0.4866    0.2999 H         1 D30         0.0284
     60 H20        69.1719   -2.0851    3.1370 H         1 D30         0.0395
     61 H21        70.2486   -1.2162    1.9913 H         1 D30         0.0395
     62 H22        71.1700   -2.5135   -0.3189 H         1 D30         0.0521
     63 H23        78.0229   -1.2929    6.5222 H         1 D30         0.0239
     64 H24        78.3507   -2.3307    5.0932 H         1 D30         0.0239
     65 H25        77.5243   -3.0185    6.5321 H         1 D30         0.0239
     66 H26        75.6160   -3.8533    1.4216 H         1 D30         0.0462
     67 H27        76.5278   -1.8768   -0.0922 H         1 D30         0.0784
     68 H28        75.6046   -1.6496   -1.6163 H         1 D30         0.0784
@<TRIPOS>BOND
     1    1    3 1  
     2    1   21 ar 
     3   25    1 ar 
     4    2   22 ar 
     5    2   25 ar 
     6   26    2 1  
     7    3   23 1  
     8   30    4 1  
     9    4   31 1  
    10    5   23 1  
    11   24    5 1  
    12    6   21 ar 
    13   22    6 ar 
    14    7   28 ar 
    15   35    7 ar 
    16   32    8 1  
    17    8   33 1  
    18    9   10 ar 
    19    9   11 ar 
    20   37    9 1  
    21   10   12 ar 
    22   11   13 ar 
    23   12   14 ar 
    24   13   14 ar 
    25   14   15 1  
    26   15   38 1  
    27   15   39 1  
    28   15   40 1  
    29   17   16 ar 
    30   17   18 ar 
    31   19   17 1  
    32   20   19 1  
    33   21   20 1  
    34   25   24 1  
    35   27   26 1  
    36   28   27 ar 
    37   29   27 ar 
    38   29   30 1  
    39   34   29 ar 
    40   31   32 3  
    41   35   34 ar 
    42   36   35 1  
    43   36   37 1  
    44    3   41 1  
    45    3   42 1  
    46    4   43 1  
    47    4   44 1  
    48    5   45 1  
    49    5   46 1  
    50    6   47 1  
    51    7   48 1  
    52    8   49 1  
    53    8   50 1  
    54   10   51 1  
    55   11   52 1  
    56   12   53 1  
    57   13   54 1  
    58   19   55 1  
    59   19   56 1  
    60   22   57 1  
    61   23   58 1  
    62   23   59 1  
    63   24   60 1  
    64   24   61 1  
    65   28   62 1  
    66   33   63 1  
    67   33   64 1  
    68   33   65 1  
    69   34   66 1  
    70   36   67 1  
    71   36   68 1  
@<TRIPOS>SUBSTRUCTURE
     1 D30         1

