### 
### Created by X-TOOL on Mon Sep 10 21:13:01 2018
### 

@<TRIPOS>MOLECULE
3h0b_ligand
   47    49     1     0     0
SMALL
GAST_HUCK


@<TRIPOS>ATOM
      1 C1          7.4150    5.7830   18.0910 C.ar      1 B35         0.1171
      2 C2          8.0960    5.7570   19.3010 C.ar      1 B35        -0.0409
      3 C3          7.7450    4.8420   20.2820 C.ar      1 B35        -0.0711
      4 C4          6.7100    3.9390   20.0920 C.ar      1 B35        -0.0443
      5 N           8.6770    2.2460   21.7390 N.2       1 B35        -0.3261
      6 C5          6.0310    3.9570   18.8860 C.ar      1 B35        -0.0334
      7 C6          8.7770    7.5120   17.2400 C.3       1 B35         0.0571
      8 C7          6.3670    2.9600   21.1830 C.3       1 B35         0.0163
      9 C8          7.4550    1.9290   21.2620 C.2       1 B35        -0.0157
     10 C           6.3830    4.8740   17.9010 C.ar      1 B35         0.1534
     11 O           7.6560    6.6090   17.0760 O.3       1 B35        -0.3254
     12 F           5.7010    4.8720   16.7440 F         1 B35        -0.1918
     13 C9          6.1120    3.5820   22.5570 C.3       1 B35        -0.0030
     14 C10         5.2560    2.6530   23.3780 C.ar      1 B35        -0.0015
     15 C11         5.7990    2.0000   24.4810 C.ar      1 B35        -0.0254
     16 C12         5.0020    1.1370   25.2290 C.ar      1 B35         0.1816
     17 C13         3.6740    0.9060   24.8900 C.ar      1 B35        -0.0339
     18 C14         3.1460    1.5600   23.7820 C.ar      1 B35        -0.0302
     19 C15         3.9310    2.4260   23.0260 C.ar      1 B35         0.0999
     20 O16         3.4930    3.0830   21.9570 O.3       1 B35        -0.3203
     21 C17         2.0540    3.2420   21.8410 C.3       1 B35         0.0594
     22 C18         9.4860    1.1680   21.7100 C.2       1 B35         0.1979
     23 N19         8.7630    0.1510   21.2020 N.pl3     1 B35        -0.2587
     24 C20         7.5170    0.5860   20.9150 C.2       1 B35         0.0161
     25 N21        10.7650    1.1140   22.1110 N.pl3     1 B35        -0.2975
     26 N22         5.5240    0.5180   26.2920 N.2       1 B35         0.3045
     27 O23         6.7180    1.0200   26.7920 O.2       1 B35         0.1731
     28 O24         4.8430   -0.5760   26.8120 O.2       1 B35         0.1731
     29 H1          8.9057    6.4553   19.4794 H         1 B35         0.0514
     30 H2          8.2917    4.8324   21.2180 H         1 B35         0.0498
     31 H3          5.2238    3.2555   18.7088 H         1 B35         0.0517
     32 H4          8.8760    8.1404   16.3426 H         1 B35         0.0573
     33 H5          9.6991    6.9296   17.3833 H         1 B35         0.0573
     34 H6          8.6071    8.1517   18.1186 H         1 B35         0.0573
     35 H7          5.4370    2.4535   20.8853 H         1 B35         0.0561
     36 H8          5.5940    4.5445   22.4333 H         1 B35         0.0442
     37 H9          7.0716    3.7452   23.0694 H         1 B35         0.0442
     38 H10         6.8350    2.1621   24.7558 H         1 B35         0.0599
     39 H11         3.0626    0.2302   25.4770 H         1 B35         0.0611
     40 H12         2.1116    1.3935   23.5040 H         1 B35         0.0541
     41 H13         1.8195    3.7982   20.9214 H         1 B35         0.0578
     42 H14         1.6750    3.7970   22.7118 H         1 B35         0.0578
     43 H15         1.5776    2.2513   21.8018 H         1 B35         0.0578
     44 H16         9.1069   -0.8088   21.0553 H         1 B35         0.2302
     45 H17         6.7092   -0.0076   20.4895 H         1 B35         0.0611
     46 H18        11.2231    1.9568   22.4862 H         1 B35         0.1804
     47 H19        11.2889    0.2298   22.0437 H         1 B35         0.1804
@<TRIPOS>BOND
     1    2    1 ar 
     2   10    1 ar 
     3    1   11 1  
     4    3    2 ar 
     5    4    3 ar 
     6    4    6 ar 
     7    8    4 1  
     8    9    5 1  
     9    5   22 2  
    10    6   10 ar 
    11   11    7 1  
    12    8    9 1  
    13    8   13 1  
    14    9   24 2  
    15   10   12 1  
    16   13   14 1  
    17   14   15 ar 
    18   14   19 ar 
    19   15   16 ar 
    20   16   17 ar 
    21   16   26 1  
    22   17   18 ar 
    23   18   19 ar 
    24   19   20 1  
    25   20   21 1  
    26   22   23 1  
    27   22   25 1  
    28   23   24 1  
    29   26   27 2  
    30   26   28 2  
    31    2   29 1  
    32    3   30 1  
    33    6   31 1  
    34    7   32 1  
    35    7   33 1  
    36    7   34 1  
    37    8   35 1  
    38   13   36 1  
    39   13   37 1  
    40   15   38 1  
    41   17   39 1  
    42   18   40 1  
    43   21   41 1  
    44   21   42 1  
    45   21   43 1  
    46   23   44 1  
    47   24   45 1  
    48   25   46 1  
    49   25   47 1  
@<TRIPOS>SUBSTRUCTURE
     1 B35         1

