### 
### Created by X-TOOL on Mon Sep 10 21:13:00 2018
### 

@<TRIPOS>MOLECULE
3h0e_ligand
   61    65     1     0     0
SMALL
GAST_HUCK


@<TRIPOS>ATOM
      1 C22        21.2150   59.4650    7.6640 C.ar      1 H0E        -0.0706
      2 O1         28.0630   49.4410   14.1630 O.3       1 H0E        -0.3560
      3 C15        24.7570   56.2660   11.7350 C.3       1 H0E        -0.0290
      4 C14        26.2530   56.4910   11.8210 C.3       1 H0E        -0.0341
      5 C20        23.0420   58.8010    6.2340 C.ar      1 H0E        -0.0706
      6 N1         26.8160   49.6010   16.9730 N.2       1 H0E        -0.3724
      7 S1         25.8060   52.9620   10.1230 S.o2      1 H0E         0.0648
      8 C16        24.5940   55.3500   10.5150 C.3       1 H0E         0.0684
      9 C17        24.2710   56.1170    9.2290 C.3       1 H0E         0.0902
     10 C11        25.1510   51.2260   14.3120 C.ar      1 H0E         0.0832
     11 C5         27.3180   50.5430   14.6910 C.3       1 H0E         0.1714
     12 C4         26.4220   50.1850   15.8950 C.2       1 H0E         0.1499
     13 C3         25.7510   49.4180   17.9880 C.3       1 H0E        -0.0195
     14 C6         26.4280   51.1860   13.6970 C.ar      1 H0E         0.0372
     15 C1         25.2740   51.8680   18.2730 C.3       1 H0E        -0.0574
     16 C2         24.6430   50.5040   17.9320 C.3       1 H0E        -0.0069
     17 C9         24.3250   52.3260   12.3450 C.ar      1 H0E        -0.0501
     18 C8         25.6120   52.2750   11.7570 C.ar      1 H0E         0.0920
     19 C7         26.6950   51.6970   12.4350 C.ar      1 H0E        -0.0357
     20 C10        24.0950   51.8000   13.6270 C.ar      1 H0E        -0.0396
     21 N2         25.1620   50.6500   15.5780 N.pl3     1 H0E        -0.2261
     22 C12        24.0590   50.5170   16.4970 C.3       1 H0E         0.0603
     23 O2         27.0850   52.5260    9.6050 O.2       1 H0E        -0.1515
     24 O3         24.5820   52.7120    9.3910 O.2       1 H0E        -0.1515
     25 N3         25.9100   54.6370   10.3850 N.am      1 H0E        -0.2297
     26 C13        26.8180   55.1270   11.4600 C.3       1 H0E         0.0300
     27 O4         23.0860   56.8940    9.4170 O.3       1 H0E        -0.3161
     28 C18        22.7700   57.7520    8.4000 C.ar      1 H0E         0.0912
     29 C19        23.4690   57.8820    7.1980 C.ar      1 H0E        -0.0331
     30 C21        21.9160   59.5900    6.4660 C.ar      1 H0E        -0.0729
     31 C23        21.6410   58.5470    8.6280 C.ar      1 H0E        -0.0331
     32 C24        23.5300   50.2320   18.9660 C.3       1 H0E        -0.0574
     33 H1         20.3407   60.0788    7.8479 H         1 H0E         0.0589
     34 H2         27.4626   48.7647   13.8720 H         1 H0E         0.2180
     35 H3         24.2257   57.2173   11.5844 H         1 H0E         0.0285
     36 H4         24.3814   55.7763   12.6456 H         1 H0E         0.0285
     37 H5         26.5516   56.7875   12.8373 H         1 H0E         0.0281
     38 H6         26.5805   57.2582   11.1040 H         1 H0E         0.0281
     39 H7         23.5884   58.9002    5.3031 H         1 H0E         0.0589
     40 H8         23.7877   54.6256   10.7023 H         1 H0E         0.0541
     41 H9         24.1137   55.4031    8.4070 H         1 H0E         0.0633
     42 H10        25.1098   56.7837    8.9802 H         1 H0E         0.0633
     43 H11        28.0548   51.2885   15.0248 H         1 H0E         0.1051
     44 H12        26.2136   49.4449   18.9856 H         1 H0E         0.0302
     45 H13        25.2829   48.4356   17.8272 H         1 H0E         0.0302
     46 H14        24.5003   52.6491   18.2374 H         1 H0E         0.0236
     47 H15        26.0630   52.1000   17.5424 H         1 H0E         0.0236
     48 H16        25.7091   51.8286   19.2825 H         1 H0E         0.0236
     49 H17        23.5053   52.7775   11.7979 H         1 H0E         0.0558
     50 H18        27.6857   51.6520   11.9974 H         1 H0E         0.0556
     51 H19        23.1074   51.8431   14.0718 H         1 H0E         0.0526
     52 H20        23.3694   51.3660   16.3805 H         1 H0E         0.0590
     53 H21        23.5204   49.5778   16.3028 H         1 H0E         0.0590
     54 H22        26.7966   54.4521   12.3283 H         1 H0E         0.0478
     55 H23        27.8501   55.2161   11.0902 H         1 H0E         0.0478
     56 H24        24.3439   57.2697    7.0118 H         1 H0E         0.0542
     57 H25        21.5864   60.2995    5.7157 H         1 H0E         0.0523
     58 H26        21.0933   58.4501    9.5584 H         1 H0E         0.0542
     59 H27        23.9626   50.2264   19.9774 H         1 H0E         0.0236
     60 H28        23.0682   49.2552   18.7594 H         1 H0E         0.0236
     61 H29        22.7660   51.0205   18.8984 H         1 H0E         0.0236
@<TRIPOS>BOND
     1   30    1 ar 
     2    1   31 ar 
     3   11    2 1  
     4    3    4 1  
     5    8    3 1  
     6   26    4 1  
     7   29    5 ar 
     8    5   30 ar 
     9   12    6 2  
    10    6   13 1  
    11    7   18 1  
    12    7   23 2  
    13    7   24 2  
    14   25    7 am 
    15    9    8 1  
    16    8   25 1  
    17   27    9 1  
    18   14   10 ar 
    19   20   10 ar 
    20   10   21 1  
    21   11   12 1  
    22   14   11 1  
    23   12   21 1  
    24   13   16 1  
    25   19   14 ar 
    26   16   15 1  
    27   22   16 1  
    28   16   32 1  
    29   18   17 ar 
    30   17   20 ar 
    31   18   19 ar 
    32   21   22 1  
    33   25   26 1  
    34   28   27 1  
    35   28   29 ar 
    36   28   31 ar 
    37    1   33 1  
    38    2   34 1  
    39    3   35 1  
    40    3   36 1  
    41    4   37 1  
    42    4   38 1  
    43    5   39 1  
    44    8   40 1  
    45    9   41 1  
    46    9   42 1  
    47   11   43 1  
    48   13   44 1  
    49   13   45 1  
    50   15   46 1  
    51   15   47 1  
    52   15   48 1  
    53   17   49 1  
    54   19   50 1  
    55   20   51 1  
    56   22   52 1  
    57   22   53 1  
    58   26   54 1  
    59   26   55 1  
    60   29   56 1  
    61   30   57 1  
    62   31   58 1  
    63   32   59 1  
    64   32   60 1  
    65   32   61 1  
@<TRIPOS>SUBSTRUCTURE
     1 H0E         1

