### 
### Created by X-TOOL on Mon Sep 10 21:13:04 2018
### 

@<TRIPOS>MOLECULE
3h0j_ligand
   62    67     1     0     0
SMALL
GAST_HUCK


@<TRIPOS>ATOM
      1 CBE         6.5240   32.5150   25.8920 C.ar      1 B36        -0.0005
      2 CAK         7.8060   32.4530   25.2030 C.ar      1 B36        -0.0515
      3 CAE         8.6730   33.5970   25.1630 C.ar      1 B36        -0.0597
      4 CAC         8.3000   34.8280   25.7980 C.ar      1 B36        -0.0594
      5 CAI         7.0550   34.9390   26.4860 C.ar      1 B36        -0.0511
      6 CBB         6.1630   33.8090   26.5460 C.ar      1 B36        -0.0094
      7 CAP         4.9280   33.9660   27.2550 C.ar      1 B36        -0.0380
      8 CBC         4.0130   32.8660   27.3440 C.ar      1 B36        -0.0094
      9 CAJ         2.7910   33.0580   28.0830 C.ar      1 B36        -0.0511
     10 CAD         1.8540   31.9880   28.2060 C.ar      1 B36        -0.0594
     11 CAF         2.1130   30.7190   27.5920 C.ar      1 B36        -0.0597
     12 CAL         3.3180   30.4950   26.8520 C.ar      1 B36        -0.0515
     13 CBF         4.3110   31.5540   26.7040 C.ar      1 B36        -0.0005
     14 CAZ         5.5830   31.3550   25.9620 C.ar      1 B36         0.0597
     15 CAW         5.8880   29.9950   25.3190 C.2       1 B36         0.2034
     16 OAB         6.3270   29.0870   26.0320 O.2       1 B36        -0.3885
     17 NBH         5.6460   29.7640   23.9330 N.am      1 B36        -0.2738
     18 CAT         5.1110   30.7960   22.9850 C.3       1 B36         0.0334
     19 CAR         6.0300   30.9120   21.7590 C.3       1 B36        -0.0279
     20 CAS         5.9210   28.3900   23.3310 C.3       1 B36         0.0334
     21 CAQ         6.7060   28.4490   21.9790 C.3       1 B36        -0.0279
     22 CBG         6.1410   29.5330   21.0180 C.3       1 B36        -0.0276
     23 CAU         7.0010   29.5510   19.6930 C.3       1 B36        -0.0155
     24 CAY         6.6170   30.6250   18.6680 C.ar      1 B36        -0.0389
     25 CAO         5.2430   30.9470   18.3300 C.ar      1 B36        -0.0495
     26 CBA         4.9580   32.0140   17.4150 C.ar      1 B36        -0.0058
     27 CAM         3.5960   32.3430   17.1260 C.ar      1 B36        -0.0412
     28 CAG         3.3010   33.4240   16.2390 C.ar      1 B36        -0.0305
     29 CAX         4.3840   34.1560   15.6490 C.ar      1 B36         0.0216
     30 CAA         4.1030   35.3050   14.7220 C.3       1 B36        -0.0146
     31 NAV         5.7080   33.8340   15.9230 N.ar      1 B36        -0.3038
     32 CBD         6.0580   32.7840   16.7960 C.ar      1 B36         0.0318
     33 CAN         7.4050   32.4430   17.1240 C.ar      1 B36        -0.0462
     34 CAH         7.6730   31.3870   18.0500 C.ar      1 B36        -0.0539
     35 H           8.1104   31.5284   24.7126 H         1 B36         0.0620
     36 H           9.6283   33.5290   24.6426 H         1 B36         0.0635
     37 H           8.9725   35.6847   25.7546 H         1 B36         0.0619
     38 H           6.7789   35.8779   26.9659 H         1 B36         0.0639
     39 H           4.6849   34.9188   27.7253 H         1 B36         0.0709
     40 H           2.5818   34.0211   28.5485 H         1 B36         0.0639
     41 H           0.9342   32.1373   28.7714 H         1 B36         0.0619
     42 H           1.3837   29.9148   27.6896 H         1 B36         0.0635
     43 H           3.4957   29.5221   26.3938 H         1 B36         0.0620
     44 H           5.0672   31.7598   23.4922 H         1 B36         0.0521
     45 H           4.1141   30.4998   22.6586 H         1 B36         0.0521
     46 H           7.0232   31.2156   22.0900 H         1 B36         0.0289
     47 H           5.6117   31.6485   21.0729 H         1 B36         0.0289
     48 H           4.9579   27.9204   23.1312 H         1 B36         0.0521
     49 H           6.5338   27.8365   24.0425 H         1 B36         0.0521
     50 H           6.6115   27.4796   21.4896 H         1 B36         0.0289
     51 H           7.7435   28.6996   22.2001 H         1 B36         0.0289
     52 H           5.1216   29.2980   20.7118 H         1 B36         0.0324
     53 H           6.8411   28.5884   19.2072 H         1 B36         0.0430
     54 H           8.0273   29.7626   19.9931 H         1 B36         0.0430
     55 H           4.4260   30.3769   18.7723 H         1 B36         0.0558
     56 H           2.7867   31.7715   17.5805 H         1 B36         0.0745
     57 H           2.2677   33.6884   16.0141 H         1 B36         0.0654
     58 H           3.5306   34.9479   13.8659 H         1 B36         0.0430
     59 H           3.5300   36.0659   15.2519 H         1 B36         0.0430
     60 H           5.0453   35.7317   14.3782 H         1 B36         0.0430
     61 H           8.2308   32.9888   16.6676 H         1 B36         0.0619
     62 H           8.7082   31.1508   18.2963 H         1 B36         0.0613
@<TRIPOS>BOND
     1    1    2 ar 
     2    1    6 ar 
     3    1   14 ar 
     4    2    3 ar 
     5    3    4 ar 
     6    4    5 ar 
     7    5    6 ar 
     8    6    7 ar 
     9    7    8 ar 
    10    8    9 ar 
    11    8   13 ar 
    12    9   10 ar 
    13   10   11 ar 
    14   11   12 ar 
    15   12   13 ar 
    16   13   14 ar 
    17   14   15 1  
    18   15   16 2  
    19   15   17 am 
    20   17   18 1  
    21   17   20 1  
    22   18   19 1  
    23   19   22 1  
    24   20   21 1  
    25   21   22 1  
    26   22   23 1  
    27   23   24 1  
    28   24   25 ar 
    29   24   34 ar 
    30   25   26 ar 
    31   26   27 ar 
    32   26   32 ar 
    33   27   28 ar 
    34   28   29 ar 
    35   29   30 1  
    36   29   31 ar 
    37   31   32 ar 
    38   32   33 ar 
    39   33   34 ar 
    40    2   35 1  
    41    3   36 1  
    42    4   37 1  
    43    5   38 1  
    44    7   39 1  
    45    9   40 1  
    46   10   41 1  
    47   11   42 1  
    48   12   43 1  
    49   18   44 1  
    50   18   45 1  
    51   19   46 1  
    52   19   47 1  
    53   20   48 1  
    54   20   49 1  
    55   21   50 1  
    56   21   51 1  
    57   22   52 1  
    58   23   53 1  
    59   23   54 1  
    60   25   55 1  
    61   27   56 1  
    62   28   57 1  
    63   30   58 1  
    64   30   59 1  
    65   30   60 1  
    66   33   61 1  
    67   34   62 1  
@<TRIPOS>SUBSTRUCTURE
     1 B36         1

