### 
### Created by X-TOOL on Mon Sep 10 21:13:03 2018
### 

@<TRIPOS>MOLECULE
3h0q_ligand
   65    70     1     0     0
SMALL
GAST_HUCK


@<TRIPOS>ATOM
      1 C4          5.8020   32.3770   17.1890 C.ar      1 B37         0.0318
      2 C6          4.2300   33.6100   15.7880 C.ar      1 B37         0.0216
      3 C10         6.3090   30.2280   19.1140 C.ar      1 B37        -0.0389
      4 C20         6.6760   29.1770   20.1540 C.3       1 B37        -0.0155
      5 C21         5.7400   29.0620   21.4050 C.3       1 B37        -0.0276
      6 C24         6.3660   28.0220   22.3740 C.3       1 B37        -0.0278
      7 C28         5.4960   30.4290   22.1570 C.3       1 B37        -0.0278
      8 C1          3.1390   32.7810   16.2020 C.ar      1 B37        -0.0305
      9 C2          3.3830   31.7130   17.1320 C.ar      1 B37        -0.0412
     10 C3          4.6980   31.4800   17.6450 C.ar      1 B37        -0.0058
     11 N5          5.5060   33.3960   16.2760 N.ar      1 B37        -0.3038
     12 C9          4.9610   30.4150   18.5970 C.ar      1 B37        -0.0495
     13 C11         7.3530   31.1240   18.6450 C.ar      1 B37        -0.0539
     14 C12         7.1060   32.1650   17.7040 C.ar      1 B37        -0.0462
     15 C16         4.0390   34.7410   14.8210 C.3       1 B37        -0.0146
     16 C25         5.5980   27.8830   23.7130 C.3       1 B37         0.0339
     17 N26         5.2000   29.2320   24.3120 N.am      1 B37        -0.2706
     18 C27         4.5590   30.2040   23.3640 C.3       1 B37         0.0339
     19 C38         5.4290   29.5150   25.7150 C.2       1 B37         0.2182
     20 C39         5.0630   30.9170   26.2380 C.ar      1 B37         0.0755
     21 C40         6.0260   32.0610   26.3380 C.ar      1 B37         0.0228
     22 C41         5.5290   33.3600   26.8740 C.ar      1 B37         0.0491
     23 N42         4.1900   33.4390   27.2590 N.ar      1 B37        -0.2867
     24 C43         3.2520   32.3770   27.1760 C.ar      1 B37         0.0578
     25 C44         3.7010   31.1280   26.6630 C.ar      1 B37        -0.0053
     26 C46         7.4260   31.9890   25.9470 C.ar      1 B37        -0.0447
     27 C47         8.2960   33.1270   26.0660 C.ar      1 B37        -0.0557
     28 C48         7.7960   34.3720   26.5780 C.ar      1 B37        -0.0555
     29 C49         6.4250   34.4870   26.9810 C.ar      1 B37        -0.0386
     30 C54         1.8380   32.6500   27.6370 C.ar      1 B37         0.0034
     31 C55         1.2070   33.9320   27.5840 C.ar      1 B37        -0.0491
     32 C56        -0.1470   34.1310   28.0340 C.ar      1 B37        -0.0583
     33 C57        -0.9110   33.0270   28.5520 C.ar      1 B37        -0.0591
     34 C58        -0.3000   31.7320   28.6160 C.ar      1 B37        -0.0583
     35 C59         1.0480   31.5540   28.1690 C.ar      1 B37        -0.0491
     36 O65         5.5480   28.5810   26.4980 O.2       1 B37        -0.3788
     37 H1          7.6887   29.4074   20.5165 H         1 B37         0.0430
     38 H2          6.6803   28.1988   19.6510 H         1 B37         0.0430
     39 H3          4.7621   28.6892   21.0663 H         1 B37         0.0324
     40 H4          7.3985   28.3300   22.5954 H         1 B37         0.0289
     41 H5          6.3747   27.0420   21.8745 H         1 B37         0.0289
     42 H6          5.0336   31.1485   21.4653 H         1 B37         0.0289
     43 H7          6.4581   30.8274   22.5113 H         1 B37         0.0289
     44 H8          2.1405   32.9568   15.8185 H         1 B37         0.0654
     45 H9          2.5631   31.0781   17.4477 H         1 B37         0.0745
     46 H10         4.1579   29.7629   18.9208 H         1 B37         0.0558
     47 H11         8.3595   30.9951   19.0263 H         1 B37         0.0613
     48 H12         7.9220   32.8003   17.3790 H         1 B37         0.0619
     49 H13         5.0034   35.2401   14.6454 H         1 B37         0.0430
     50 H14         3.3229   35.4638   15.2389 H         1 B37         0.0430
     51 H15         3.6508   34.3484   13.8696 H         1 B37         0.0430
     52 H16         6.2403   27.3548   24.4331 H         1 B37         0.0522
     53 H17         4.6856   27.2948   23.5352 H         1 B37         0.0522
     54 H18         3.5988   29.7974   23.0137 H         1 B37         0.0522
     55 H19         4.3861   31.1605   23.8790 H         1 B37         0.0522
     56 H20         2.9960   30.3079   26.5892 H         1 B37         0.0765
     57 H21         7.8210   31.0575   25.5578 H         1 B37         0.0650
     58 H22         9.3349   33.0450   25.7677 H         1 B37         0.0647
     59 H23         8.4570   35.2272   26.6600 H         1 B37         0.0651
     60 H24         6.0574   35.4297   27.3700 H         1 B37         0.0646
     61 H25         1.7627   34.7773   27.1945 H         1 B37         0.0648
     62 H26        -0.5927   35.1178   27.9821 H         1 B37         0.0625
     63 H27        -1.9313   33.1723   28.8881 H         1 B37         0.0639
     64 H28        -0.8588   30.8875   29.0029 H         1 B37         0.0625
     65 H29         1.4941   30.5679   28.2297 H         1 B37         0.0648
@<TRIPOS>BOND
     1   10    1 ar 
     2    1   11 ar 
     3    1   14 ar 
     4    8    2 ar 
     5   11    2 ar 
     6    2   15 1  
     7    3    4 1  
     8   12    3 ar 
     9    3   13 ar 
    10    4    5 1  
    11    5    6 1  
    12    5    7 1  
    13    6   16 1  
    14    7   18 1  
    15    9    8 ar 
    16   10    9 ar 
    17   10   12 ar 
    18   13   14 ar 
    19   16   17 1  
    20   17   18 1  
    21   17   19 am 
    22   19   20 1  
    23   19   36 2  
    24   20   21 ar 
    25   20   25 ar 
    26   21   22 ar 
    27   21   26 ar 
    28   22   23 ar 
    29   22   29 ar 
    30   23   24 ar 
    31   24   25 ar 
    32   24   30 1  
    33   26   27 ar 
    34   27   28 ar 
    35   28   29 ar 
    36   30   31 ar 
    37   30   35 ar 
    38   31   32 ar 
    39   32   33 ar 
    40   33   34 ar 
    41   34   35 ar 
    42    4   37 1  
    43    4   38 1  
    44    5   39 1  
    45    6   40 1  
    46    6   41 1  
    47    7   42 1  
    48    7   43 1  
    49    8   44 1  
    50    9   45 1  
    51   12   46 1  
    52   13   47 1  
    53   14   48 1  
    54   15   49 1  
    55   15   50 1  
    56   15   51 1  
    57   16   52 1  
    58   16   53 1  
    59   18   54 1  
    60   18   55 1  
    61   25   56 1  
    62   26   57 1  
    63   27   58 1  
    64   28   59 1  
    65   29   60 1  
    66   31   61 1  
    67   32   62 1  
    68   33   63 1  
    69   34   64 1  
    70   35   65 1  
@<TRIPOS>SUBSTRUCTURE
     1 B37         1

