### 
### Created by X-TOOL on Mon Sep 10 21:13:02 2018
### 

@<TRIPOS>MOLECULE
3h0s_ligand
   49    53     1     0     0
SMALL
GAST_HUCK


@<TRIPOS>ATOM
      1 C4          5.9620   28.5060   20.9620 C.3       1 B38         0.0033
      2 C7          4.5020   30.6440   18.0100 C.2       1 B38         0.1288
      3 C6          6.9980   31.0010   18.5030 C.ar      1 B38         0.1058
      4 C9          6.1290   31.0880   22.3840 C.3       1 B38         0.0362
      5 C13         5.7590   32.3850   16.9030 C.ar      1 B38        -0.0500
      6 C8          6.8940   28.7000   22.1880 C.3       1 B38         0.0362
      7 C16         6.9520   34.2860   15.6850 C.3       1 B38        -0.0352
      8 C1          5.7920   29.7940   20.1100 C.3       1 B38         0.1106
      9 O2          7.0360   30.0080   19.3730 O.3       1 B38        -0.3078
     10 C3          4.6830   29.5370   19.0550 C.3       1 B38         0.0540
     11 C5          5.3240   30.9470   21.0670 C.3       1 B38         0.0033
     12 C10         5.7770   31.3800   17.7450 C.ar      1 B38         0.0549
     13 C11         8.0960   31.6790   18.3080 C.ar      1 B38        -0.0326
     14 O12         3.3900   31.1840   17.7910 O.2       1 B38        -0.3851
     15 C14         8.0950   32.8120   17.3250 C.ar      1 B38        -0.0640
     16 C15         6.9930   33.1390   16.6620 C.ar      1 B38        -0.0508
     17 N27         6.3460   29.7750   23.0600 N.am      1 B38        -0.2738
     18 C20         5.3600   30.5870   25.2420 C.ar      1 B38         0.0758
     19 C21         5.2910   32.7490   26.3790 C.ar      1 B38         0.0151
     20 C18         3.3630   31.2570   26.4710 C.ar      1 B38        -0.0654
     21 C19         4.0420   30.3320   25.6840 C.ar      1 B38        -0.0495
     22 C26         6.0470   29.5450   24.3940 C.2       1 B38         0.2025
     23 C17         3.9830   32.4680   26.8070 C.ar      1 B38        -0.0590
     24 C22         6.0000   31.8040   25.6020 C.ar      1 B38         0.1073
     25 N23         7.2350   32.3440   25.3530 N.pl3     1 B38        -0.2097
     26 N24         7.3220   33.5500   25.9270 N.2       1 B38        -0.2048
     27 C25         6.1570   33.8350   26.5700 C.2       1 B38         0.0228
     28 O28         6.3100   28.4740   24.9370 O.2       1 B38        -0.3897
     29 H1          4.9712   28.1926   21.3226 H         1 B38         0.0318
     30 H2          6.3857   27.7177   20.3225 H         1 B38         0.0318
     31 H3          5.5765   31.7501   23.0669 H         1 B38         0.0522
     32 H4          7.1082   31.5332   22.1539 H         1 B38         0.0522
     33 H5          4.8425   32.6552   16.3911 H         1 B38         0.0581
     34 H6          7.8994   28.9837   21.8436 H         1 B38         0.0522
     35 H7          6.9528   27.7603   22.7568 H         1 B38         0.0522
     36 H8          7.9493   34.7451   15.6165 H         1 B38         0.0370
     37 H9          6.2259   35.0364   16.0308 H         1 B38         0.0370
     38 H10         6.6510   33.9136   14.6947 H         1 B38         0.0370
     39 H11         4.9288   28.6056   18.5240 H         1 B38         0.0515
     40 H12         3.7289   29.4142   19.5884 H         1 B38         0.0515
     41 H13         5.4034   31.8967   20.5177 H         1 B38         0.0318
     42 H14         4.2721   30.7627   21.3306 H         1 B38         0.0318
     43 H15         8.9995   31.4259   18.8509 H         1 B38         0.0540
     44 H16         9.0075   33.3716   17.1538 H         1 B38         0.0571
     45 H17         2.3602   31.0421   26.8222 H         1 B38         0.0548
     46 H18         3.5542   29.4046   25.4065 H         1 B38         0.0641
     47 H19         3.4468   33.1965   27.4043 H         1 B38         0.0636
     48 H20         7.9820   31.8909   24.8075 H         1 B38         0.2469
     49 H21         5.9372   34.7421   27.1311 H         1 B38         0.0719
@<TRIPOS>BOND
     1    6    1 1  
     2    1    8 1  
     3   10    2 1  
     4    2   12 1  
     5    2   14 2  
     6    9    3 1  
     7    3   12 ar 
     8    3   13 ar 
     9    4   11 1  
    10   17    4 1  
    11   12    5 ar 
    12    5   16 ar 
    13   17    6 1  
    14   16    7 1  
    15    8    9 1  
    16    8   10 1  
    17   11    8 1  
    18   13   15 ar 
    19   15   16 ar 
    20   22   17 am 
    21   18   21 ar 
    22   18   22 1  
    23   24   18 ar 
    24   19   23 ar 
    25   19   24 ar 
    26   19   27 1  
    27   21   20 ar 
    28   20   23 ar 
    29   22   28 2  
    30   24   25 1  
    31   25   26 1  
    32   26   27 2  
    33    1   29 1  
    34    1   30 1  
    35    4   31 1  
    36    4   32 1  
    37    5   33 1  
    38    6   34 1  
    39    6   35 1  
    40    7   36 1  
    41    7   37 1  
    42    7   38 1  
    43   10   39 1  
    44   10   40 1  
    45   11   41 1  
    46   11   42 1  
    47   13   43 1  
    48   15   44 1  
    49   20   45 1  
    50   21   46 1  
    51   23   47 1  
    52   25   48 1  
    53   27   49 1  
@<TRIPOS>SUBSTRUCTURE
     1 B38         1

