### 
### Created by X-TOOL on Mon Sep 10 21:13:01 2018
### 

@<TRIPOS>MOLECULE
3h0y_ligand
   49    52     1     0     0
SMALL
GAST_HUCK


@<TRIPOS>ATOM
      1 F23        53.7580    9.7250   18.9840 F         1 48B        -0.1862
      2 C17        53.2190   10.6790   19.7130 C.ar      1 48B         0.1891
      3 C18        52.8400   11.7960   19.0780 C.ar      1 48B         0.0337
      4 N19        52.2360   12.7780   19.7200 N.ar      1 48B        -0.2730
      5 C20        52.1790   12.7560   21.1590 C.ar      1 48B         0.1881
      6 N24        51.4410   13.8690   21.7930 N.pl3     1 48B        -0.2526
      7 C30        51.3410   14.0730   23.1270 C.ar      1 48B         0.0540
      8 C29        51.4780   13.0830   24.1010 C.ar      1 48B        -0.0463
      9 C28        51.4390   13.3840   25.4600 C.ar      1 48B        -0.0423
     10 C27        51.2670   14.6960   25.8710 C.ar      1 48B         0.0761
     11 O31        51.2320   14.9880   27.1680 O.3       1 48B        -0.3404
     12 C26        51.1430   15.6970   24.9120 C.ar      1 48B        -0.0423
     13 C25        51.1900   15.3910   23.5520 C.ar      1 48B        -0.0463
     14 N21        52.4300   11.4610   21.7190 N.ar      1 48B        -0.2382
     15 C22        53.0560   10.5150   21.0290 C.ar      1 48B         0.1663
     16 N16        53.4660    9.3530   21.5740 N.pl3     1 48B        -0.2634
     17 C11        53.2100    9.0640   22.8730 C.ar      1 48B         0.0494
     18 C10        52.4820    7.9360   23.2500 C.ar      1 48B        -0.0504
     19 C12        53.4560   10.0460   23.8330 C.ar      1 48B        -0.0504
     20 C13        53.0280    9.8990   25.1390 C.ar      1 48B        -0.0493
     21 C14        52.3420    8.7650   25.5460 C.ar      1 48B         0.0555
     22 C15        52.0720    7.7740   24.5820 C.ar      1 48B        -0.0493
     23 N9         52.0550    8.7090   26.8800 N.am      1 48B        -0.2393
     24 C7         51.6250    7.6060   27.4920 C.2       1 48B         0.2298
     25 O8         51.5030    6.5510   26.8880 O.2       1 48B        -0.3746
     26 C4         51.2130    7.6040   28.9440 C.ar      1 48B         0.0690
     27 C5         50.7530    8.7460   29.6290 C.ar      1 48B         0.0609
     28 CL1        50.6290   10.4040   28.8900 Cl        1 48B        -0.0647
     29 C6         50.3790    8.6210   30.9730 C.ar      1 48B        -0.0423
     30 C3         51.2670    6.3710   29.6070 C.ar      1 48B        -0.0412
     31 C2         50.8910    6.2630   30.9400 C.ar      1 48B        -0.0562
     32 C1         50.4480    7.3920   31.6230 C.ar      1 48B        -0.0572
     33 H1         53.0333   11.8951   18.0160 H         1 48B         0.0826
     34 H2         50.9668   14.5403   21.1721 H         1 48B         0.2137
     35 H3         51.6183   12.0536   23.7918 H         1 48B         0.0511
     36 H4         51.5430   12.5937   26.1947 H         1 48B         0.0515
     37 H5         51.1088   15.9236   27.2776 H         1 48B         0.2444
     38 H6         51.0084   16.7259   25.2255 H         1 48B         0.0515
     39 H7         51.1083   16.1857   22.8194 H         1 48B         0.0511
     40 H8         53.9814    8.6747   20.9951 H         1 48B         0.2116
     41 H9         52.2322    7.1823   22.5120 H         1 48B         0.0503
     42 H10        53.9941   10.9431   23.5487 H         1 48B         0.0503
     43 H11        53.2323   10.6843   25.8578 H         1 48B         0.0479
     44 H12        51.5408    6.8750   24.8729 H         1 48B         0.0479
     45 H13        52.1736    9.5385   27.4258 H         1 48B         0.2218
     46 H14        50.0310    9.4933   31.5144 H         1 48B         0.0635
     47 H15        51.6063    5.4906   29.0734 H         1 48B         0.0669
     48 H16        50.9423    5.3053   31.4452 H         1 48B         0.0630
     49 H17        50.1559    7.3140   32.6640 H         1 48B         0.0652
@<TRIPOS>BOND
     1    1    2 1  
     2    2    3 ar 
     3    2   15 ar 
     4    3    4 ar 
     5    4    5 ar 
     6    5    6 1  
     7    5   14 ar 
     8    6    7 1  
     9    7    8 ar 
    10    7   13 ar 
    11    8    9 ar 
    12    9   10 ar 
    13   10   11 1  
    14   10   12 ar 
    15   12   13 ar 
    16   14   15 ar 
    17   15   16 1  
    18   16   17 1  
    19   17   18 ar 
    20   17   19 ar 
    21   18   22 ar 
    22   19   20 ar 
    23   20   21 ar 
    24   21   22 ar 
    25   21   23 1  
    26   23   24 am 
    27   24   25 2  
    28   24   26 1  
    29   26   27 ar 
    30   26   30 ar 
    31   27   28 1  
    32   27   29 ar 
    33   29   32 ar 
    34   30   31 ar 
    35   31   32 ar 
    36    3   33 1  
    37    6   34 1  
    38    8   35 1  
    39    9   36 1  
    40   11   37 1  
    41   12   38 1  
    42   13   39 1  
    43   16   40 1  
    44   18   41 1  
    45   19   42 1  
    46   20   43 1  
    47   22   44 1  
    48   23   45 1  
    49   29   46 1  
    50   30   47 1  
    51   31   48 1  
    52   32   49 1  
@<TRIPOS>SUBSTRUCTURE
     1 48B         1

