### 
### Created by X-TOOL on Mon Sep 10 21:13:01 2018
### 

@<TRIPOS>MOLECULE
3h0z_ligand
   72    76     1     0     0
SMALL
GAST_HUCK


@<TRIPOS>ATOM
      1 CL1        31.8790   23.4760   57.8890 Cl        1 45B        -0.0830
      2 C13        31.1680   23.8490   56.2940 C.ar      1 45B         0.0594
      3 C12        30.6250   22.8310   55.5200 C.ar      1 45B        -0.0615
      4 C11        30.0680   23.1320   54.2880 C.ar      1 45B        -0.0766
      5 C10        30.0650   24.4490   53.8390 C.ar      1 45B        -0.0753
      6 C9         30.6150   25.4630   54.6210 C.ar      1 45B        -0.0406
      7 C8         31.1730   25.1570   55.8550 C.ar      1 45B         0.0798
      8 N1         31.7280   26.1660   56.6570 N.am      1 45B        -0.2339
      9 C7         33.0380   26.4390   56.6790 C.2       1 45B         0.2241
     10 O2         33.8790   25.7190   56.1590 O.2       1 45B        -0.3784
     11 C6         33.4840   27.6910   57.3840 C.ar      1 45B         0.0440
     12 C4         34.8320   27.9770   57.5340 C.ar      1 45B        -0.0510
     13 C3         35.2340   29.1400   58.1810 C.ar      1 45B        -0.0323
     14 C14        32.5460   28.5840   57.8990 C.ar      1 45B        -0.0510
     15 C15        32.9480   29.7480   58.5450 C.ar      1 45B        -0.0323
     16 C2         34.2960   30.0340   58.6880 C.ar      1 45B         0.0685
     17 N5         34.6800   31.2110   59.3560 N.pl3     1 45B        -0.2526
     18 C1         35.6160   31.2290   60.3190 C.ar      1 45B         0.1709
     19 N6         36.1680   30.1200   60.8180 N.ar      1 45B        -0.2362
     20 C16        36.0240   32.4300   60.7290 C.ar      1 45B         0.1906
     21 F4         35.5100   33.5190   60.1980 F         1 45B        -0.1856
     22 C17        36.9530   32.5660   61.6830 C.ar      1 45B         0.0348
     23 N4         37.5460   31.5100   62.2320 N.ar      1 45B        -0.2717
     24 C5         37.0310   30.1900   61.9770 C.ar      1 45B         0.1902
     25 N8         37.8190   29.0820   62.5120 N.pl3     1 45B        -0.2500
     26 C          37.9220   27.7980   62.0520 C.ar      1 45B         0.0582
     27 C30        38.9320   27.0180   62.6110 C.ar      1 45B        -0.0442
     28 C29        39.1340   25.6950   62.2170 C.ar      1 45B        -0.0671
     29 C20        38.3260   25.1110   61.2500 C.ar      1 45B        -0.0353
     30 C19        37.3110   25.8750   60.6880 C.ar      1 45B        -0.0671
     31 C18        37.1100   27.1970   61.0840 C.ar      1 45B        -0.0442
     32 C21        38.5450   23.6640   60.8390 C.3       1 45B         0.0654
     33 C22        37.8160   22.7370   61.8220 C.2       1 45B         0.1883
     34 O1         36.6190   22.9470   62.0120 O.2       1 45B        -0.3943
     35 N          38.4460   21.7190   62.4640 N.am      1 45B        -0.2679
     36 C28        37.7380   20.8560   63.4010 C.3       1 45B         0.0544
     37 C27        38.3590   21.1740   64.7580 C.3       1 45B         0.0543
     38 N2         39.7320   20.6860   64.6760 N.am      1 45B        -0.2696
     39 C24        40.5250   21.4480   63.7110 C.3       1 45B         0.0543
     40 C23        39.8550   21.3170   62.3430 C.3       1 45B         0.0544
     41 C25        40.2230   19.6590   65.4030 C.2       1 45B         0.1755
     42 O3         41.3800   19.2720   65.3070 O.2       1 45B        -0.3972
     43 C26        39.2960   18.9700   66.3660 C.3       1 45B         0.0258
     44 H1         30.6372   21.8079   55.8779 H         1 45B         0.0583
     45 H2         29.6372   22.3466   53.6776 H         1 45B         0.0488
     46 H3         29.6319   24.6879   52.8744 H         1 45B         0.0579
     47 H4         30.6072   26.4875   54.2669 H         1 45B         0.0503
     48 H5         31.1177   26.7048   57.2377 H         1 45B         0.2254
     49 H6         35.5758   27.2910   57.1452 H         1 45B         0.0640
     50 H7         36.2911   29.3529   58.2919 H         1 45B         0.0550
     51 H8         31.4888   28.3683   57.7946 H         1 45B         0.0640
     52 H9         32.2051   30.4330   58.9375 H         1 45B         0.0550
     53 H10        34.2238   32.0969   59.0954 H         1 45B         0.2170
     54 H11        37.2284   33.5602   62.0158 H         1 45B         0.0830
     55 H12        38.3741   29.2978   63.3524 H         1 45B         0.2149
     56 H13        39.5756   27.4489   63.3694 H         1 45B         0.0520
     57 H14        39.9305   25.1164   62.6707 H         1 45B         0.0533
     58 H15        36.6676   25.4384   59.9327 H         1 45B         0.0533
     59 H16        36.3085   27.7705   60.6327 H         1 45B         0.0520
     60 H17        39.6215   23.4381   60.8516 H         1 45B         0.0638
     61 H18        38.1492   23.5069   59.8248 H         1 45B         0.0638
     62 H19        37.8878   19.7971   63.1436 H         1 45B         0.0542
     63 H20        36.6620   21.0843   63.4029 H         1 45B         0.0542
     64 H21        37.8138   20.6578   65.5619 H         1 45B         0.0542
     65 H22        38.3457   22.2582   64.9435 H         1 45B         0.0542
     66 H23        41.5474   21.0447   63.6663 H         1 45B         0.0542
     67 H24        40.5609   22.5061   64.0096 H         1 45B         0.0542
     68 H25        40.3644   21.9690   61.6182 H         1 45B         0.0542
     69 H26        39.9134   20.2730   62.0014 H         1 45B         0.0542
     70 H27        39.8363   18.1615   66.8802 H         1 45B         0.0467
     71 H28        38.4425   18.5481   65.8151 H         1 45B         0.0467
     72 H29        38.9312   19.6964   67.1072 H         1 45B         0.0467
@<TRIPOS>BOND
     1    1    2 1  
     2    2    3 ar 
     3    2    7 ar 
     4    3    4 ar 
     5    4    5 ar 
     6    5    6 ar 
     7    6    7 ar 
     8    7    8 1  
     9    8    9 am 
    10    9   10 2  
    11    9   11 1  
    12   11   12 ar 
    13   11   14 ar 
    14   12   13 ar 
    15   13   16 ar 
    16   14   15 ar 
    17   15   16 ar 
    18   16   17 1  
    19   17   18 1  
    20   18   19 ar 
    21   18   20 ar 
    22   19   24 ar 
    23   20   21 1  
    24   20   22 ar 
    25   22   23 ar 
    26   23   24 ar 
    27   24   25 1  
    28   25   26 1  
    29   26   27 ar 
    30   26   31 ar 
    31   27   28 ar 
    32   28   29 ar 
    33   29   30 ar 
    34   29   32 1  
    35   30   31 ar 
    36   32   33 1  
    37   33   34 2  
    38   33   35 am 
    39   35   36 1  
    40   35   40 1  
    41   36   37 1  
    42   37   38 1  
    43   38   39 1  
    44   38   41 am 
    45   39   40 1  
    46   41   42 2  
    47   41   43 1  
    48    3   44 1  
    49    4   45 1  
    50    5   46 1  
    51    6   47 1  
    52    8   48 1  
    53   12   49 1  
    54   13   50 1  
    55   14   51 1  
    56   15   52 1  
    57   17   53 1  
    58   22   54 1  
    59   25   55 1  
    60   27   56 1  
    61   28   57 1  
    62   30   58 1  
    63   31   59 1  
    64   32   60 1  
    65   32   61 1  
    66   36   62 1  
    67   36   63 1  
    68   37   64 1  
    69   37   65 1  
    70   39   66 1  
    71   39   67 1  
    72   40   68 1  
    73   40   69 1  
    74   43   70 1  
    75   43   71 1  
    76   43   72 1  
@<TRIPOS>SUBSTRUCTURE
     1 45B         1

