### 
### Created by X-TOOL on Mon Sep 10 21:13:00 2018
### 

@<TRIPOS>MOLECULE
3h1x_ligand
   40    42     1     0     0
SMALL
GAST_HUCK


@<TRIPOS>ATOM
      1 C           0.7450  -11.4340    8.4070 C.ar      1 IMN         0.0787
      2 C1          1.2510  -12.6140    7.6690 C.ar      1 IMN        -0.0393
      3 C2          2.5830  -12.6840    7.3070 C.ar      1 IMN        -0.0562
      4 C3          3.4670  -11.6510    7.6110 C.ar      1 IMN         0.0670
      5 C4          3.0020  -10.5440    8.3180 C.ar      1 IMN        -0.0504
      6 C5          1.6630  -10.4350    8.7020 C.ar      1 IMN        -0.0495
      7 C6          5.4300  -10.7000    6.4900 C.3       1 IMN         0.0564
      8 C7          0.1170  -13.5310    7.4440 C.2       1 IMN        -0.0396
      9 C8         -1.0290  -12.8260    8.1000 C.2       1 IMN         0.0648
     10 C9         -1.5040  -10.8930    9.2380 C.2       1 IMN         0.2697
     11 C10        -1.4230   -9.5470    9.9220 C.ar      1 IMN         0.0658
     12 C11        -2.6140   -9.0630   10.4610 C.ar      1 IMN        -0.0401
     13 C12        -2.6640   -7.8380   11.1110 C.ar      1 IMN        -0.0421
     14 C13        -1.5250   -7.0720   11.2430 C.ar      1 IMN         0.0451
     15 C14        -0.3330   -7.5360   10.7080 C.ar      1 IMN        -0.0421
     16 C15        -0.2850   -8.7640   10.0540 C.ar      1 IMN        -0.0401
     17 C16        -2.4320  -13.3020    8.2730 C.3       1 IMN        -0.0090
     18 C17         0.3260  -14.8880    6.8070 C.3       1 IMN         0.0085
     19 C18        -0.7900  -15.8200    6.4450 C.2       1 IMN         0.0372
     20 N          -0.5620  -11.6700    8.6010 N.am      1 IMN        -0.1828
     21 O           4.7610  -11.7320    7.2460 O.3       1 IMN        -0.3319
     22 O1         -2.6130  -11.3850    9.2470 O.2       1 IMN        -0.3512
     23 O2         -1.6300  -16.2190    7.2410 O.co2     1 IMN        -0.5679
     24 O3         -0.7810  -16.2810    5.2120 O.co2     1 IMN        -0.5679
     25 CL         -1.6480   -5.5060   12.1090 Cl        1 IMN        -0.0665
     26 H1          2.9461  -13.5575    6.7776 H         1 IMN         0.0397
     27 H2          3.6939   -9.7503    8.5756 H         1 IMN         0.0444
     28 H3          1.3346   -9.5535    9.2406 H         1 IMN         0.0515
     29 H4          6.4757  -10.9930    6.3153 H         1 IMN         0.0572
     30 H5          5.4031   -9.7562    7.0544 H         1 IMN         0.0572
     31 H6          4.9210  -10.5645    5.5243 H         1 IMN         0.0572
     32 H7         -3.5179   -9.6546   10.3707 H         1 IMN         0.0670
     33 H8         -3.6036   -7.4813   11.5172 H         1 IMN         0.0634
     34 H9          0.5671   -6.9389   10.7995 H         1 IMN         0.0634
     35 H10         0.6548   -9.1135    9.6420 H         1 IMN         0.0670
     36 H11        -2.5550  -14.2717    7.7685 H         1 IMN         0.0401
     37 H12        -3.1246  -12.5694    7.8331 H         1 IMN         0.0401
     38 H13        -2.6510  -13.4160    9.3449 H         1 IMN         0.0401
     39 H14         0.9701  -15.4481    7.5008 H         1 IMN         0.0476
     40 H15         0.8725  -14.6983    5.8714 H         1 IMN         0.0476
@<TRIPOS>BOND
     1    1    2 ar 
     2    1    6 ar 
     3   20    1 1  
     4    2    3 ar 
     5    8    2 1  
     6    3    4 ar 
     7    5    4 ar 
     8    4   21 1  
     9    6    5 ar 
    10   21    7 1  
    11    9    8 2  
    12    8   18 1  
    13    9   17 1  
    14   20    9 1  
    15   10   11 1  
    16   10   20 am 
    17   10   22 2  
    18   11   12 ar 
    19   11   16 ar 
    20   12   13 ar 
    21   13   14 ar 
    22   14   15 ar 
    23   14   25 1  
    24   15   16 ar 
    25   18   19 1  
    26   19   23 ar 
    27   19   24 ar 
    28    3   26 1  
    29    5   27 1  
    30    6   28 1  
    31    7   29 1  
    32    7   30 1  
    33    7   31 1  
    34   12   32 1  
    35   13   33 1  
    36   15   34 1  
    37   16   35 1  
    38   17   36 1  
    39   17   37 1  
    40   17   38 1  
    41   18   39 1  
    42   18   40 1  
@<TRIPOS>SUBSTRUCTURE
     1 IMN         1

