### 
### Created by X-TOOL on Mon Sep 10 21:13:01 2018
### 

@<TRIPOS>MOLECULE
3h21_ligand
   30    31     1     0     0
SMALL
GAST_HUCK


@<TRIPOS>ATOM
      1 C2        -76.9280   84.3450   92.9620 C.2       1 B52         0.1738
      2 C3        -77.4740   83.1930   90.9850 C.cat     1 B52         0.3048
      3 C4        -78.8020   85.0770   91.4940 C.2       1 B52         0.2259
      4 C1        -78.0110   85.3210   92.7190 C.3       1 B52         0.2095
      5 O18       -79.5400   86.6940   96.8720 O.co2     1 B52        -0.5659
      6 C17       -78.8750   87.7490   96.5790 C.2       1 B52         0.0515
      7 O19       -79.3650   88.9260   96.7820 O.co2     1 B52        -0.5659
      8 C15       -77.4420   87.5820   96.0070 C.3       1 B52         0.0668
      9 C16       -76.8600   88.9210   95.5770 C.3       1 B52        -0.0388
     10 C11       -77.3370   86.5400   94.9020 C.2       1 B52         0.1304
     11 C12       -78.2370   86.4350   93.6950 C.2       1 B52         0.1959
     12 O13       -79.1570   87.2540   93.5150 O.2       1 B52        -0.3698
     13 N3        -76.3690   85.5900   95.0040 N.2       1 B52        -0.1673
     14 N4        -76.1330   84.5260   94.0940 N.pl3     1 B52        -0.1667
     15 C14       -75.0610   83.5710   94.3530 C.3       1 B52         0.0596
     16 O4        -79.7250   85.8360   91.1930 O.2       1 B52        -0.3882
     17 N1        -76.7130   83.3270   92.0940 N.2       1 B52        -0.2666
     18 N6        -77.2250   82.1530   90.1590 N.pl3     1 B52        -0.2176
     19 N2        -78.4900   84.0320   90.7060 N.am      1 B52        -0.2071
     20 H1        -77.3312   85.9752   92.1534 H         1 B52         0.1049
     21 H2        -76.8182   87.2160   96.8358 H         1 B52         0.0648
     22 H3        -76.9551   89.6437   96.4009 H         1 B52         0.0273
     23 H4        -77.4066   89.2931   94.6980 H         1 B52         0.0273
     24 H5        -75.7977   88.7940   95.3215 H         1 B52         0.0273
     25 H6        -74.5334   83.8535   95.2759 H         1 B52         0.0567
     26 H7        -74.3540   83.5759   93.5103 H         1 B52         0.0567
     27 H8        -75.4873   82.5635   94.4681 H         1 B52         0.0567
     28 H9        -76.4501   81.5062   90.3644 H         1 B52         0.4602
     29 H10       -77.8101   82.0070   89.3240 H         1 B52         0.4602
     30 H11       -79.0332   83.8722   89.8817 H         1 B52         0.1935
@<TRIPOS>BOND
     1    4    1 1  
     2    1   14 1  
     3    1   17 2  
     4   17    2 ar 
     5    2   18 ar 
     6   19    2 ar 
     7    4    3 1  
     8    3   16 2  
     9    3   19 am 
    10   11    4 1  
    11    6    5 ar 
    12    6    7 ar 
    13    8    6 1  
    14    8    9 1  
    15   10    8 1  
    16   10   11 1  
    17   10   13 2  
    18   11   12 2  
    19   13   14 1  
    20   14   15 1  
    21    4   20 1  
    22    8   21 1  
    23    9   22 1  
    24    9   23 1  
    25    9   24 1  
    26   15   25 1  
    27   15   26 1  
    28   15   27 1  
    29   18   28 1  
    30   18   29 1  
    31   19   30 1  
@<TRIPOS>SUBSTRUCTURE
     1 B52         1

