### 
### Created by X-TOOL on Mon Sep 10 21:13:02 2018
### 

@<TRIPOS>MOLECULE
3h26_ligand
   24    25     1     0     0
SMALL
GAST_HUCK


@<TRIPOS>ATOM
      1 O9        -80.1420   85.8730   91.1380 O.2       1 B56        -0.3815
      2 C8        -79.2090   85.1030   91.4650 C.2       1 B56         0.2263
      3 N7        -78.9780   83.9900   90.7340 N.am      1 B56        -0.2593
      4 C5        -77.9770   83.1340   91.0560 C.cat     1 B56         0.1742
      5 N6        -77.7820   82.0340   90.2930 N.pl3     1 B56        -0.3399
      6 N4        -77.1830   83.3700   92.1290 N.pl3     1 B56        -0.2589
      7 C10       -78.4010   85.3630   92.5730 C.ar      1 B56         0.1798
      8 C3        -77.3730   84.4730   92.9010 C.ar      1 B56         0.1715
      9 N1        -76.5890   84.7200   93.9700 N.ar      1 B56        -0.3246
     10 C2        -75.5120   83.8050   94.3320 C.3       1 B56         0.0020
     11 C16       -76.7830   85.8080   94.7270 C.ar      1 B56         0.0426
     12 N11       -78.6000   86.4620   93.3340 N.ar      1 B56        -0.2364
     13 C12       -77.8080   86.7000   94.4060 C.ar      1 B56         0.2423
     14 C13       -78.0340   87.9250   95.2440 C.2       1 B56         0.6990
     15 O15       -78.9570   88.7110   94.9370 O.co2     1 B56         0.0541
     16 O14       -77.2930   88.1400   96.2290 O.co2     1 B56         0.0541
     17 H1        -79.5556   83.7943   89.9415 H         1 B56         0.1812
     18 H2        -77.0258   81.3741   90.5245 H         1 B56         0.1739
     19 H3        -78.3897   81.8564   89.4806 H         1 B56         0.1739
     20 H4        -76.4291   82.7079   92.3616 H         1 B56         0.2128
     21 H5        -74.9951   84.1828   95.2265 H         1 B56         0.0395
     22 H6        -74.7974   83.7319   93.4990 H         1 B56         0.0395
     23 H7        -75.9314   82.8104   94.5436 H         1 B56         0.0395
     24 H8        -76.1472   85.9950   95.5848 H         1 B56         0.0945
@<TRIPOS>BOND
     1    1    2 2  
     2    2    3 am 
     3    2    7 1  
     4    3    4 ar 
     5    4    5 ar 
     6    4    6 ar 
     7    6    8 1  
     8    7    8 ar 
     9    7   12 ar 
    10    8    9 ar 
    11    9   10 1  
    12    9   11 ar 
    13   11   13 ar 
    14   12   13 ar 
    15   13   14 1  
    16   14   15 ar 
    17   14   16 ar 
    18    3   17 1  
    19    5   18 1  
    20    5   19 1  
    21    6   20 1  
    22   10   21 1  
    23   10   22 1  
    24   10   23 1  
    25   11   24 1  
@<TRIPOS>SUBSTRUCTURE
     1 B56         1

