### 
### Created by X-TOOL on Mon Sep 10 21:13:02 2018
### 

@<TRIPOS>MOLECULE
3h2c_ligand
   17    18     1     0     0
SMALL
GAST_HUCK


@<TRIPOS>ATOM
      1 N10       -77.4520   82.1780   91.0700 N.pl3     1 B58        -0.3088
      2 C6        -77.3210   83.1420   92.0090 C.ar      1 B58         0.1431
      3 N1        -76.3370   83.1050   92.9470 N.ar      1 B58        -0.3166
      4 N2        -76.1670   84.1110   93.9430 N.ar      1 B58        -0.3228
      5 C5        -78.2590   84.2860   91.9790 C.ar      1 B58         0.1650
      6 N7        -79.3290   84.6500   91.2260 N.pl3     1 B58        -0.2345
      7 C8        -79.8470   85.8010   91.7260 C.2       1 B58         0.1158
      8 N9        -79.1120   86.2080   92.7990 N.2       1 B58        -0.2839
      9 C4        -78.1150   85.3210   93.0100 C.ar      1 B58         0.1117
     10 C3        -77.0210   85.1700   94.0200 C.ar      1 B58         0.1137
     11 N11       -76.9040   86.1190   94.9730 N.pl3     1 B58        -0.3113
     12 H1        -78.2089   82.2366   90.3739 H         1 B58         0.1862
     13 H2        -76.7949   81.3850   91.0508 H         1 B58         0.1862
     14 H3        -79.6888   84.1365   90.4088 H         1 B58         0.2478
     15 H4        -80.7181   86.3205   91.3296 H         1 B58         0.1354
     16 H5        -77.5681   86.9058   95.0005 H         1 B58         0.1865
     17 H6        -76.1506   86.0562   95.6726 H         1 B58         0.1865
@<TRIPOS>BOND
     1    1    2 1  
     2    2    3 ar 
     3    2    5 ar 
     4    3    4 ar 
     5    4   10 ar 
     6    5    6 1  
     7    5    9 ar 
     8    6    7 1  
     9    7    8 2  
    10    8    9 1  
    11    9   10 ar 
    12   10   11 1  
    13    1   12 1  
    14    1   13 1  
    15    6   14 1  
    16    7   15 1  
    17   11   16 1  
    18   11   17 1  
@<TRIPOS>SUBSTRUCTURE
     1 B58         1

