### 
### Created by X-TOOL on Mon Sep 10 21:13:01 2018
### 

@<TRIPOS>MOLECULE
3h2f_ligand
   23    24     1     0     0
SMALL
GAST_HUCK


@<TRIPOS>ATOM
      1 O2        -81.6760   87.3650   91.8050 O.2       1 B60        -0.3672
      2 C1        -80.7100   86.6190   92.0500 C.2       1 B60         0.2568
      3 C4        -79.8520   86.9020   93.2290 C.2       1 B60         0.2533
      4 C7        -78.7350   85.9650   93.4480 C.2       1 B60         0.2928
      5 N6        -78.5410   84.9380   92.5690 N.pl3     1 B60        -0.2004
      6 C5        -79.3640   84.7570   91.4960 C.cat     1 B60         0.1955
      7 N8        -79.1200   83.7030   90.6710 N.pl3     1 B60        -0.3352
      8 N3        -80.4410   85.5520   91.2660 N.am      1 B60        -0.2513
      9 N9        -80.0730   87.9340   94.0980 N.2       1 B60        -0.2033
     10 C10       -79.2420   88.1640   95.1480 C.2       1 B60         0.0864
     11 C11       -78.0850   87.3220   95.4660 C.3       1 B60         0.1330
     12 N12       -77.8700   86.1900   94.5370 N.pl3     1 B60        -0.1961
     13 C13       -76.7530   85.2630   94.7110 C.3       1 B60         0.0489
     14 H1        -77.7573   84.2867   92.7192 H         1 B60         0.2406
     15 H2        -79.7233   83.5393   89.8524 H         1 B60         0.1758
     16 H3        -78.3320   83.0688   90.8650 H         1 B60         0.1758
     17 H4        -81.0482   85.3430   90.4995 H         1 B60         0.1815
     18 H5        -79.4467   89.0207   95.7884 H         1 B60         0.1533
     19 H6        -78.2264   86.9131   96.4773 H         1 B60         0.0975
     20 H7        -77.1855   87.9549   95.4488 H         1 B60         0.0975
     21 H8        -76.7803   84.5027   93.9165 H         1 B60         0.0549
     22 H9        -76.8338   84.7714   95.6917 H         1 B60         0.0549
     23 H10       -75.8045   85.8172   94.6556 H         1 B60         0.0549
@<TRIPOS>BOND
     1    1    2 2  
     2    2    3 1  
     3    2    8 am 
     4    3    4 2  
     5    3    9 1  
     6    4    5 1  
     7    4   12 1  
     8    5    6 ar 
     9    6    7 ar 
    10    6    8 ar 
    11    9   10 2  
    12   10   11 1  
    13   11   12 1  
    14   12   13 1  
    15    5   14 1  
    16    7   15 1  
    17    7   16 1  
    18    8   17 1  
    19   10   18 1  
    20   11   19 1  
    21   11   20 1  
    22   13   21 1  
    23   13   22 1  
    24   13   23 1  
@<TRIPOS>SUBSTRUCTURE
     1 B60         1

