### 
### Created by X-TOOL on Mon Sep 10 21:13:01 2018
### 

@<TRIPOS>MOLECULE
3h2m_ligand
   36    37     1     0     0
SMALL
GAST_HUCK


@<TRIPOS>ATOM
      1 O2        -81.4830   87.1920   90.8780 O.2       1 B61        -0.3650
      2 C1        -80.5160   86.5170   91.2410 C.2       1 B61         0.2616
      3 C4        -79.7110   86.8730   92.4420 C.2       1 B61         0.2016
      4 C7        -78.5540   85.9750   92.7200 C.2       1 B61         0.1766
      5 N6        -78.3210   84.9040   91.9070 N.2       1 B61        -0.2315
      6 C5        -79.1000   84.6640   90.8160 C.cat     1 B61         0.3268
      7 N8        -78.8470   83.6300   89.9850 N.pl3     1 B61        -0.2132
      8 N3        -80.1650   85.4310   90.5300 N.am      1 B61        -0.1999
      9 N9        -79.9770   87.9410   93.2550 N.2       1 B61        -0.2720
     10 C10       -79.1970   88.2160   94.3530 C.3       1 B61         0.0635
     11 C17       -79.6120   89.4690   95.1200 C.3       1 B61        -0.0039
     12 C23       -80.2140   89.3620   96.5300 C.3       1 B61         0.0622
     13 O24       -80.9310   88.0480   96.7550 O.3       1 B61        -0.3891
     14 C25       -79.0170   89.6730   97.4610 C.3       1 B61        -0.0363
     15 C26       -81.1940   90.5630   96.7770 C.3       1 B61        -0.0363
     16 C11       -77.9750   87.3920   94.7480 C.3       1 B61         0.0541
     17 N12       -77.7380   86.2330   93.8330 N.pl3     1 B61        -0.2752
     18 C13       -76.6340   85.2740   94.0060 C.3       1 B61         0.0246
     19 H1        -78.0418   83.0125   90.1616 H         1 B61         0.4605
     20 H2        -79.4593   83.4589   89.1746 H         1 B61         0.4605
     21 H3        -80.7291   85.1800   89.7433 H         1 B61         0.1940
     22 H4        -79.8269   87.5790   94.9912 H         1 B61         0.0517
     23 H5        -80.3581   89.9854   94.4982 H         1 B61         0.0310
     24 H6        -78.7121   90.0953   95.2092 H         1 B61         0.0310
     25 H7        -81.6385   87.9630   96.1267 H         1 B61         0.2101
     26 H8        -79.3452   89.6220   98.5096 H         1 B61         0.0257
     27 H9        -78.6366   90.6822   97.2445 H         1 B61         0.0257
     28 H10       -78.2186   88.9358   97.2905 H         1 B61         0.0257
     29 H11       -81.6234   90.4841   97.7866 H         1 B61         0.0257
     30 H12       -82.0024   90.5359   96.0316 H         1 B61         0.0257
     31 H13       -80.6429   91.5106   96.6860 H         1 B61         0.0257
     32 H14       -78.1238   87.0095   95.7686 H         1 B61         0.0548
     33 H15       -77.0893   88.0439   94.7262 H         1 B61         0.0548
     34 H16       -76.6763   84.5183   93.2078 H         1 B61         0.0495
     35 H17       -76.7276   84.7797   94.9842 H         1 B61         0.0495
     36 H18       -75.6734   85.8076   93.9552 H         1 B61         0.0495
@<TRIPOS>BOND
     1    1    2 2  
     2    2    3 1  
     3    2    8 am 
     4    3    4 1  
     5    3    9 2  
     6    4    5 2  
     7    4   17 1  
     8    5    6 ar 
     9    6    7 ar 
    10    6    8 ar 
    11    9   10 1  
    12   10   11 1  
    13   10   16 1  
    14   11   12 1  
    15   12   13 1  
    16   12   14 1  
    17   12   15 1  
    18   16   17 1  
    19   17   18 1  
    20    7   19 1  
    21    7   20 1  
    22    8   21 1  
    23   10   22 1  
    24   11   23 1  
    25   11   24 1  
    26   13   25 1  
    27   14   26 1  
    28   14   27 1  
    29   14   28 1  
    30   15   29 1  
    31   15   30 1  
    32   15   31 1  
    33   16   32 1  
    34   16   33 1  
    35   18   34 1  
    36   18   35 1  
    37   18   36 1  
@<TRIPOS>SUBSTRUCTURE
     1 B61         1

