### 
### Created by X-TOOL on Mon Sep 10 21:13:02 2018
### 

@<TRIPOS>MOLECULE
3h2o_ligand
   38    40     1     0     0
SMALL
GAST_HUCK


@<TRIPOS>ATOM
      1 O3        -82.9760   95.4260   94.3410 O.co2     1 B63        -0.5642
      2 C15       -82.7060   94.8080   95.4130 C.2       1 B63         0.0542
      3 O2        -83.4110   94.8740   96.4430 O.co2     1 B63        -0.5642
      4 C12       -81.5120   93.9070   95.4640 C.ar      1 B63        -0.0033
      5 C11       -81.1900   93.2080   96.6260 C.ar      1 B63        -0.0593
      6 C10       -80.0860   92.3640   96.6170 C.ar      1 B63        -0.0405
      7 C13       -80.7200   93.7750   94.3310 C.ar      1 B63        -0.0593
      8 C14       -79.6190   92.9410   94.3180 C.ar      1 B63        -0.0405
      9 C9        -79.3110   92.2390   95.4580 C.ar      1 B63         0.0413
     10 N6        -78.2250   91.4520   95.4110 N.pl3     1 B63        -0.3162
     11 C2        -78.2000   90.1920   96.1360 C.3       1 B63         0.0506
     12 C1        -79.4190   89.3320   95.8930 C.3       1 B63         0.0611
     13 C3        -79.0020   88.2220   95.0070 C.ar      1 B63         0.1452
     14 C4        -77.7640   87.4290   95.3280 C.ar      1 B63         0.1224
     15 N2        -77.5000   86.3650   94.3420 N.ar      1 B63        -0.1569
     16 C5        -78.2950   86.1330   93.2830 C.ar      1 B63         0.2851
     17 N5        -78.0180   85.1600   92.3790 N.pl3     1 B63        -0.2042
     18 C8        -78.8700   84.9680   91.3110 C.cat     1 B63         0.2087
     19 N4        -78.5920   83.9840   90.4280 N.pl3     1 B63        -0.3305
     20 N3        -79.9970   85.7060   91.0700 N.am      1 B63        -0.2435
     21 C7        -80.3680   86.7180   91.8650 C.2       1 B63         0.2754
     22 O1        -81.4010   87.3690   91.6120 O.2       1 B63        -0.3491
     23 C6        -79.5110   86.9970   93.0550 C.ar      1 B63         0.2636
     24 N1        -79.7920   87.9910   93.9320 N.ar      1 B63        -0.1691
     25 H1        -81.7904   93.3208   97.5214 H         1 B63         0.0617
     26 H2        -79.8251   91.8028   97.5070 H         1 B63         0.0524
     27 H3        -80.9708   94.3377   93.4390 H         1 B63         0.0617
     28 H4        -79.0104   92.8424   93.4264 H         1 B63         0.0524
     29 H5        -77.4054   91.7420   94.8587 H         1 B63         0.1771
     30 H6        -78.1373   90.4108   97.2122 H         1 B63         0.0573
     31 H7        -77.3085   89.6283   95.8238 H         1 B63         0.0573
     32 H8        -80.2081   89.9252   95.4079 H         1 B63         0.0717
     33 H9        -79.7944   88.9323   96.8466 H         1 B63         0.0717
     34 H10       -77.1349   87.6193   96.1901 H         1 B63         0.1318
     35 H11       -77.1803   84.5708   92.4889 H         1 B63         0.2564
     36 H12       -79.2145   83.8231   89.6234 H         1 B63         0.1792
     37 H13       -77.7575   83.3947   90.5594 H         1 B63         0.1792
     38 H14       -80.5613   85.4826   90.2752 H         1 B63         0.1833
@<TRIPOS>BOND
     1    1    2 ar 
     2    2    3 ar 
     3    2    4 1  
     4    4    5 ar 
     5    4    7 ar 
     6    5    6 ar 
     7    6    9 ar 
     8    7    8 ar 
     9    8    9 ar 
    10    9   10 1  
    11   10   11 1  
    12   11   12 1  
    13   12   13 1  
    14   13   14 ar 
    15   13   24 ar 
    16   14   15 ar 
    17   15   16 ar 
    18   16   17 1  
    19   16   23 ar 
    20   17   18 ar 
    21   18   19 ar 
    22   18   20 ar 
    23   20   21 am 
    24   21   22 2  
    25   21   23 1  
    26   23   24 ar 
    27    5   25 1  
    28    6   26 1  
    29    7   27 1  
    30    8   28 1  
    31   10   29 1  
    32   11   30 1  
    33   11   31 1  
    34   12   32 1  
    35   12   33 1  
    36   14   34 1  
    37   17   35 1  
    38   19   36 1  
    39   19   37 1  
    40   20   38 1  
@<TRIPOS>SUBSTRUCTURE
     1 B63         1

