### 
### Created by X-TOOL on Mon Sep 10 21:12:59 2018
### 

@<TRIPOS>MOLECULE
3h30_ligand
   32    34     1     0     0
SMALL
GAST_HUCK


@<TRIPOS>ATOM
      1 C6         18.0160   -2.9300    6.7590 C.ar      1 RFZ         0.0896
      2 C5         18.9360   -3.9750    6.7390 C.ar      1 RFZ        -0.0244
      3 C4         19.4540   -4.4220    5.5280 C.ar      1 RFZ         0.0417
      4 CL2        20.5960   -5.7220    5.5180 Cl        1 RFZ        -0.0776
      5 C3         19.0450   -3.8210    4.3370 C.ar      1 RFZ         0.0396
      6 CL1        19.6730   -4.3670    2.8260 Cl        1 RFZ        -0.0802
      7 C2         18.1240   -2.7760    4.3580 C.ar      1 RFZ        -0.0466
      8 C7         17.6120   -2.3310    5.5740 C.ar      1 RFZ         0.0346
      9 N2         16.7420   -1.3780    5.8940 N.2       1 RFZ        -0.3056
     10 C1         16.5990   -1.3700    7.2180 C.2       1 RFZ         0.1085
     11 N1         17.3780   -2.3150    7.7470 N.pl3     1 RFZ        -0.2069
     12 C1'        17.5060   -2.6470    9.1810 C.3       1 RFZ         0.1981
     13 O4'        16.4260   -2.0430    9.9320 O.3       1 RFZ        -0.3373
     14 C4'        16.8820   -1.8890   11.3070 C.3       1 RFZ         0.1135
     15 C5'        16.5630   -0.4580   11.7490 C.3       1 RFZ         0.0730
     16 O5'        15.1450   -0.2690   11.7620 O.3       1 RFZ        -0.3924
     17 C3'        18.4160   -2.1350   11.2660 C.3       1 RFZ         0.1145
     18 O3'        18.7000   -3.4580   11.7500 O.3       1 RFZ        -0.3864
     19 C2'        18.7600   -2.0390    9.7780 C.3       1 RFZ         0.1380
     20 O2'        19.8860   -2.8600    9.4660 O.3       1 RFZ        -0.3836
     21 H1         19.2484   -4.4401    7.6670 H         1 RFZ         0.0557
     22 H2         17.8072   -2.3111    3.4314 H         1 RFZ         0.0563
     23 H3         15.9500   -0.6993    7.7791 H         1 RFZ         0.1355
     24 H4         17.5074   -3.7399    9.3058 H         1 RFZ         0.0989
     25 H5         16.3908   -2.6115   11.9753 H         1 RFZ         0.0647
     26 H6         17.0215    0.2537   11.0467 H         1 RFZ         0.0584
     27 H7         16.9651   -0.2876   12.7586 H         1 RFZ         0.0584
     28 H8         14.9475    0.6188   12.0362 H         1 RFZ         0.2095
     29 H9         18.9631   -1.3850   11.8560 H         1 RFZ         0.0648
     30 H10        19.6377   -3.6086   11.7250 H         1 RFZ         0.2100
     31 H11        18.9310   -1.0033    9.4492 H         1 RFZ         0.0676
     32 H12        19.6855   -3.7642    9.6775 H         1 RFZ         0.2101
@<TRIPOS>BOND
     1    1    2 ar 
     2    1    8 ar 
     3    1   11 1  
     4    2    3 ar 
     5    3    4 1  
     6    3    5 ar 
     7    5    6 1  
     8    5    7 ar 
     9    7    8 ar 
    10    8    9 1  
    11    9   10 2  
    12   10   11 1  
    13   11   12 1  
    14   12   13 1  
    15   12   19 1  
    16   13   14 1  
    17   14   15 1  
    18   14   17 1  
    19   15   16 1  
    20   17   18 1  
    21   17   19 1  
    22   19   20 1  
    23    2   21 1  
    24    7   22 1  
    25   10   23 1  
    26   12   24 1  
    27   14   25 1  
    28   15   26 1  
    29   15   27 1  
    30   16   28 1  
    31   17   29 1  
    32   18   30 1  
    33   19   31 1  
    34   20   32 1  
@<TRIPOS>SUBSTRUCTURE
     1 RFZ         1

