### 
### Created by X-TOOL on Mon Sep 10 21:13:01 2018
### 

@<TRIPOS>MOLECULE
3h3c_ligand
   57    59     1     0     0
SMALL
GAST_HUCK


@<TRIPOS>ATOM
      1 C4         16.9110  -10.3060    1.1380 C.ar      1 P1E         0.0750
      2 C6         18.8950  -10.7860    2.4290 C.ar      1 P1E        -0.0428
      3 C9         14.6980   -9.5710    2.0190 C.ar      1 P1E         0.2285
      4 C13        12.5790   -8.7150    2.4970 C.ar      1 P1E         0.0378
      5 F22        12.2010   -7.7260    5.7620 F         1 P1E        -0.2402
      6 C15        11.7480   -8.6460    4.8470 C.3       1 P1E         0.3632
      7 F16        10.7250   -7.9740    4.2090 F         1 P1E        -0.2402
      8 F21        11.3180   -9.8180    5.4780 F         1 P1E        -0.2402
      9 C12        12.8050   -8.9840    3.8250 C.ar      1 P1E         0.0987
     10 N14        13.5630   -9.0200    1.6430 N.ar      1 P1E        -0.2271
     11 C11        14.0260   -9.5520    4.2190 C.ar      1 P1E         0.1506
     12 N8         14.2920   -9.8180    5.5540 N.pl3     1 P1E        -0.2764
     13 C25        15.5940  -10.3650    5.9030 C.3       1 P1E         0.0903
     14 C28        15.5630  -11.9050    5.7560 C.3       1 P1E        -0.0226
     15 C31        15.7660  -12.4540    7.1820 C.3       1 P1E        -0.0454
     16 C27        16.3970  -11.3130    8.0170 C.3       1 P1E        -0.0072
     17 C24        15.9710   -9.9870    7.3760 C.3       1 P1E         0.0039
     18 N26        17.1250   -9.0630    7.4200 N.4       1 P1E         0.2348
     19 C30        17.4810   -8.6910    8.8030 C.3       1 P1E        -0.0430
     20 C29        16.7650   -7.7880    6.7900 C.3       1 P1E        -0.0430
     21 N10        14.9340   -9.8600    3.2990 N.ar      1 P1E        -0.2072
     22 N7         15.6110   -9.8330    1.0280 N.pl3     1 P1E        -0.2277
     23 C5         17.5890  -10.3440    2.3740 C.ar      1 P1E        -0.0330
     24 C3         17.5600  -10.6950   -0.0500 C.ar      1 P1E        -0.0330
     25 C2         18.8740  -11.1500    0.0340 C.ar      1 P1E        -0.0428
     26 C1         19.5570  -11.1970    1.2570 C.ar      1 P1E         0.0982
     27 S18        21.2710  -11.7650    1.3980 S.o2      1 P1E         0.0636
     28 O19        21.2630  -13.0550    2.0400 O.2       1 P1E        -0.1516
     29 O20        21.9290  -11.4690    0.1760 O.2       1 P1E        -0.1516
     30 N17        21.8560  -10.6820    2.5200 N.am      1 P1E        -0.2515
     31 C23        22.0240   -9.2280    2.2960 C.3       1 P1E         0.0150
     32 H1         19.4140  -10.8168    3.3802 H         1 P1E         0.0612
     33 H2         11.6478   -8.2765    2.1570 H         1 P1E         0.1104
     34 H3         13.5853   -9.6329    6.2801 H         1 P1E         0.1985
     35 H4         16.3516   -9.9511    5.2214 H         1 P1E         0.0636
     36 H5         16.3725  -12.2452    5.0934 H         1 P1E         0.0291
     37 H6         14.5947  -12.2340    5.3508 H         1 P1E         0.0291
     38 H7         16.4391  -13.3238    7.1604 H         1 P1E         0.0268
     39 H8         14.7989  -12.7494    7.6150 H         1 P1E         0.0268
     40 H9         17.4934  -11.4009    8.0059 H         1 P1E         0.0321
     41 H10        16.0356  -11.3622    9.0548 H         1 P1E         0.0321
     42 H11        15.1107   -9.5436    7.8988 H         1 P1E         0.0876
     43 H12        17.9118   -9.4868    6.9538 H         1 P1E         0.2031
     44 H13        18.3411   -8.0054    8.7884 H         1 P1E         0.0778
     45 H14        17.7433   -9.5962    9.3702 H         1 P1E         0.0778
     46 H15        16.6241   -8.1941    9.2812 H         1 P1E         0.0778
     47 H16        16.4808   -7.9642    5.7421 H         1 P1E         0.0778
     48 H17        17.6264   -7.1049    6.8263 H         1 P1E         0.0778
     49 H18        15.9178   -7.3389    7.3291 H         1 P1E         0.0778
     50 H19        15.2853   -9.6532    0.0675 H         1 P1E         0.2299
     51 H20        17.0849  -10.0264    3.2796 H         1 P1E         0.0553
     52 H21        17.0501  -10.6417   -1.0051 H         1 P1E         0.0553
     53 H22        19.3801  -11.4753   -0.8677 H         1 P1E         0.0612
     54 H23        22.1144  -11.0424    3.4163 H         1 P1E         0.1668
     55 H24        22.4284   -8.7611    3.2062 H         1 P1E         0.0439
     56 H25        21.0490   -8.7789    2.0557 H         1 P1E         0.0439
     57 H26        22.7194   -9.0638    1.4597 H         1 P1E         0.0439
@<TRIPOS>BOND
     1   22    1 1  
     2    1   23 ar 
     3    1   24 ar 
     4   23    2 ar 
     5    2   26 ar 
     6   10    3 ar 
     7    3   21 ar 
     8    3   22 1  
     9    9    4 ar 
    10    4   10 ar 
    11    6    5 1  
    12    6    7 1  
    13    6    8 1  
    14    6    9 1  
    15    9   11 ar 
    16   11   12 1  
    17   11   21 ar 
    18   12   13 1  
    19   13   14 1  
    20   13   17 1  
    21   14   15 1  
    22   15   16 1  
    23   16   17 1  
    24   17   18 1  
    25   18   19 1  
    26   18   20 1  
    27   24   25 ar 
    28   25   26 ar 
    29   26   27 1  
    30   27   28 2  
    31   27   29 2  
    32   27   30 am 
    33   30   31 1  
    34    2   32 1  
    35    4   33 1  
    36   12   34 1  
    37   13   35 1  
    38   14   36 1  
    39   14   37 1  
    40   15   38 1  
    41   15   39 1  
    42   16   40 1  
    43   16   41 1  
    44   17   42 1  
    45   18   43 1  
    46   19   44 1  
    47   19   45 1  
    48   19   46 1  
    49   20   47 1  
    50   20   48 1  
    51   20   49 1  
    52   22   50 1  
    53   23   51 1  
    54   24   52 1  
    55   25   53 1  
    56   30   54 1  
    57   31   55 1  
    58   31   56 1  
    59   31   57 1  
@<TRIPOS>SUBSTRUCTURE
     1 P1E         1

