### 
### Created by X-TOOL on Mon Sep 10 21:13:00 2018
### 

@<TRIPOS>MOLECULE
3h59_ligand
   68    71     1     0     0
SMALL
GAST_HUCK


@<TRIPOS>ATOM
      1 C1         -8.3190   -9.8640    8.1780 C.ar      1 H59        -0.0313
      2 C2         -7.9110   -9.9980    6.8590 C.ar      1 H59        -0.0589
      3 C3         -6.6300   -9.6440    6.4340 C.ar      1 H59        -0.0189
      4 C4         -5.7360   -9.1010    7.3300 C.ar      1 H59         0.1253
      5 C5         -6.1400   -8.9360    8.6540 C.ar      1 H59        -0.0415
      6 C6         -7.4160   -9.3230    9.0840 C.ar      1 H59        -0.0670
      7 C7        -10.5380   -7.8900   11.3480 C.2       1 H59         0.0947
      8 C8        -10.8720   -7.0490   10.3190 C.2       1 H59         0.1480
      9 C9        -10.7330   -7.8270    9.0240 C.3       1 H59         0.1329
     10 N10       -10.1930   -9.1550    9.4340 N.am      1 H59        -0.2440
     11 C11       -10.1050   -9.1650   10.7940 C.2       1 H59         0.1821
     12 C12       -10.6110   -7.6850   15.7480 C.ar      1 H59         0.0902
     13 C13        -9.8950   -8.6250   14.9920 C.ar      1 H59         0.0667
     14 C14        -9.3790   -9.7800   15.6230 C.ar      1 H59        -0.0521
     15 C15        -9.5540   -9.9700   16.9880 C.ar      1 H59        -0.0542
     16 C16       -10.2570   -9.0280   17.7540 C.ar      1 H59         0.0525
     17 C17       -10.7870   -7.9050   17.1100 C.ar      1 H59        -0.0301
     18 C18       -10.4970   -7.6040   12.8090 C.2       1 H59         0.0428
     19 N19        -9.7170   -8.4400   13.6160 N.pl3     1 H59        -0.2886
     20 S20       -11.2690   -6.1980   14.9840 S.o2      1 H59        -0.0187
     21 C21       -11.2260   -6.5720   13.2670 C.2       1 H59         0.0199
     22 O22       -12.6420   -5.9880   15.3670 O.2       1 H59        -0.1768
     23 O23       -10.3320   -5.1520   15.2840 O.2       1 H59        -0.1768
     24 N24       -10.4570   -9.2430   19.1490 N.am      1 H59        -0.1984
     25 S25       -10.7110   -8.0620   20.2800 S.o2      1 H59         0.0552
     26 C26       -12.5170   -7.9930   20.4300 C.3       1 H59         0.0783
     27 O27       -10.1940   -8.6460   21.4620 O.2       1 H59        -0.1506
     28 O28       -10.2030   -6.8470   19.7540 O.2       1 H59        -0.1506
     29 O29       -11.2860   -5.7760   10.4480 O.3       1 H59        -0.2972
     30 O30        -9.6500  -10.0640   11.4870 O.2       1 H59        -0.4111
     31 C31        -9.7270  -10.2570    8.5780 C.3       1 H59         0.0664
     32 F32        -4.4800   -8.7350    6.9150 F         1 H59        -0.1949
     33 C33        -6.2530   -9.8380    4.9800 C.3       1 H59        -0.0319
     34 C34       -12.1090   -7.8790    8.2820 C.3       1 H59         0.0084
     35 C35       -12.4590   -6.4300    7.9340 C.3       1 H59        -0.0455
     36 C36       -13.2820   -6.3150    6.6710 C.3       1 H59        -0.0645
     37 C37       -12.0700   -8.7310    6.9920 C.3       1 H59        -0.0546
     38 C38       -13.2230   -8.4620    9.1690 C.3       1 H59        -0.0546
     39 H1         -8.6125  -10.3918    6.1324 H         1 H59         0.0485
     40 H2         -5.4510   -8.4982    9.3672 H         1 H59         0.0568
     41 H3         -7.6984   -9.2002   10.1234 H         1 H59         0.0491
     42 H4        -10.0068   -7.3323    8.3623 H         1 H59         0.0876
     43 H5         -8.8445  -10.5206   15.0392 H         1 H59         0.0493
     44 H6         -9.1442  -10.8530   17.4650 H         1 H59         0.0456
     45 H7        -11.3520   -7.1844   17.6901 H         1 H59         0.0475
     46 H8         -8.9523   -8.9597   13.1620 H         1 H59         0.2045
     47 H9        -11.7955   -5.9616   12.5677 H         1 H59         0.0158
     48 H10       -10.4426  -10.1893   19.4720 H         1 H59         0.2115
     49 H11       -12.7945   -7.2269   21.1690 H         1 H59         0.0487
     50 H12       -12.8954   -8.9725   20.7576 H         1 H59         0.0487
     51 H13       -12.9565   -7.7377   19.4545 H         1 H59         0.0487
     52 H14       -12.1673   -5.6943   10.1028 H         1 H59         0.2708
     53 H15        -9.7216  -11.2054    9.1352 H         1 H59         0.0678
     54 H16       -10.3689  -10.3568    7.6904 H         1 H59         0.0678
     55 H17        -7.1007  -10.2820    4.4375 H         1 H59         0.0382
     56 H18        -5.3834  -10.5082    4.9129 H         1 H59         0.0382
     57 H19        -6.0012   -8.8648    4.5335 H         1 H59         0.0382
     58 H20       -11.5248   -5.8654    7.7977 H         1 H59         0.0271
     59 H21       -13.0312   -5.9964    8.7674 H         1 H59         0.0271
     60 H22       -13.5022   -5.2558    6.4720 H         1 H59         0.0230
     61 H23       -14.2245   -6.8682    6.7958 H         1 H59         0.0230
     62 H24       -12.7181   -6.7372    5.8262 H         1 H59         0.0230
     63 H25       -11.8182   -9.7710    7.2470 H         1 H59         0.0238
     64 H26       -11.3091   -8.3266    6.3083 H         1 H59         0.0238
     65 H27       -13.0550   -8.7015    6.5032 H         1 H59         0.0238
     66 H28       -13.2879   -7.8846   10.1030 H         1 H59         0.0238
     67 H29       -12.9940   -9.5123    9.4024 H         1 H59         0.0238
     68 H30       -14.1835   -8.4059    8.6358 H         1 H59         0.0238
@<TRIPOS>BOND
     1    1    2 ar 
     2    1    6 ar 
     3   31    1 1  
     4    2    3 ar 
     5    3    4 ar 
     6    3   33 1  
     7    5    4 ar 
     8    4   32 1  
     9    6    5 ar 
    10    7    8 2  
    11    7   11 1  
    12   18    7 1  
    13    8    9 1  
    14    8   29 1  
    15   10    9 1  
    16    9   34 1  
    17   11   10 am 
    18   10   31 1  
    19   11   30 2  
    20   13   12 ar 
    21   12   17 ar 
    22   12   20 1  
    23   13   14 ar 
    24   19   13 1  
    25   14   15 ar 
    26   15   16 ar 
    27   17   16 ar 
    28   16   24 1  
    29   18   19 1  
    30   18   21 2  
    31   20   21 1  
    32   20   22 2  
    33   20   23 2  
    34   24   25 am 
    35   25   26 1  
    36   25   27 2  
    37   25   28 2  
    38   34   35 1  
    39   34   37 1  
    40   34   38 1  
    41   35   36 1  
    42    2   39 1  
    43    5   40 1  
    44    6   41 1  
    45    9   42 1  
    46   14   43 1  
    47   15   44 1  
    48   17   45 1  
    49   19   46 1  
    50   21   47 1  
    51   24   48 1  
    52   26   49 1  
    53   26   50 1  
    54   26   51 1  
    55   29   52 1  
    56   31   53 1  
    57   31   54 1  
    58   33   55 1  
    59   33   56 1  
    60   33   57 1  
    61   35   58 1  
    62   35   59 1  
    63   36   60 1  
    64   36   61 1  
    65   36   62 1  
    66   37   63 1  
    67   37   64 1  
    68   37   65 1  
    69   38   66 1  
    70   38   67 1  
    71   38   68 1  
@<TRIPOS>SUBSTRUCTURE
     1 H59         1

