### 
### Created by X-TOOL on Mon Sep 10 21:12:59 2018
### 

@<TRIPOS>MOLECULE
3h5b_ligand
   81    85     1     0     0
SMALL
GAST_HUCK


@<TRIPOS>ATOM
      1 O39        10.7870   17.3300   20.6370 O.3       1 031        -0.3212
      2 C40        10.0330   16.7010   19.6060 C.3       1 031         0.0594
      3 C2         11.7690   18.0790   20.0770 C.ar      1 031         0.0908
      4 C3         12.2170   17.8560   18.7860 C.ar      1 031        -0.0313
      5 C4         13.3070   18.5590   18.2630 C.ar      1 031        -0.0440
      6 C5         13.9460   19.5160   19.0380 C.ar      1 031         0.0971
      7 C6         13.4850   19.7030   20.3250 C.ar      1 031        -0.0440
      8 C7         12.4420   18.9930   20.8820 C.ar      1 031        -0.0313
      9 S8         15.2730   20.5030   18.4590 S.o2      1 031         0.0658
     10 O9         16.1720   20.8560   19.6060 O.2       1 031        -0.1515
     11 O10        16.0390   19.7150   17.4480 O.2       1 031        -0.1515
     12 N11        14.7470   21.8880   17.8040 N.am      1 031        -0.2305
     13 C12        13.7280   21.7280   16.7890 C.3       1 031         0.0527
     14 C13        13.7910   22.8660   15.7780 C.3       1 031         0.0610
     15 C14        15.2190   23.1470   15.2950 C.3       1 031        -0.0114
     16 N15        13.0600   22.5300   14.5520 N.am      1 031        -0.2822
     17 C45        13.8880   22.0130   13.6720 C.2       1 031         0.1763
     18 O46        13.5220   21.3760   12.7020 O.2       1 031        -0.3971
     19 C47        15.3340   22.3110   14.0230 C.3       1 031         0.0394
     20 C16        14.4740   22.9350   18.7850 C.3       1 031         0.0579
     21 C17        15.2570   24.1770   18.4230 C.3       1 031         0.0967
     22 O18        14.7880   25.4020   18.9350 O.3       1 031        -0.3877
     23 C19        16.7620   24.0450   18.5520 C.3       1 031         0.0807
     24 N20        17.3830   25.0910   17.7460 N.am      1 031        -0.2550
     25 C21        18.2660   24.9670   16.7700 C.2       1 031         0.3202
     26 O22        18.5260   23.8980   16.2130 O.2       1 031        -0.3775
     27 O23        18.8980   26.1120   16.3990 O.3       1 031        -0.2605
     28 C24        21.0740   25.2830   15.6730 C.3       1 031        -0.0169
     29 C25        19.7570   25.9410   15.2720 C.3       1 031         0.0908
     30 C26        20.1740   27.3410   14.7960 C.3       1 031         0.0044
     31 C27        21.3230   27.7160   15.7290 C.3       1 031         0.0643
     32 O28        20.8430   28.1420   17.0020 O.3       1 031        -0.3762
     33 C29        21.8780   27.8070   17.9310 C.3       1 031         0.0484
     34 C30        22.4350   26.4630   17.4510 C.3       1 031        -0.0242
     35 C31        22.0600   26.4070   15.9710 C.3       1 031        -0.0099
     36 C32        17.1870   24.1910   20.0130 C.3       1 031         0.0064
     37 C33        19.5360   24.9640   20.4930 C.ar      1 031        -0.0603
     38 C34        20.9030   24.7520   20.5430 C.ar      1 031        -0.0686
     39 C35        21.3820   23.4640   20.3940 C.ar      1 031        -0.0687
     40 C36        20.5320   22.4220   20.0550 C.ar      1 031        -0.0686
     41 C37        19.1650   22.6370   19.9300 C.ar      1 031        -0.0603
     42 C38        18.6860   23.9250   20.1400 C.ar      1 031        -0.0408
     43 H1          9.2347   16.0919   20.0551 H         1 031         0.0577
     44 H2         10.6946   16.0559   19.0093 H         1 031         0.0577
     45 H3          9.5870   17.4691   18.9571 H         1 031         0.0577
     46 H4         11.7127   17.1217   18.1682 H         1 031         0.0542
     47 H5         13.6515   18.3568   17.2553 H         1 031         0.0608
     48 H6         13.9726   20.4541   20.9359 H         1 031         0.0608
     49 H7         12.1549   19.1426   21.9165 H         1 031         0.0542
     50 H8         12.7380   21.7256   17.2685 H         1 031         0.0501
     51 H9         13.8851   20.7725   16.2672 H         1 031         0.0501
     52 H10        13.3656   23.7692   16.2398 H         1 031         0.0573
     53 H11        15.9580   22.8269   16.0443 H         1 031         0.0312
     54 H12        15.3574   24.2162   15.0769 H         1 031         0.0312
     55 H13        12.0808   22.6725   14.4075 H         1 031         0.1854
     56 H14        15.8937   21.3828   14.2103 H         1 031         0.0503
     57 H15        15.8255   22.8800   13.2201 H         1 031         0.0503
     58 H16        14.7755   22.5892   19.7847 H         1 031         0.0504
     59 H17        13.3986   23.1661   18.7858 H         1 031         0.0504
     60 H18        15.0898   24.2687   17.3397 H         1 031         0.0634
     61 H19        14.7879   25.3679   19.8844 H         1 031         0.2100
     62 H20        17.0769   23.0583   18.1816 H         1 031         0.0604
     63 H21        17.1032   26.0268   17.9607 H         1 031         0.1873
     64 H22        21.4506   24.6584   14.8496 H         1 031         0.0297
     65 H23        20.9284   24.6607   16.5683 H         1 031         0.0297
     66 H24        19.2492   25.3691   14.4814 H         1 031         0.0648
     67 H25        19.3410   28.0526   14.8946 H         1 031         0.0319
     68 H26        20.5118   27.3146   13.7495 H         1 031         0.0319
     69 H27        21.9696   28.4823   15.2767 H         1 031         0.0599
     70 H28        21.4675   27.7128   18.9472 H         1 031         0.0560
     71 H29        22.6656   28.5749   17.9234 H         1 031         0.0560
     72 H30        21.9731   25.6304   18.0019 H         1 031         0.0291
     73 H31        23.5270   26.4258   17.5781 H         1 031         0.0291
     74 H32        22.9555   26.3120   15.3393 H         1 031         0.0327
     75 H33        16.6334   23.4674   20.6293 H         1 031         0.0449
     76 H34        16.9659   25.2117   20.3583 H         1 031         0.0449
     77 H35        19.1296   25.9408   20.7294 H         1 031         0.0557
     78 H36        21.5850   25.5805   20.6961 H         1 031         0.0599
     79 H37        22.4370   23.2656   20.5443 H         1 031         0.0559
     80 H38        20.9376   21.4311   19.8861 H         1 031         0.0599
     81 H39        18.4927   21.8253   19.6765 H         1 031         0.0557
@<TRIPOS>BOND
     1    1    2 1  
     2    3    1 1  
     3    4    3 ar 
     4    8    3 ar 
     5    5    4 ar 
     6    6    5 ar 
     7    6    7 ar 
     8    9    6 1  
     9    7    8 ar 
    10    9   10 2  
    11    9   11 2  
    12   12    9 am 
    13   12   13 1  
    14   20   12 1  
    15   13   14 1  
    16   14   15 1  
    17   14   16 1  
    18   15   19 1  
    19   16   17 am 
    20   17   18 2  
    21   17   19 1  
    22   21   20 1  
    23   21   22 1  
    24   23   21 1  
    25   23   24 1  
    26   36   23 1  
    27   24   25 am 
    28   25   26 2  
    29   25   27 1  
    30   27   29 1  
    31   29   28 1  
    32   28   35 1  
    33   29   30 1  
    34   30   31 1  
    35   31   32 1  
    36   31   35 1  
    37   32   33 1  
    38   34   33 1  
    39   35   34 1  
    40   42   36 1  
    41   37   38 ar 
    42   37   42 ar 
    43   38   39 ar 
    44   39   40 ar 
    45   40   41 ar 
    46   41   42 ar 
    47    2   43 1  
    48    2   44 1  
    49    2   45 1  
    50    4   46 1  
    51    5   47 1  
    52    7   48 1  
    53    8   49 1  
    54   13   50 1  
    55   13   51 1  
    56   14   52 1  
    57   15   53 1  
    58   15   54 1  
    59   16   55 1  
    60   19   56 1  
    61   19   57 1  
    62   20   58 1  
    63   20   59 1  
    64   21   60 1  
    65   22   61 1  
    66   23   62 1  
    67   24   63 1  
    68   28   64 1  
    69   28   65 1  
    70   29   66 1  
    71   30   67 1  
    72   30   68 1  
    73   31   69 1  
    74   33   70 1  
    75   33   71 1  
    76   34   72 1  
    77   34   73 1  
    78   35   74 1  
    79   36   75 1  
    80   36   76 1  
    81   37   77 1  
    82   38   78 1  
    83   39   79 1  
    84   40   80 1  
    85   41   81 1  
@<TRIPOS>SUBSTRUCTURE
     1 031         1

