### 
### Created by X-TOOL on Mon Sep 10 21:13:01 2018
### 

@<TRIPOS>MOLECULE
3h5s_ligand
   69    73     1     0     0
SMALL
GAST_HUCK


@<TRIPOS>ATOM
      1 C1        -10.0420    8.2950   12.9910 C.3       1 H5S         0.1395
      2 C3         -9.7090    9.7350   11.1920 C.2       1 H5S         0.1868
      3 C4        -10.0370    8.4080   10.6240 C.2       1 H5S         0.1037
      4 C5        -10.1800    7.5360   11.6890 C.2       1 H5S         0.1618
      5 C6         -9.2140   10.7180   13.4480 C.3       1 H5S         0.0668
      6 C7         -7.7720   10.3400   13.7720 C.ar      1 H5S        -0.0313
      7 C8         -7.2820   10.4850   15.0730 C.ar      1 H5S        -0.0589
      8 C9         -5.9680   10.1750   15.3590 C.ar      1 H5S        -0.0189
      9 C10        -5.1160    9.6710   14.3680 C.ar      1 H5S         0.1253
     10 O13       -10.4330    6.2400   11.6520 O.3       1 H5S        -0.2872
     11 N2         -9.6480    9.6510   12.5470 N.am      1 H5S        -0.2414
     12 C11        -5.5680    9.5000   13.0600 C.ar      1 H5S        -0.0415
     13 C12        -6.8960    9.8490   12.7930 C.ar      1 H5S        -0.0670
     14 O14        -9.4010   10.7500   10.5740 O.2       1 H5S        -0.4098
     15 C15       -10.1360    8.0150    9.1750 C.2       1 H5S         0.0376
     16 S16       -10.8670    6.6880    7.2690 S.o2      1 H5S         0.0480
     17 N17       -10.7070    6.8880    8.9170 N.2       1 H5S        -0.2511
     18 C18       -10.2430    8.2810    6.8070 C.ar      1 H5S         0.1121
     19 C19        -9.8120    8.8790    8.0120 C.ar      1 H5S         0.0181
     20 C20        -9.2370   10.1720    7.9020 C.ar      1 H5S        -0.0554
     21 C21        -9.0890   10.8040    6.6710 C.ar      1 H5S        -0.0583
     22 O22        -9.9480    5.7270    6.8140 O.2       1 H5S        -0.1603
     23 O23       -12.2510    6.5600    7.0200 O.2       1 H5S        -0.1603
     24 C24       -11.4500    8.2970   13.7060 C.3       1 H5S         0.0079
     25 C25       -11.7900    6.9000   14.2460 C.3       1 H5S        -0.0545
     26 C26       -11.5180    9.2010   14.9610 C.3       1 H5S        -0.0545
     27 C27       -12.6160    8.6870   12.7450 C.3       1 H5S        -0.0545
     28 F28        -3.8480    9.3620   14.6900 F         1 H5S        -0.1949
     29 C29        -5.4560   10.3540   16.7680 C.3       1 H5S        -0.0319
     30 C30       -10.0890    8.9040    5.6000 C.ar      1 H5S         0.0109
     31 C31        -9.5230   10.1750    5.5060 C.ar      1 H5S        -0.0289
     32 C32        -9.3680   10.8900    4.1930 C.3       1 H5S        -0.0008
     33 C33       -10.4240   10.3940    3.1860 C.3       1 H5S         0.0409
     34 N34       -10.4360    8.9040    3.1670 N.am      1 H5S        -0.2265
     35 C35       -10.5620    8.1370    4.4120 C.3       1 H5S         0.0640
     36 S36       -10.4750    8.0300    1.7660 S.o2      1 H5S         0.0402
     37 O37        -9.8360    8.8060    0.7490 O.2       1 H5S        -0.1554
     38 O38       -10.0250    6.7130    2.0810 O.2       1 H5S        -0.1554
     39 C39       -12.2670    7.9530    1.4220 C.3       1 H5S         0.0736
     40 H1         -9.2797    7.8528   13.6493 H         1 H5S         0.0906
     41 H2         -9.2621   11.6977   12.9502 H         1 H5S         0.0678
     42 H3         -9.8300   10.7390   14.3591 H         1 H5S         0.0678
     43 H4         -7.9363   10.8422   15.8600 H         1 H5S         0.0485
     44 H5        -11.2634    6.0929   11.2144 H         1 H5S         0.2762
     45 H6         -4.9181    9.1132   12.2834 H         1 H5S         0.0568
     46 H7         -7.2659    9.7344   11.7805 H         1 H5S         0.0491
     47 H8         -8.9046   10.6803    8.7999 H         1 H5S         0.0611
     48 H9         -8.6354   11.7871    6.6185 H         1 H5S         0.0559
     49 H10       -12.7732    6.9266   14.7386 H         1 H5S         0.0238
     50 H11       -11.0241    6.5913   14.9727 H         1 H5S         0.0238
     51 H12       -11.8164    6.1815   13.4135 H         1 H5S         0.0238
     52 H13       -11.2867   10.2386   14.6784 H         1 H5S         0.0238
     53 H14       -10.7864    8.8518   15.7045 H         1 H5S         0.0238
     54 H15       -12.5291    9.1550   15.3917 H         1 H5S         0.0238
     55 H16       -12.5797    8.0517   11.8478 H         1 H5S         0.0238
     56 H17       -12.5121    9.7420   12.4516 H         1 H5S         0.0238
     57 H18       -13.5781    8.5422   13.2581 H         1 H5S         0.0238
     58 H19        -6.2597   10.7570   17.4017 H         1 H5S         0.0382
     59 H20        -4.6070   11.0534   16.7636 H         1 H5S         0.0382
     60 H21        -5.1284    9.3820   17.1653 H         1 H5S         0.0382
     61 H22        -8.3630   10.6955    3.7903 H         1 H5S         0.0443
     62 H23        -9.4968   11.9709    4.3510 H         1 H5S         0.0443
     63 H24       -10.1781   10.7708    2.1823 H         1 H5S         0.0502
     64 H25       -11.4161   10.7642    3.4838 H         1 H5S         0.0502
     65 H26       -11.6197    7.8734    4.5594 H         1 H5S         0.0627
     66 H27        -9.9640    7.2181    4.3233 H         1 H5S         0.0627
     67 H28       -12.4384    7.3860    0.4951 H         1 H5S         0.0482
     68 H29       -12.6623    8.9729    1.3063 H         1 H5S         0.0482
     69 H30       -12.7796    7.4536    2.2573 H         1 H5S         0.0482
@<TRIPOS>BOND
     1    1    4 1  
     2   11    1 1  
     3    1   24 1  
     4    2    3 1  
     5   11    2 am 
     6    2   14 2  
     7    3    4 2  
     8    3   15 1  
     9    4   10 1  
    10    5    6 1  
    11    5   11 1  
    12    6    7 ar 
    13    6   13 ar 
    14    7    8 ar 
    15    8    9 ar 
    16    8   29 1  
    17    9   12 ar 
    18    9   28 1  
    19   12   13 ar 
    20   15   17 2  
    21   15   19 1  
    22   17   16 1  
    23   16   18 1  
    24   16   22 2  
    25   16   23 2  
    26   18   19 ar 
    27   18   30 ar 
    28   19   20 ar 
    29   20   21 ar 
    30   21   31 ar 
    31   24   25 1  
    32   24   26 1  
    33   24   27 1  
    34   30   31 ar 
    35   30   35 1  
    36   31   32 1  
    37   32   33 1  
    38   33   34 1  
    39   34   35 1  
    40   34   36 am 
    41   36   37 2  
    42   36   38 2  
    43   36   39 1  
    44    1   40 1  
    45    5   41 1  
    46    5   42 1  
    47    7   43 1  
    48   10   44 1  
    49   12   45 1  
    50   13   46 1  
    51   20   47 1  
    52   21   48 1  
    53   25   49 1  
    54   25   50 1  
    55   25   51 1  
    56   26   52 1  
    57   26   53 1  
    58   26   54 1  
    59   27   55 1  
    60   27   56 1  
    61   27   57 1  
    62   29   58 1  
    63   29   59 1  
    64   29   60 1  
    65   32   61 1  
    66   32   62 1  
    67   33   63 1  
    68   33   64 1  
    69   35   65 1  
    70   35   66 1  
    71   39   67 1  
    72   39   68 1  
    73   39   69 1  
@<TRIPOS>SUBSTRUCTURE
     1 H5S         1

