### 
### Created by X-TOOL on Mon Sep 10 21:13:01 2018
### 

@<TRIPOS>MOLECULE
3h5u_ligand
   62    65     1     0     0
SMALL
GAST_HUCK


@<TRIPOS>ATOM
      1 C1         76.0450   44.6650   12.9280 C.2       1 H5U         0.1051
      2 C2         75.8690   45.5640   11.8970 C.2       1 H5U         0.1622
      3 C3         76.0180   44.8160   10.5980 C.3       1 H5U         0.1396
      4 N4         76.4230   43.4580   11.0020 N.am      1 H5U        -0.2412
      5 C5         76.3880   43.3650   12.3500 C.2       1 H5U         0.1871
      6 O6         76.7030   42.3510   12.9750 O.2       1 H5U        -0.4097
      7 O7         75.5680   46.8820   12.0040 O.3       1 H5U        -0.2870
      8 C8         76.8810   42.3880   10.1350 C.3       1 H5U         0.0683
      9 C9         78.3160   42.8100    9.7800 C.ar      1 H5U        -0.0245
     10 C10        74.5950   44.8110    9.8950 C.3       1 H5U         0.0079
     11 C11        77.4150   43.1000   15.5790 C.ar      1 H5U        -0.0495
     12 C12        77.7970   42.5290   16.7760 C.ar      1 H5U        -0.0611
     13 C13        77.3390   43.0400   17.9820 C.ar      1 H5U        -0.0510
     14 C14        76.4830   44.1280   17.9380 C.ar      1 H5U         0.0079
     15 C15        76.5390   44.2100   15.5110 C.ar      1 H5U         0.0248
     16 C16        76.1090   44.6910   16.7560 C.ar      1 H5U         0.1183
     17 S17        75.0760   46.0740   16.3770 S.o2      1 H5U         0.0509
     18 N18        75.1410   45.9670   14.6960 N.2       1 H5U        -0.2464
     19 C19        75.9420   44.9880   14.3840 C.2       1 H5U         0.0430
     20 O20        73.7630   45.7570   16.8270 O.2       1 H5U        -0.1599
     21 O21        75.6690   47.3240   16.7280 O.2       1 H5U        -0.1599
     22 C22        74.2600   46.2120    9.3910 C.3       1 H5U        -0.0545
     23 C23        74.5000   43.8490    8.7030 C.3       1 H5U        -0.0545
     24 C24        73.4300   44.4170   10.8160 C.3       1 H5U        -0.0545
     25 C25        79.2400   43.1660   10.7770 C.ar      1 H5U        -0.0601
     26 C26        80.5440   43.5490   10.4470 C.ar      1 H5U        -0.0348
     27 C27        80.9410   43.6010    9.1000 C.ar      1 H5U         0.1248
     28 C28        80.0220   43.2660    8.1020 C.ar      1 H5U        -0.0348
     29 C29        78.7230   42.8800    8.4410 C.ar      1 H5U        -0.0601
     30 F30        82.2000   43.9960    8.7640 F         1 H5U        -0.1893
     31 C31        75.9120   44.7790   19.1590 C.3       1 H5U         0.0629
     32 N32        76.0580   43.9600   20.3470 N.am      1 H5U        -0.2407
     33 S33        75.8970   44.7650   21.7820 S.o2      1 H5U         0.0378
     34 C34        74.1110   44.7660   22.1090 C.3       1 H5U         0.0734
     35 O35        76.5000   43.8750   22.6820 O.2       1 H5U        -0.1556
     36 O36        76.2920   46.0880   21.5730 O.2       1 H5U        -0.1556
     37 H1         76.7717   45.2757    9.9418 H         1 H5U         0.0906
     38 H2         75.5288   47.1232   12.9220 H         1 H5U         0.2763
     39 H3         76.2563   42.3176    9.2323 H         1 H5U         0.0679
     40 H4         76.8733   41.4228   10.6625 H         1 H5U         0.0679
     41 H5         77.8004   42.6826   14.6558 H         1 H5U         0.0624
     42 H6         78.4616   41.6726   16.7740 H         1 H5U         0.0616
     43 H7         77.6409   42.6025   18.9267 H         1 H5U         0.0608
     44 H8         73.2731   46.2007    8.9053 H         1 H5U         0.0238
     45 H9         75.0220   46.5326    8.6654 H         1 H5U         0.0238
     46 H10        74.2433   46.9125   10.2389 H         1 H5U         0.0238
     47 H11        74.7370   42.8278    9.0362 H         1 H5U         0.0238
     48 H12        75.2153   44.1563    7.9259 H         1 H5U         0.0238
     49 H13        73.4797   43.8733    8.2926 H         1 H5U         0.0238
     50 H14        73.4284   45.0668   11.7035 H         1 H5U         0.0238
     51 H15        73.5482   43.3691   11.1290 H         1 H5U         0.0238
     52 H16        72.4794   44.5330   10.2749 H         1 H5U         0.0238
     53 H17        78.9375   43.1434   11.8177 H         1 H5U         0.0548
     54 H18        81.2483   43.8057   11.2301 H         1 H5U         0.0587
     55 H19        80.3185   43.3059    7.0601 H         1 H5U         0.0587
     56 H20        78.0186   42.6306    7.6557 H         1 H5U         0.0548
     57 H21        74.8415   44.9672   18.9901 H         1 H5U         0.0639
     58 H22        76.4308   45.7348   19.3240 H         1 H5U         0.0639
     59 H23        76.2429   42.9783   20.3014 H         1 H5U         0.1695
     60 H24        73.9121   45.2879   23.0566 H         1 H5U         0.0482
     61 H25        73.7504   43.7291   22.1788 H         1 H5U         0.0482
     62 H26        73.5885   45.2816   21.2898 H         1 H5U         0.0482
@<TRIPOS>BOND
     1    1    2 2  
     2    1    5 1  
     3   19    1 1  
     4    2    3 1  
     5    2    7 1  
     6    4    3 1  
     7    3   10 1  
     8    5    4 am 
     9    4    8 1  
    10    5    6 2  
    11    8    9 1  
    12    9   25 ar 
    13    9   29 ar 
    14   10   22 1  
    15   10   23 1  
    16   10   24 1  
    17   11   12 ar 
    18   15   11 ar 
    19   12   13 ar 
    20   14   13 ar 
    21   16   14 ar 
    22   14   31 1  
    23   15   16 ar 
    24   15   19 1  
    25   16   17 1  
    26   17   18 1  
    27   17   20 2  
    28   17   21 2  
    29   18   19 2  
    30   25   26 ar 
    31   26   27 ar 
    32   27   28 ar 
    33   27   30 1  
    34   28   29 ar 
    35   31   32 1  
    36   32   33 am 
    37   33   34 1  
    38   33   35 2  
    39   33   36 2  
    40    3   37 1  
    41    7   38 1  
    42    8   39 1  
    43    8   40 1  
    44   11   41 1  
    45   12   42 1  
    46   13   43 1  
    47   22   44 1  
    48   22   45 1  
    49   22   46 1  
    50   23   47 1  
    51   23   48 1  
    52   23   49 1  
    53   24   50 1  
    54   24   51 1  
    55   24   52 1  
    56   25   53 1  
    57   26   54 1  
    58   28   55 1  
    59   29   56 1  
    60   31   57 1  
    61   31   58 1  
    62   32   59 1  
    63   34   60 1  
    64   34   61 1  
    65   34   62 1  
@<TRIPOS>SUBSTRUCTURE
     1 H5U         1

