### 
### Created by X-TOOL on Mon Sep 10 21:13:01 2018
### 

@<TRIPOS>MOLECULE
3h98_ligand
   57    60     1     0     0
SMALL
GAST_HUCK


@<TRIPOS>ATOM
      1 C1          4.9820   -8.8960   -9.6940 C.3       1 B5P        -0.0626
      2 C2          6.4900   -9.1390   -9.6140 C.3       1 B5P        -0.0444
      3 C3          6.7380   -9.4220   -8.1300 C.3       1 B5P        -0.0626
      4 C4          6.9480  -10.2690  -10.5070 C.3       1 B5P        -0.0244
      5 C5          8.4510  -10.4250  -10.5270 C.3       1 B5P         0.0625
      6 C6          8.9780   -8.9450  -12.4630 C.2       1 B5P         0.2439
      7 C7          9.5850   -7.6880  -12.9660 C.3       1 B5P         0.1943
      8 N1          9.1090   -9.2310  -11.0890 N.am      1 B5P        -0.1754
      9 N2         10.5130   -7.3420  -10.7180 N.pl3     1 B5P        -0.2024
     10 O1          8.3030   -9.6340  -13.2290 O.2       1 B5P        -0.3775
     11 C8         10.4530   -6.9730  -12.0070 C.3       1 B5P         0.2058
     12 O2         11.0670   -5.8580  -12.3880 O.3       1 B5P        -0.3592
     13 N3         10.1030   -8.6130   -9.0250 N.2       1 B5P        -0.3327
     14 C9         11.1530   -6.8040   -9.6720 C.2       1 B5P         0.0227
     15 C10        10.8990   -7.6130   -8.6050 C.2       1 B5P        -0.0492
     16 C11         9.8800   -8.4320  -10.3230 C.2       1 B5P         0.2392
     17 C12         9.6620   -7.4930  -14.3900 C.2       1 B5P         0.1543
     18 C13        10.1940   -7.6570  -17.2470 C.ar      1 B5P         0.1066
     19 C14         9.4050   -8.6440  -16.5240 C.ar      1 B5P         0.0791
     20 C15         8.7950   -9.6570  -17.2480 C.ar      1 B5P        -0.0498
     21 O6          9.8280   -8.7350  -23.0420 O.2       1 B5P        -0.1505
     22 S2         10.2940   -8.1480  -21.8190 S.o2      1 B5P         0.0554
     23 O5          9.7500   -6.9130  -21.4460 O.2       1 B5P        -0.1505
     24 C18        11.9790   -8.0910  -21.9570 C.3       1 B5P         0.0784
     25 N6          9.8640   -9.1420  -20.6380 N.am      1 B5P        -0.1978
     26 C17         9.7430   -8.8850  -19.3090 C.ar      1 B5P         0.0535
     27 C19        10.3610   -7.8050  -18.6370 C.ar      1 B5P        -0.0278
     28 S1         10.7800   -6.3990  -16.3890 S.o2      1 B5P         0.0400
     29 O4          9.9780   -5.2130  -16.7360 O.2       1 B5P        -0.1634
     30 O3         12.1460   -6.2550  -16.7680 O.2       1 B5P        -0.1634
     31 N4         10.5410   -6.5750  -14.8100 N.2       1 B5P        -0.2266
     32 C16         8.9440   -9.7880  -18.6050 C.ar      1 B5P        -0.0531
     33 N5          9.1870   -8.4840  -15.1920 N.pl3     1 B5P        -0.2459
     34 H1          4.7084   -8.0660   -9.0260 H         1 B5P         0.0232
     35 H2          4.4470   -9.8063   -9.3857 H         1 B5P         0.0232
     36 H3          4.7060   -8.6408  -10.7278 H         1 B5P         0.0232
     37 H4          7.0294   -8.2285   -9.9139 H         1 B5P         0.0296
     38 H5          7.8091   -9.6121   -7.9670 H         1 B5P         0.0232
     39 H6          6.1581  -10.3049   -7.8232 H         1 B5P         0.0232
     40 H7          6.4251   -8.5523   -7.5336 H         1 B5P         0.0232
     41 H8          6.6014  -10.0701  -11.5318 H         1 B5P         0.0292
     42 H9          6.5018  -11.2068  -10.1445 H         1 B5P         0.0292
     43 H10         8.7118  -11.2996  -11.1411 H         1 B5P         0.0594
     44 H11         8.8084  -10.5795   -9.4982 H         1 B5P         0.0594
     45 H12         8.7026   -7.0475  -12.8207 H         1 B5P         0.0891
     46 H13        11.3211   -7.5961  -12.2680 H         1 B5P         0.1028
     47 H14        10.9371   -5.7289  -13.3202 H         1 B5P         0.2133
     48 H15        11.7575   -5.8982   -9.6736 H         1 B5P         0.0730
     49 H16        11.2739   -7.4745   -7.5920 H         1 B5P         0.0375
     50 H17         8.1759  -10.3737  -16.7206 H         1 B5P         0.0502
     51 H18        12.3565   -9.0815  -22.2508 H         1 B5P         0.0487
     52 H19        12.4167   -7.8041  -20.9895 H         1 B5P         0.0487
     53 H20        12.2596   -7.3505  -22.7205 H         1 B5P         0.0487
     54 H21         9.6563  -10.0796  -20.9170 H         1 B5P         0.2118
     55 H22        10.9619   -7.0928  -19.1909 H         1 B5P         0.0477
     56 H23         8.4418  -10.5921  -19.1307 H         1 B5P         0.0458
     57 H24         8.5947   -9.1939  -14.7380 H         1 B5P         0.2201
@<TRIPOS>BOND
     1    2    1 1  
     2    2    3 1  
     3    4    2 1  
     4    5    4 1  
     5    8    5 1  
     6    7    6 1  
     7    6    8 am 
     8    6   10 2  
     9    7   11 1  
    10   17    7 1  
    11    8   16 1  
    12   11    9 1  
    13    9   14 1  
    14    9   16 1  
    15   11   12 1  
    16   13   15 1  
    17   16   13 2  
    18   14   15 2  
    19   17   31 2  
    20   33   17 1  
    21   18   19 ar 
    22   27   18 ar 
    23   18   28 1  
    24   19   20 ar 
    25   19   33 1  
    26   20   32 ar 
    27   22   21 2  
    28   22   23 2  
    29   22   24 1  
    30   25   22 am 
    31   26   25 1  
    32   26   27 ar 
    33   26   32 ar 
    34   28   29 2  
    35   28   30 2  
    36   28   31 1  
    37    1   34 1  
    38    1   35 1  
    39    1   36 1  
    40    2   37 1  
    41    3   38 1  
    42    3   39 1  
    43    3   40 1  
    44    4   41 1  
    45    4   42 1  
    46    5   43 1  
    47    5   44 1  
    48    7   45 1  
    49   11   46 1  
    50   12   47 1  
    51   14   48 1  
    52   15   49 1  
    53   20   50 1  
    54   24   51 1  
    55   24   52 1  
    56   24   53 1  
    57   25   54 1  
    58   27   55 1  
    59   32   56 1  
    60   33   57 1  
@<TRIPOS>SUBSTRUCTURE
     1 B5P         1

