### 
### Created by X-TOOL on Mon Sep 10 21:13:01 2018
### 

@<TRIPOS>MOLECULE
3h9f_ligand
   68    72     1     0     0
SMALL
GAST_HUCK


@<TRIPOS>ATOM
      1 C4          1.6090   20.6110   45.9040 C.ar      1 92M         0.1431
      2 C5          1.8790   21.9360   45.6240 C.ar      1 92M         0.1265
      3 C6          1.2690   22.9260   46.3810 C.ar      1 92M         0.0192
      4 N1          0.4480   22.5690   47.3450 N.ar      1 92M        -0.2891
      5 N3          0.7640   20.3120   46.8930 N.ar      1 92M        -0.2526
      6 CAT        -1.4920   15.7290   52.2680 C.3       1 92M         0.0269
      7 CAU        -0.9510   14.3240   52.5500 C.3       1 92M        -0.0074
      8 CAV        -1.9180   13.2920   51.9240 C.3       1 92M         0.0588
      9 OAW        -1.4230   11.9460   52.0620 O.3       1 92M        -0.3917
     10 CAX        -2.1450   13.6240   50.4300 C.3       1 92M        -0.0074
     11 CAY        -1.2330   14.7570   49.9320 C.3       1 92M         0.0269
     12 NAS        -1.2910   15.9400   50.8220 N.pl3     1 92M        -0.3167
     13 CAR        -1.1280   17.2140   50.2810 C.ar      1 92M         0.0197
     14 CAZ        -0.9550   18.3300   51.1020 C.ar      1 92M        -0.0246
     15 CBA        -0.7650   19.5860   50.5150 C.ar      1 92M         0.1039
     16 OBB        -0.5740   20.6930   51.2570 O.3       1 92M        -0.3283
     17 CBC        -0.6490   20.4830   52.6490 C.3       1 92M         0.0567
     18 CAQ        -1.1220   17.3800   48.8970 C.ar      1 92M        -0.0647
     19 CAP        -0.9540   18.6400   48.3170 C.ar      1 92M        -0.0577
     20 CAO        -0.7570   19.7480   49.1280 C.ar      1 92M         0.0799
     21 NAN        -0.6220   20.9750   48.6210 N.pl3     1 92M        -0.2626
     22 C2          0.1970   21.2740   47.6160 C.ar      1 92M         0.1736
     23 NBG         2.6780   22.4160   44.6830 N.am      1 92M        -0.2230
     24 CBH         3.4690   23.6240   44.9780 C.3       1 92M         0.0421
     25 CAB         2.8320   21.8590   43.4870 C.2       1 92M         0.2045
     26 OAA         3.6150   22.3740   42.6770 O.2       1 92M        -0.3865
     27 CAC         2.0740   20.6290   43.1080 C.3       1 92M         0.0628
     28 CAD         2.6030   19.4570   43.9370 C.3       1 92M         0.0473
     29 NAE         2.0550   19.5140   45.2920 N.pl3     1 92M        -0.2880
     30 CAF         1.8300   18.1950   45.9350 C.3       1 92M         0.0412
     31 CAG         3.0620   17.2880   45.8280 C.3       1 92M        -0.0298
     32 CAH         2.5320   15.8760   45.7360 C.3       1 92M        -0.0509
     33 CAI         1.1410   15.9930   45.1520 C.3       1 92M        -0.0509
     34 CAJ         0.7850   17.4870   45.1300 C.3       1 92M        -0.0298
     35 H           1.4662   23.9792   46.1808 H         1 92M         0.0702
     36 H          -0.9748   16.4844   52.8596 H         1 92M         0.0510
     37 H          -2.5427   15.8175   52.5443 H         1 92M         0.0510
     38 H          -0.8785   14.1618   53.6254 H         1 92M         0.0309
     39 H           0.0430   14.2137   52.1164 H         1 92M         0.0309
     40 H          -2.8652   13.3524   52.4599 H         1 92M         0.0594
     41 H          -1.3200   11.7381   52.9935 H         1 92M         0.2098
     42 H          -3.1788   13.9485   50.3115 H         1 92M         0.0309
     43 H          -1.9177   12.7301   49.8491 H         1 92M         0.0309
     44 H          -1.5698   15.0574   48.9398 H         1 92M         0.0510
     45 H          -0.2069   14.3896   49.9163 H         1 92M         0.0510
     46 H          -0.9678   18.2242   52.1868 H         1 92M         0.0408
     47 H          -1.6354   20.0955   52.9041 H         1 92M         0.0573
     48 H           0.1137   19.7641   52.9483 H         1 92M         0.0573
     49 H          -0.4831   21.4275   53.1671 H         1 92M         0.0573
     50 H          -1.2510   16.5092   48.2542 H         1 92M         0.0396
     51 H          -0.9776   18.7517   47.2330 H         1 92M         0.0470
     52 H          -1.1787   21.7269   49.0273 H         1 92M         0.2074
     53 H           4.5307   23.3887   44.9035 H         1 92M         0.0544
     54 H           3.2176   24.4055   44.2609 H         1 92M         0.0544
     55 H           3.2417   23.9681   45.9870 H         1 92M         0.0544
     56 H           2.2068   20.4230   42.0459 H         1 92M         0.0527
     57 H           1.0112   20.7724   43.3029 H         1 92M         0.0527
     58 H           3.6902   19.5157   43.9875 H         1 92M         0.0546
     59 H           2.3010   18.5208   43.4675 H         1 92M         0.0546
     60 H           1.5722   18.3715   46.9793 H         1 92M         0.0557
     61 H           3.7174   17.4085   46.6906 H         1 92M         0.0288
     62 H           3.6646   17.5414   44.9558 H         1 92M         0.0288
     63 H           2.5114   15.3964   46.7146 H         1 92M         0.0266
     64 H           3.1723   15.2528   45.1117 H         1 92M         0.0266
     65 H           0.4230   15.4351   45.7531 H         1 92M         0.0266
     66 H           1.1096   15.5750   44.1458 H         1 92M         0.0266
     67 H           0.7630   17.8643   44.1076 H         1 92M         0.0288
     68 H          -0.2065   17.6545   45.5507 H         1 92M         0.0288
@<TRIPOS>BOND
     1    1    2 ar 
     2    5    1 ar 
     3    1   29 1  
     4    3    2 ar 
     5    2   23 1  
     6    4    3 ar 
     7   22    4 ar 
     8   22    5 ar 
     9    6    7 1  
    10   12    6 1  
    11    7    8 1  
    12    8    9 1  
    13   10    8 1  
    14   11   10 1  
    15   12   11 1  
    16   13   12 1  
    17   14   13 ar 
    18   18   13 ar 
    19   15   14 ar 
    20   15   16 1  
    21   20   15 ar 
    22   16   17 1  
    23   19   18 ar 
    24   20   19 ar 
    25   21   20 1  
    26   21   22 1  
    27   23   24 1  
    28   23   25 am 
    29   25   26 2  
    30   25   27 1  
    31   27   28 1  
    32   28   29 1  
    33   29   30 1  
    34   30   31 1  
    35   30   34 1  
    36   31   32 1  
    37   32   33 1  
    38   33   34 1  
    39    3   35 1  
    40    6   36 1  
    41    6   37 1  
    42    7   38 1  
    43    7   39 1  
    44    8   40 1  
    45    9   41 1  
    46   10   42 1  
    47   10   43 1  
    48   11   44 1  
    49   11   45 1  
    50   14   46 1  
    51   17   47 1  
    52   17   48 1  
    53   17   49 1  
    54   18   50 1  
    55   19   51 1  
    56   21   52 1  
    57   24   53 1  
    58   24   54 1  
    59   24   55 1  
    60   27   56 1  
    61   27   57 1  
    62   28   58 1  
    63   28   59 1  
    64   30   60 1  
    65   31   61 1  
    66   31   62 1  
    67   32   63 1  
    68   32   64 1  
    69   33   65 1  
    70   33   66 1  
    71   34   67 1  
    72   34   68 1  
@<TRIPOS>SUBSTRUCTURE
     1 92M         1

