### 
### Created by X-TOOL on Mon Sep 10 21:13:01 2018
### 

@<TRIPOS>MOLECULE
3h9o_ligand
   46    49     1     0     0
SMALL
GAST_HUCK


@<TRIPOS>ATOM
      1 C1         31.6330  -15.9740   14.0900 C.3       1 9BD         0.0366
      2 C2         33.5210  -15.2110   15.2980 C.3       1 9BD         0.0749
      3 C6         38.6680  -14.3400   12.8970 C.ar      1 9BD         0.0235
      4 C9         37.6550  -16.8490   13.6830 C.ar      1 9BD         0.1293
      5 C12        41.7150  -16.3660   12.0150 C.ar      1 9BD        -0.0077
      6 C15        41.2050  -14.0150   11.8510 C.ar      1 9BD         0.0483
      7 C18        45.0600  -19.0150   11.0650 C.2       1 9BD        -0.0190
      8 O1         32.3800  -14.8360   14.5230 O.3       1 9BD        -0.3803
      9 C3         34.7700  -14.7500   14.5570 C.3       1 9BD         0.0931
     10 O2         35.6130  -15.8720   14.3260 O.3       1 9BD        -0.3139
     11 C4         36.8660  -15.6930   13.8100 C.ar      1 9BD         0.1297
     12 C5         37.3930  -14.4630   13.4170 C.ar      1 9BD        -0.0187
     13 C7         39.4790  -15.4800   12.7610 C.ar      1 9BD        -0.0099
     14 C8         38.9400  -16.7260   13.1580 C.ar      1 9BD        -0.0243
     15 O3         37.1060  -18.0420   14.0760 O.3       1 9BD        -0.3197
     16 C10        37.3970  -19.2030   13.3050 C.3       1 9BD         0.0586
     17 C11        40.7950  -15.3120   12.2150 C.ar      1 9BD        -0.0057
     18 C13        42.9720  -16.0900   11.4790 C.ar      1 9BD         0.1556
     19 N1         43.3520  -14.8350   11.1330 N.ar      1 9BD        -0.2498
     20 C14        42.4880  -13.8210   11.3210 C.ar      1 9BD         0.1243
     21 C16        40.3030  -12.9720   12.0490 C.ar      1 9BD         0.0135
     22 N2         39.0640  -13.1110   12.5520 N.ar      1 9BD        -0.3102
     23 N3         42.9460  -12.5770   10.9330 N.pl3     1 9BD        -0.3153
     24 N4         43.9350  -17.1260   11.2890 N.pl3     1 9BD        -0.1980
     25 C17        43.7950  -18.5030   11.2970 C.2       1 9BD         0.0536
     26 N5         45.9840  -18.0150   10.9160 N.2       1 9BD        -0.3254
     27 C19        45.2850  -16.9030   11.0560 C.2       1 9BD         0.1153
     28 H1         30.7670  -15.6409   13.4992 H         1 9BD         0.0524
     29 H2         31.2833  -16.5384   14.9670 H         1 9BD         0.0524
     30 H3         32.2734  -16.6189   13.4704 H         1 9BD         0.0524
     31 H4         33.5439  -16.3036   15.4230 H         1 9BD         0.0586
     32 H5         33.4750  -14.7297   16.2860 H         1 9BD         0.0586
     33 H6         41.4450  -17.3827   12.2767 H         1 9BD         0.0531
     34 H7         45.2911  -20.0777   11.0082 H         1 9BD         0.0461
     35 H8         35.3054  -14.0056   15.1646 H         1 9BD         0.0636
     36 H9         34.4830  -14.3003   13.5950 H         1 9BD         0.0636
     37 H10        36.7824  -13.5736   13.5228 H         1 9BD         0.0511
     38 H11        39.5481  -17.6169   13.0500 H         1 9BD         0.0525
     39 H12        36.8870  -20.0726   13.7450 H         1 9BD         0.0576
     40 H13        38.4830  -19.3780   13.3013 H         1 9BD         0.0576
     41 H14        37.0458  -19.0554   12.2731 H         1 9BD         0.0576
     42 H15        40.6243  -11.9731   11.7770 H         1 9BD         0.0870
     43 H16        43.8958  -12.4750   10.5477 H         1 9BD         0.1825
     44 H17        42.3378  -11.7513   11.0290 H         1 9BD         0.1825
     45 H18        42.8773  -19.0680   11.4538 H         1 9BD         0.0880
     46 H19        45.7248  -15.9087   10.9946 H         1 9BD         0.1244
@<TRIPOS>BOND
     1    8    1 1  
     2    2    8 1  
     3    9    2 1  
     4    3   12 ar 
     5   13    3 ar 
     6    3   22 ar 
     7    4   11 ar 
     8   14    4 ar 
     9    4   15 1  
    10    5   17 ar 
    11   18    5 ar 
    12   17    6 ar 
    13   20    6 ar 
    14    6   21 ar 
    15   25    7 2  
    16    7   26 1  
    17   10    9 1  
    18   11   10 1  
    19   12   11 ar 
    20   13   14 ar 
    21   17   13 ar 
    22   15   16 1  
    23   18   19 ar 
    24   24   18 1  
    25   19   20 ar 
    26   20   23 1  
    27   21   22 ar 
    28   24   25 1  
    29   24   27 1  
    30   26   27 2  
    31    1   28 1  
    32    1   29 1  
    33    1   30 1  
    34    2   31 1  
    35    2   32 1  
    36    5   33 1  
    37    7   34 1  
    38    9   35 1  
    39    9   36 1  
    40   12   37 1  
    41   14   38 1  
    42   16   39 1  
    43   16   40 1  
    44   16   41 1  
    45   21   42 1  
    46   23   43 1  
    47   23   44 1  
    48   25   45 1  
    49   27   46 1  
@<TRIPOS>SUBSTRUCTURE
     1 9BD         1

