### 
### Created by X-TOOL on Mon Sep 10 21:13:01 2018
### 

@<TRIPOS>MOLECULE
3ha6_ligand
   64    68     1     0     0
SMALL
GAST_HUCK


@<TRIPOS>ATOM
      1 C4        -22.0880   24.0310    5.3940 C.ar      1 2JZ        -0.0706
      2 C5        -34.5320   24.0910    8.6060 C.ar      1 2JZ        -0.0359
      3 C6        -22.5870   21.9740    4.2580 C.ar      1 2JZ        -0.0619
      4 C7        -23.2610   24.5810    4.9220 C.ar      1 2JZ        -0.0349
      5 C8        -33.3850   23.6450    7.9850 C.ar      1 2JZ        -0.0406
      6 C10       -29.6200   24.7270    7.5330 C.ar      1 2JZ        -0.0569
      7 C13       -35.7270   23.9440    7.9400 C.ar      1 2JZ         0.0068
      8 C15       -28.3460   23.6120    9.2140 C.ar      1 2JZ        -0.0170
      9 C17       -25.4910   20.7390    3.7680 C.3       1 2JZ         0.0415
     10 C20       -28.5990   23.8630    7.8820 C.ar      1 2JZ         0.0482
     11 C21       -23.7650   22.5180    3.7810 C.ar      1 2JZ        -0.0073
     12 C22       -34.7280   22.9660    6.1390 C.ar      1 2JZ         0.0398
     13 C24       -24.0910   23.8240    4.1190 C.ar      1 2JZ         0.1331
     14 C26       -27.7670   21.2340    4.0100 C.ar      1 2JZ         0.1730
     15 C28       -28.2730   22.5170    5.8210 C.ar      1 2JZ         0.1898
     16 C1        -32.0560   26.1950   10.2440 C.3       1 2JZ         0.0546
     17 C2        -27.8300   23.0280   11.6660 C.3       1 2JZ         0.0567
     18 C3        -21.7530   22.7280    5.0610 C.ar      1 2JZ        -0.0726
     19 C9        -33.6430   21.9360    4.2540 C.ar      1 2JZ        -0.0262
     20 C11       -34.7770   22.3860    4.8900 C.ar      1 2JZ        -0.0416
     21 C12       -30.3930   25.3290    8.5040 C.ar      1 2JZ        -0.0498
     22 C14       -32.3420   22.6250    6.1020 C.ar      1 2JZ        -0.0255
     23 C16       -24.6600   21.6960    2.9060 C.3       1 2JZ         0.0026
     24 C18       -33.4830   23.0750    6.7340 C.ar      1 2JZ        -0.0041
     25 C19       -32.4070   22.0500    4.8510 C.ar      1 2JZ         0.0740
     26 C23       -30.1370   25.0640    9.8340 C.ar      1 2JZ         0.1083
     27 C25       -29.1130   24.2120   10.1920 C.ar      1 2JZ         0.1113
     28 C27       -29.9380   21.7140    4.4990 C.ar      1 2JZ         0.1927
     29 N29       -35.8530   23.3940    6.7300 N.ar      1 2JZ        -0.3003
     30 N30       -29.0600   21.0990    3.6950 N.ar      1 2JZ        -0.2322
     31 N31       -27.3390   21.9360    5.0650 N.ar      1 2JZ        -0.2328
     32 N32       -29.5840   22.4350    5.5740 N.ar      1 2JZ        -0.2294
     33 N33       -26.8200   20.6040    3.1820 N.pl3     1 2JZ        -0.2869
     34 N34       -31.2890   21.5640    4.1500 N.pl3     1 2JZ        -0.2392
     35 N35       -27.7930   23.2390    6.9190 N.pl3     1 2JZ        -0.2496
     36 O36       -30.8820   25.6480   10.8450 O.3       1 2JZ        -0.3319
     37 O37       -28.8890   23.9760   11.5420 O.3       1 2JZ        -0.3274
     38 F38       -25.2310   24.3820    3.6690 F         1 2JZ        -0.1891
     39 H1        -21.4289   24.6168    6.0245 H         1 2JZ         0.0549
     40 H2        -34.4937   24.5442    9.5900 H         1 2JZ         0.0682
     41 H3        -22.3176   20.9557    4.0020 H         1 2JZ         0.0546
     42 H4        -23.5294   25.5993    5.1792 H         1 2JZ         0.0585
     43 H5        -32.4216   23.7410    8.4726 H         1 2JZ         0.0737
     44 H6        -29.8150   24.9333    6.4868 H         1 2JZ         0.0422
     45 H7        -36.6263   24.2985    8.4306 H         1 2JZ         0.0832
     46 H8        -27.5419   22.9411    9.4940 H         1 2JZ         0.0434
     47 H9        -25.5770   21.1418    4.7880 H         1 2JZ         0.0551
     48 H10       -25.0016   19.7545    3.8026 H         1 2JZ         0.0551
     49 H11       -32.6768   26.6700   11.0180 H         1 2JZ         0.0569
     50 H12       -32.6278   25.3908    9.7578 H         1 2JZ         0.0569
     51 H13       -31.7679   26.9456    9.4933 H         1 2JZ         0.0569
     52 H14       -27.6389   22.8290   12.7308 H         1 2JZ         0.0573
     53 H15       -26.9195   23.4321   11.1994 H         1 2JZ         0.0573
     54 H16       -28.1151   22.0919   11.1635 H         1 2JZ         0.0573
     55 H17       -20.8303   22.2975    5.4331 H         1 2JZ         0.0565
     56 H18       -33.7233   21.4862    3.2710 H         1 2JZ         0.0624
     57 H19       -35.7356   22.2814    4.3948 H         1 2JZ         0.0637
     58 H20       -31.1941   26.0039    8.2250 H         1 2JZ         0.0485
     59 H21       -31.3821   22.7250    6.5957 H         1 2JZ         0.0523
     60 H22       -25.3334   22.3608    2.3452 H         1 2JZ         0.0438
     61 H23       -24.0478   21.1145    2.2009 H         1 2JZ         0.0438
     62 H24       -27.0326   20.1213    2.2973 H         1 2JZ         0.1896
     63 H25       -31.4831   21.0400    3.2848 H         1 2JZ         0.2220
     64 H26       -26.7719   23.3181    7.0281 H         1 2JZ         0.2179
@<TRIPOS>BOND
     1    4    1 ar 
     2   18    1 ar 
     3    5    2 ar 
     4    2    7 ar 
     5   11    3 ar 
     6    3   18 ar 
     7   13    4 ar 
     8   24    5 ar 
     9   10    6 ar 
    10    6   21 ar 
    11   29    7 ar 
    12   10    8 ar 
    13    8   27 ar 
    14    9   23 1  
    15   33    9 1  
    16   35   10 1  
    17   11   13 ar 
    18   23   11 1  
    19   20   12 ar 
    20   24   12 ar 
    21   12   29 ar 
    22   13   38 1  
    23   30   14 ar 
    24   14   31 ar 
    25   14   33 1  
    26   15   31 ar 
    27   32   15 ar 
    28   15   35 1  
    29   36   16 1  
    30   37   17 1  
    31   19   20 ar 
    32   25   19 ar 
    33   21   26 ar 
    34   22   24 ar 
    35   25   22 ar 
    36   34   25 1  
    37   27   26 ar 
    38   26   36 1  
    39   27   37 1  
    40   28   30 ar 
    41   28   32 ar 
    42   28   34 1  
    43    1   39 1  
    44    2   40 1  
    45    3   41 1  
    46    4   42 1  
    47    5   43 1  
    48    6   44 1  
    49    7   45 1  
    50    8   46 1  
    51    9   47 1  
    52    9   48 1  
    53   16   49 1  
    54   16   50 1  
    55   16   51 1  
    56   17   52 1  
    57   17   53 1  
    58   17   54 1  
    59   18   55 1  
    60   19   56 1  
    61   20   57 1  
    62   21   58 1  
    63   22   59 1  
    64   23   60 1  
    65   23   61 1  
    66   33   62 1  
    67   34   63 1  
    68   35   64 1  
@<TRIPOS>SUBSTRUCTURE
     1 2JZ         1

