### 
### Created by X-TOOL on Mon Sep 10 21:12:59 2018
### 

@<TRIPOS>MOLECULE
3hab_ligand
   44    47     1     0     0
SMALL
GAST_HUCK


@<TRIPOS>ATOM
      1 F27        33.3860   48.5360   36.0170 F         1 677        -0.1911
      2 C6         34.6090   49.0840   36.0900 C.ar      1 677         0.1560
      3 C1         34.7850   50.4070   36.4800 C.ar      1 677        -0.0030
      4 C2         36.0930   50.9160   36.5470 C.ar      1 677         0.1279
      5 F22        36.2570   52.1780   36.9470 F         1 677        -0.1934
      6 C5         35.7150   48.3080   35.7620 C.ar      1 677         0.1544
      7 F21        35.5140   47.0440   35.3790 F         1 677        -0.1895
      8 C4         37.0080   48.8210   35.8210 C.ar      1 677        -0.0293
      9 C3         37.2130   50.1360   36.2340 C.ar      1 677        -0.0036
     10 C9         38.6040   50.7220   36.2880 C.3       1 677         0.0538
     11 C10        39.6350   49.8630   37.0550 C.3       1 677         0.0466
     12 C14        39.0690   51.0080   34.8460 C.3       1 677         0.0167
     13 N23        38.0580   51.8180   34.1530 N.4       1 677         0.2243
     14 C13        40.4330   51.7170   34.7860 C.3       1 677         0.1018
     15 N12        41.3980   51.1280   35.7180 N.pl3     1 677        -0.2266
     16 C11        41.0580   50.3040   36.7480 C.2       1 677         0.1255
     17 N18        42.1650   49.9420   37.4510 N.2       1 677        -0.3177
     18 C29        42.7350   51.3230   35.7220 C.ar      1 677         0.0814
     19 C23        43.6550   52.0600   34.9470 C.ar      1 677        -0.0402
     20 C22        45.0340   52.0080   35.2730 C.ar      1 677        -0.0518
     21 C19        43.2500   50.5290   36.8680 C.ar      1 677         0.0227
     22 C20        44.6220   50.5280   37.1460 C.ar      1 677        -0.0408
     23 C21        45.5290   51.2590   36.3640 C.ar      1 677         0.0712
     24 S24        47.1330   51.2370   36.7150 S.o2      1 677        -0.0116
     25 O26        47.8850   51.0310   35.5090 O.2       1 677        -0.1709
     26 O25        47.4370   52.5730   37.1940 O.2       1 677        -0.1709
     27 C27        47.5060   50.1380   37.8750 C.3       1 677         0.0583
     28 H1         33.9335   51.0309   36.7265 H         1 677         0.0562
     29 H2         37.8526   48.1994   35.5465 H         1 677         0.0523
     30 H3         38.5344   51.6829   36.8189 H         1 677         0.0533
     31 H4         39.5146   48.8101   36.7602 H         1 677         0.0558
     32 H5         39.4534   49.9645   38.1351 H         1 677         0.0558
     33 H6         39.1649   50.0448   34.3234 H         1 677         0.0903
     34 H7         38.3643   52.0035   33.2108 H         1 677         0.1999
     35 H8         37.9321   52.6898   34.6432 H         1 677         0.1999
     36 H9         37.1840   51.3165   34.1295 H         1 677         0.1999
     37 H10        40.2937   52.7777   35.0420 H         1 677         0.0661
     38 H11        40.8311   51.6357   33.7638 H         1 677         0.0661
     39 H12        43.3115   52.6594   34.1116 H         1 677         0.0542
     40 H13        45.7354   52.5643   34.6617 H         1 677         0.0547
     41 H14        44.9921   49.9493   37.9846 H         1 677         0.0554
     42 H15        48.5881   50.1646   38.0709 H         1 677         0.0467
     43 H16        47.2200   49.1324   37.5330 H         1 677         0.0467
     44 H17        46.9601   50.3802   38.7987 H         1 677         0.0467
@<TRIPOS>BOND
     1    1    2 1  
     2    2    3 ar 
     3    2    6 ar 
     4    3    4 ar 
     5    4    5 1  
     6    4    9 ar 
     7    6    7 1  
     8    6    8 ar 
     9    8    9 ar 
    10    9   10 1  
    11   10   11 1  
    12   10   12 1  
    13   11   16 1  
    14   12   13 1  
    15   12   14 1  
    16   14   15 1  
    17   15   16 1  
    18   15   18 1  
    19   16   17 2  
    20   17   21 1  
    21   18   19 ar 
    22   18   21 ar 
    23   19   20 ar 
    24   20   23 ar 
    25   21   22 ar 
    26   22   23 ar 
    27   23   24 1  
    28   24   25 2  
    29   24   26 2  
    30   24   27 1  
    31    3   28 1  
    32    8   29 1  
    33   10   30 1  
    34   11   31 1  
    35   11   32 1  
    36   12   33 1  
    37   13   34 1  
    38   13   35 1  
    39   13   36 1  
    40   14   37 1  
    41   14   38 1  
    42   19   39 1  
    43   20   40 1  
    44   22   41 1  
    45   27   42 1  
    46   27   43 1  
    47   27   44 1  
@<TRIPOS>SUBSTRUCTURE
     1 677         1

