### 
### Created by X-TOOL on Mon Sep 10 21:13:00 2018
### 

@<TRIPOS>MOLECULE
3hac_ligand
   37    40     1     0     0
SMALL
GAST_HUCK


@<TRIPOS>ATOM
      1 F21        35.5330   47.0310   35.3050 F         1 361        -0.1895
      2 C5         35.7440   48.2950   35.7150 C.ar      1 361         0.1544
      3 C6         34.6640   49.0760   36.0980 C.ar      1 361         0.1560
      4 F27        33.4300   48.5580   36.0550 F         1 361        -0.1911
      5 C4         37.0430   48.8110   35.7300 C.ar      1 361        -0.0293
      6 C3         37.2560   50.1180   36.1550 C.ar      1 361        -0.0035
      7 C2         36.1590   50.8970   36.5270 C.ar      1 361         0.1279
      8 F22        36.3530   52.1490   36.9320 F         1 361        -0.1934
      9 C1         34.8610   50.3940   36.5070 C.ar      1 361        -0.0030
     10 C9         38.6360   50.7130   36.1890 C.3       1 361         0.0542
     11 C14        39.0680   51.0870   34.7600 C.3       1 361         0.0171
     12 N23        38.0330   51.8460   34.0540 N.4       1 361         0.2244
     13 C13        40.3780   51.8800   34.7850 C.3       1 361         0.1041
     14 N12        41.3700   51.1810   35.6120 N.pl3     1 361        -0.2181
     15 C29        42.6930   51.3930   35.5820 C.ar      1 361         0.1000
     16 C19        43.2710   50.4880   36.5960 C.ar      1 361         0.0486
     17 N18        42.2170   49.8260   37.1720 N.2       1 361        -0.3084
     18 C11        41.0790   50.2480   36.5620 C.2       1 361         0.1308
     19 C10        39.6670   49.7810   36.8800 C.3       1 361         0.0482
     20 C20        44.6580   50.4990   36.7790 C.ar      1 361         0.0058
     21 N21        45.4220   51.3090   36.0240 N.ar      1 361        -0.3188
     22 C22        44.9190   52.1480   35.0790 C.ar      1 361        -0.0072
     23 C23        43.5380   52.2200   34.8370 C.ar      1 361        -0.0162
     24 H1         37.8781   48.1970   35.4127 H         1 361         0.0523
     25 H2         34.0221   51.0135   36.8029 H         1 361         0.0562
     26 H3         38.5868   51.6396   36.7797 H         1 361         0.0534
     27 H4         39.2415   50.1534   34.2048 H         1 361         0.0904
     28 H5         38.3551   52.0700   33.1255 H         1 361         0.1999
     29 H6         37.8390   52.6978   34.5569 H         1 361         0.1999
     30 H7         37.1927   51.2926   33.9937 H         1 361         0.1999
     31 H8         40.1915   52.8791   35.2057 H         1 361         0.0665
     32 H9         40.7635   51.9799   33.7596 H         1 361         0.0665
     33 H10        39.5317   48.7524   36.5144 H         1 361         0.0563
     34 H11        39.5105   49.8069   37.9685 H         1 361         0.0563
     35 H12        45.1145   49.8585   37.5249 H         1 361         0.0751
     36 H13        45.5948   52.7706   34.5039 H         1 361         0.0709
     37 H14        43.1380   52.8987   34.0924 H         1 361         0.0634
@<TRIPOS>BOND
     1    1    2 1  
     2    2    3 ar 
     3    2    5 ar 
     4    3    4 1  
     5    3    9 ar 
     6    5    6 ar 
     7    6    7 ar 
     8    6   10 1  
     9    7    8 1  
    10    7    9 ar 
    11   10   11 1  
    12   10   19 1  
    13   11   12 1  
    14   11   13 1  
    15   13   14 1  
    16   14   15 1  
    17   14   18 1  
    18   15   16 ar 
    19   15   23 ar 
    20   16   17 1  
    21   16   20 ar 
    22   17   18 2  
    23   18   19 1  
    24   20   21 ar 
    25   21   22 ar 
    26   22   23 ar 
    27    5   24 1  
    28    9   25 1  
    29   10   26 1  
    30   11   27 1  
    31   12   28 1  
    32   12   29 1  
    33   12   30 1  
    34   13   31 1  
    35   13   32 1  
    36   19   33 1  
    37   19   34 1  
    38   20   35 1  
    39   22   36 1  
    40   23   37 1  
@<TRIPOS>SUBSTRUCTURE
     1 361         1

