### 
### Created by X-TOOL on Mon Sep 10 21:13:00 2018
### 

@<TRIPOS>MOLECULE
3hb4_ligand
   61    65     1     0     0
SMALL
GAST_HUCK


@<TRIPOS>ATOM
      1 N30        14.5170   -0.7840   -8.2900 N.am      1 E2B        -0.3001
      2 C9         10.9180    8.7820  -11.5230 C.3       1 E2B        -0.0259
      3 C10        10.9450   10.2200  -11.0590 C.3       1 E2B        -0.0116
      4 C15        11.6700    7.9290  -10.4800 C.3       1 E2B        -0.0281
      5 C8         11.3790    8.6360  -12.9920 C.3       1 E2B        -0.0396
      6 C14        11.2570    8.0940   -8.9950 C.3       1 E2B        -0.0023
      7 C11        10.2270   11.0830  -12.0440 C.ar      1 E2B        -0.0484
      8 C13        11.3750    9.5690   -8.5800 C.3       1 E2B        -0.0433
      9 C16        11.5620    6.4270  -10.6420 C.3       1 E2B        -0.0422
     10 C28        13.6860    0.1750   -7.8300 C.2       1 E2B         0.2008
     11 C25        11.8400    0.4360   -9.7710 C.ar      1 E2B        -0.0489
     12 C6          9.9280   10.6210  -13.4480 C.ar      1 E2B        -0.0491
     13 C12        10.5370   10.4320   -9.5480 C.3       1 E2B        -0.0421
     14 C17        12.3040    5.9160   -9.4150 C.3       1 E2B        -0.0044
     15 C18        12.2510    7.0980   -8.4180 C.3       1 E2B         0.0654
     16 C20         9.7970    7.5700   -8.7410 C.3       1 E2B        -0.0569
     17 C24        12.6870    0.9690   -8.7420 C.ar      1 E2B         0.0429
     18 C1          9.8430   12.3750  -11.6520 C.ar      1 E2B        -0.0749
     19 C26        10.9130    1.2080  -10.5320 C.ar      1 E2B        -0.0629
     20 C21        11.6310    4.6620   -8.8840 C.3       1 E2B        -0.0130
     21 C23        12.5690    2.3600   -8.5650 C.ar      1 E2B        -0.0406
     22 C27        10.8560    2.5860  -10.2780 C.ar      1 E2B        -0.0560
     23 C7         10.3210    9.2080  -13.9490 C.3       1 E2B        -0.0236
     24 C3          8.9200   12.8460  -13.8660 C.ar      1 E2B         0.0739
     25 C22        11.7100    3.1880   -9.3290 C.ar      1 E2B        -0.0372
     26 C5          9.2700   11.5440  -14.3060 C.ar      1 E2B        -0.0385
     27 C2          9.2240   13.2460  -12.5470 C.ar      1 E2B        -0.0468
     28 O4          8.2710   13.7470  -14.7180 O.3       1 E2B        -0.3393
     29 O29        13.7080    0.4050   -6.5960 O.2       1 E2B        -0.3849
     30 O19        11.9550    6.6890   -7.0760 O.3       1 E2B        -0.3908
     31 H1         15.1327   -1.2566   -7.6595 H         1 E2B         0.1808
     32 H2         14.5169   -1.0219   -9.2613 H         1 E2B         0.1808
     33 H3          9.8698    8.4490  -11.5037 H         1 E2B         0.0326
     34 H4         11.9994   10.5296  -11.1084 H         1 E2B         0.0429
     35 H5         12.7276    8.2152  -10.5773 H         1 E2B         0.0311
     36 H6         11.5334    7.5707  -13.2185 H         1 E2B         0.0290
     37 H7         12.3243    9.1811  -13.1304 H         1 E2B         0.0290
     38 H8         12.4286    9.8817   -8.6251 H         1 E2B         0.0273
     39 H9         10.9988    9.6947   -7.5540 H         1 E2B         0.0273
     40 H10        12.0470    6.0902  -11.5701 H         1 E2B         0.0273
     41 H11        10.5117    6.1000  -10.6376 H         1 E2B         0.0273
     42 H12        11.9095   -0.6246   -9.9841 H         1 E2B         0.0611
     43 H13         9.4763   10.1660   -9.4288 H         1 E2B         0.0286
     44 H14        10.6806   11.4915   -9.2896 H         1 E2B         0.0286
     45 H15        13.3491    5.6806   -9.6645 H         1 E2B         0.0348
     46 H16        13.2414    7.5761   -8.3942 H         1 E2B         0.0603
     47 H17         9.0729    8.2864   -9.1563 H         1 E2B         0.0236
     48 H18         9.6285    7.4638   -7.6592 H         1 E2B         0.0236
     49 H19         9.6678    6.5931   -9.2298 H         1 E2B         0.0236
     50 H20        10.0311   12.7011  -10.6355 H         1 E2B         0.0511
     51 H21        10.2765    0.7469  -11.2786 H         1 E2B         0.0611
     52 H22        10.5581    4.8957   -8.9491 H         1 E2B         0.0430
     53 H23        11.9361    4.6310   -7.8276 H         1 E2B         0.0430
     54 H24        13.1732    2.8273   -7.7959 H         1 E2B         0.0607
     55 H25        10.1444    3.1989  -10.8194 H         1 E2B         0.0592
     56 H26         9.4350    8.5561  -13.9572 H         1 E2B         0.0410
     57 H27        10.7360    9.2755  -14.9655 H         1 E2B         0.0410
     58 H28         9.0302   11.2457  -15.3202 H         1 E2B         0.0462
     59 H29         8.9713   14.2494  -12.2240 H         1 E2B         0.0468
     60 H30         8.1351   13.3385  -15.5648 H         1 E2B         0.2457
     61 H31        12.6254    6.0872   -6.7744 H         1 E2B         0.2098
@<TRIPOS>BOND
     1   10    1 am 
     2    2    3 1  
     3    4    2 1  
     4    2    5 1  
     5    3    7 1  
     6   13    3 1  
     7    6    4 1  
     8    9    4 1  
     9    5   23 1  
    10    6    8 1  
    11   15    6 1  
    12    6   16 1  
    13    7   12 ar 
    14    7   18 ar 
    15    8   13 1  
    16   14    9 1  
    17   17   10 1  
    18   10   29 2  
    19   17   11 ar 
    20   11   19 ar 
    21   23   12 1  
    22   12   26 ar 
    23   14   15 1  
    24   20   14 1  
    25   15   30 1  
    26   21   17 ar 
    27   18   27 ar 
    28   19   22 ar 
    29   25   20 1  
    30   21   25 ar 
    31   22   25 ar 
    32   26   24 ar 
    33   24   27 ar 
    34   24   28 1  
    35    1   31 1  
    36    1   32 1  
    37    2   33 1  
    38    3   34 1  
    39    4   35 1  
    40    5   36 1  
    41    5   37 1  
    42    8   38 1  
    43    8   39 1  
    44    9   40 1  
    45    9   41 1  
    46   11   42 1  
    47   13   43 1  
    48   13   44 1  
    49   14   45 1  
    50   15   46 1  
    51   16   47 1  
    52   16   48 1  
    53   16   49 1  
    54   18   50 1  
    55   19   51 1  
    56   20   52 1  
    57   20   53 1  
    58   21   54 1  
    59   22   55 1  
    60   23   56 1  
    61   23   57 1  
    62   26   58 1  
    63   27   59 1  
    64   28   60 1  
    65   30   61 1  
@<TRIPOS>SUBSTRUCTURE
     1 E2B         1

