### 
### Created by X-TOOL on Mon Sep 10 21:13:00 2018
### 

@<TRIPOS>MOLECULE
3hc8_ligand
   67    70     1     0     0
SMALL
GAST_HUCK


@<TRIPOS>ATOM
      1 C          17.2340   -5.8820   12.8690 C.ar      1 PD4         0.0232
      2 C1         17.3770   -5.6280   14.2330 C.ar      1 PD4        -0.0526
      3 C2         18.2830   -6.3810   14.9920 C.ar      1 PD4        -0.0284
      4 C3         19.0350   -7.3770   14.3720 C.ar      1 PD4         0.1248
      5 C4         18.8710   -7.6070   12.9950 C.ar      1 PD4         0.1726
      6 N          17.9840   -6.8530   12.3230 N.ar      1 PD4        -0.2908
      7 N1         19.9200   -8.1310   15.0530 N.pl3     1 PD4        -0.2313
      8 C5         20.6280   -9.1020   14.4320 C.2       1 PD4         0.2191
      9 C6         20.4500   -9.3200   13.0530 C.2       1 PD4         0.3030
     10 N2         19.5850   -8.5490   12.3510 N.am      1 PD4        -0.1920
     11 O          21.1500  -10.2570   12.4470 O.2       1 PD4        -0.3509
     12 N3         21.5090   -9.8740   15.0930 N.2       1 PD4        -0.3259
     13 C7         21.9010   -9.8440   16.5080 C.3       1 PD4         0.0327
     14 C8         20.8730  -10.4340   17.4770 C.3       1 PD4        -0.0247
     15 N4         21.4060  -10.8110   18.8270 N.4       1 PD4         0.2389
     16 C9         21.7270   -9.7180   19.7950 C.3       1 PD4        -0.0078
     17 C10        20.7720   -9.7840   20.9970 C.3       1 PD4         0.0878
     18 O1         20.7210  -11.1130   21.5490 O.3       1 PD4        -0.3693
     19 C11        20.3290  -12.1510   20.6330 C.3       1 PD4         0.0878
     20 C12        21.2200  -12.1960   19.3810 C.3       1 PD4        -0.0078
     21 C13        16.3090   -5.1860   11.9470 C.ar      1 PD4         0.0040
     22 C14        15.2460   -4.3980   12.3970 C.ar      1 PD4        -0.0428
     23 C15        14.3770   -3.7530   11.5280 C.ar      1 PD4        -0.0034
     24 C16        14.5920   -3.9460   10.1740 C.ar      1 PD4         0.1655
     25 N5         15.6030   -4.7230    9.7310 N.ar      1 PD4        -0.2719
     26 C17        16.4420   -5.3440   10.5720 C.ar      1 PD4         0.0085
     27 C18        19.3780   -8.7950   10.9040 C.3       1 PD4         0.0823
     28 O2         13.7400   -3.3260    9.3770 O.3       1 PD4        -0.3014
     29 C19        20.5690   -8.4370   10.0200 C.3       1 PD4         0.0738
     30 O3         20.5530   -7.0290    9.9070 O.3       1 PD4        -0.3772
     31 C20        21.5230   -6.4910    9.0020 C.3       1 PD4         0.0475
     32 C21        21.2350   -4.9980    8.7980 C.3       1 PD4        -0.0323
     33 C22        19.8280   -4.7120    8.2690 C.3       1 PD4        -0.0632
     34 C23        13.9390   -3.3050    7.9390 C.3       1 PD4         0.0634
     35 H1         16.7885   -4.8496   14.7051 H         1 PD4         0.0560
     36 H2         18.3979   -6.1902   16.0529 H         1 PD4         0.0606
     37 H3         20.0593   -7.9658   16.0601 H         1 PD4         0.2251
     38 H4         22.0748   -8.7956   16.7918 H         1 PD4         0.0401
     39 H5         22.8364  -10.4128   16.6151 H         1 PD4         0.0401
     40 H6         20.4499  -11.3379   17.0144 H         1 PD4         0.0820
     41 H7         20.0766   -9.6893   17.6222 H         1 PD4         0.0820
     42 H8         22.3532  -10.9585   18.5154 H         1 PD4         0.2035
     43 H9         21.6166   -8.7444   19.2950 H         1 PD4         0.0837
     44 H10        22.7630   -9.8347   20.1459 H         1 PD4         0.0837
     45 H11        19.7630   -9.4923   20.6701 H         1 PD4         0.0613
     46 H12        21.1222   -9.0867   21.7723 H         1 PD4         0.0613
     47 H13        19.2896  -11.9722   20.3204 H         1 PD4         0.0613
     48 H14        20.3952  -13.1204   21.1485 H         1 PD4         0.0613
     49 H15        22.2012  -12.6155   19.6481 H         1 PD4         0.0837
     50 H16        20.7446  -12.8314   18.6193 H         1 PD4         0.0837
     51 H17        15.0946   -4.2864   13.4646 H         1 PD4         0.0713
     52 H18        13.5691   -3.1284   11.8918 H         1 PD4         0.0639
     53 H19        17.2304   -5.9744   10.1770 H         1 PD4         0.0800
     54 H20        18.5151   -8.1975   10.5748 H         1 PD4         0.0619
     55 H21        19.1580   -9.8639   10.7661 H         1 PD4         0.0619
     56 H22        20.4643   -8.9023    9.0288 H         1 PD4         0.0586
     57 H23        21.5070   -8.7735   10.4858 H         1 PD4         0.0586
     58 H24        21.4588   -7.0150    8.0370 H         1 PD4         0.0560
     59 H25        22.5315   -6.6188    9.4223 H         1 PD4         0.0560
     60 H26        21.9648   -4.5982    8.0786 H         1 PD4         0.0285
     61 H27        21.3540   -4.4857    9.7641 H         1 PD4         0.0285
     62 H28        19.6952   -3.6267    8.1485 H         1 PD4         0.0230
     63 H29        19.0832   -5.0955    8.9819 H         1 PD4         0.0230
     64 H30        19.6941   -5.2080    7.2964 H         1 PD4         0.0230
     65 H31        13.1229   -2.7406    7.4641 H         1 PD4         0.0584
     66 H32        13.9442   -4.3356    7.5544 H         1 PD4         0.0584
     67 H33        14.9005   -2.8229    7.7089 H         1 PD4         0.0584
@<TRIPOS>BOND
     1    1    2 ar 
     2    1    6 ar 
     3    1   21 1  
     4    2    3 ar 
     5    3    4 ar 
     6    4    5 ar 
     7    4    7 1  
     8    5    6 ar 
     9    5   10 1  
    10    7    8 1  
    11    8    9 1  
    12    8   12 2  
    13    9   10 am 
    14    9   11 2  
    15   10   27 1  
    16   12   13 1  
    17   13   14 1  
    18   14   15 1  
    19   15   16 1  
    20   15   20 1  
    21   16   17 1  
    22   17   18 1  
    23   18   19 1  
    24   19   20 1  
    25   21   22 ar 
    26   21   26 ar 
    27   22   23 ar 
    28   23   24 ar 
    29   24   25 ar 
    30   24   28 1  
    31   25   26 ar 
    32   27   29 1  
    33   28   34 1  
    34   29   30 1  
    35   30   31 1  
    36   31   32 1  
    37   32   33 1  
    38    2   35 1  
    39    3   36 1  
    40    7   37 1  
    41   13   38 1  
    42   13   39 1  
    43   14   40 1  
    44   14   41 1  
    45   15   42 1  
    46   16   43 1  
    47   16   44 1  
    48   17   45 1  
    49   17   46 1  
    50   19   47 1  
    51   19   48 1  
    52   20   49 1  
    53   20   50 1  
    54   22   51 1  
    55   23   52 1  
    56   26   53 1  
    57   27   54 1  
    58   27   55 1  
    59   29   56 1  
    60   29   57 1  
    61   31   58 1  
    62   31   59 1  
    63   32   60 1  
    64   32   61 1  
    65   33   62 1  
    66   33   63 1  
    67   33   64 1  
    68   34   65 1  
    69   34   66 1  
    70   34   67 1  
@<TRIPOS>SUBSTRUCTURE
     1 PD4         1

