### 
### Created by X-TOOL on Mon Sep 10 21:13:04 2018
### 

@<TRIPOS>MOLECULE
3hcm_ligand
   33    35     1     0     0
SMALL
GAST_HUCK


@<TRIPOS>ATOM
      1 CL1        -5.4980    4.8170   29.1040 Cl        1 S45        -0.0706
      2 C7         -4.6500    6.2830   29.7060 C.ar      1 S45         0.0403
      3 C10        -5.3580    7.2790   30.3880 C.ar      1 S45        -0.0475
      4 C6         -4.6970    8.4240   30.8420 C.ar      1 S45        -0.0525
      5 C4         -3.3320    8.5960   30.6210 C.ar      1 S45         0.0007
      6 C5         -2.6210    7.6110   29.9400 C.ar      1 S45        -0.0525
      7 C9         -3.2780    6.4570   29.4920 C.ar      1 S45        -0.0475
      8 C1         -2.6600    9.8470   31.1040 C.2       1 S45         0.1088
      9 N1         -3.1520   11.0900   30.8260 N.2       1 S45        -0.2733
     10 C2         -2.3610   12.0300   31.3670 C.2       1 S45         0.2263
     11 O1         -1.3420   11.3910   32.0090 O.3       1 S45        -0.1319
     12 N2         -1.5220    9.9690   31.8510 N.2       1 S45        -0.1213
     13 C3         -2.4320   13.5170   31.3760 C.3       1 S45         0.0958
     14 C11        -3.5210   13.9570   30.3780 C.3       1 S45        -0.0215
     15 C13        -3.0550   14.0310   28.9110 C.3       1 S45        -0.0095
     16 C12        -1.8230   14.9340   28.7670 C.3       1 S45        -0.0333
     17 N3         -1.2350   15.2340   30.0710 N.4       1 S45         0.2293
     18 C8         -1.0810   14.1680   31.0550 C.3       1 S45        -0.0119
     19 H1         -6.4211    7.1624   30.5646 H         1 S45         0.0622
     20 H2         -5.2535    9.1879   31.3728 H         1 S45         0.0622
     21 H3         -1.5601    7.7368   29.7566 H         1 S45         0.0622
     22 H4         -2.7160    5.6890   28.9729 H         1 S45         0.0622
     23 H5         -2.7295   13.8429   32.3836 H         1 S45         0.0631
     24 H6         -3.8764   14.9545   30.6757 H         1 S45         0.0303
     25 H7         -4.3519   13.2387   30.4381 H         1 S45         0.0303
     26 H8         -3.8712   14.4362   28.2949 H         1 S45         0.0319
     27 H9         -2.8009   13.0188   28.5634 H         1 S45         0.0319
     28 H10        -2.1221   15.8753   28.2828 H         1 S45         0.0814
     29 H11        -1.0739   14.4231   28.1442 H         1 S45         0.0814
     30 H12        -1.8116   15.9433   30.4958 H         1 S45         0.2016
     31 H13        -0.3150   15.6078   29.8982 H         1 S45         0.2016
     32 H14        -0.3997   13.4035   30.6534 H         1 S45         0.0850
     33 H15        -0.6563   14.5892   31.9781 H         1 S45         0.0850
@<TRIPOS>BOND
     1    1    2 1  
     2    2    3 ar 
     3    2    7 ar 
     4    3    4 ar 
     5    4    5 ar 
     6    5    6 ar 
     7    5    8 1  
     8    6    7 ar 
     9    8    9 1  
    10    8   12 2  
    11    9   10 2  
    12   10   11 1  
    13   10   13 1  
    14   11   12 1  
    15   13   14 1  
    16   13   18 1  
    17   14   15 1  
    18   15   16 1  
    19   16   17 1  
    20   17   18 1  
    21    3   19 1  
    22    4   20 1  
    23    6   21 1  
    24    7   22 1  
    25   13   23 1  
    26   14   24 1  
    27   14   25 1  
    28   15   26 1  
    29   15   27 1  
    30   16   28 1  
    31   16   29 1  
    32   17   30 1  
    33   17   31 1  
    34   18   32 1  
    35   18   33 1  
@<TRIPOS>SUBSTRUCTURE
     1 S45         1

