### 
### Created by X-TOOL on Mon Sep 10 21:12:59 2018
### 

@<TRIPOS>MOLECULE
3hd3_ligand
   68    70     1     0     0
SMALL
GAST_HUCK


@<TRIPOS>ATOM
      1 O38        11.8830    9.8610   -1.1400 O.2       1 25B        -0.1694
      2 S29        11.8640   10.0990   -2.5040 S.o2      1 25B        -0.0030
      3 O37        12.6370   11.2050   -3.0040 O.2       1 25B        -0.1694
      4 C29        10.2770   10.4000   -2.9020 C.ar      1 25B         0.0882
      5 C30         9.7730   11.6850   -3.0470 C.ar      1 25B        -0.0369
      6 C31         8.4080   11.9150   -3.3560 C.ar      1 25B        -0.0600
      7 C32         7.5130   10.8540   -3.5240 C.ar      1 25B        -0.0616
      8 C33         8.0060    9.5920   -3.3830 C.ar      1 25B        -0.0600
      9 C34         9.3510    9.3850   -3.0340 C.ar      1 25B        -0.0369
     10 C37        12.2800    8.6390   -3.2920 C.3       1 25B         0.0729
     11 C10        13.7760    8.4370   -3.4830 C.3       1 25B        -0.0101
     12 C11        14.2770    8.5070   -4.9360 C.3       1 25B         0.0435
     13 C20        13.8030    9.7730   -5.7090 C.3       1 25B        -0.0298
     14 C21        14.5880    9.8870   -7.0000 C.3       1 25B        -0.0512
     15 C23        14.2070   11.0790   -7.9180 C.3       1 25B        -0.0558
     16 C24        14.0810   12.3430   -7.1400 C.3       1 25B        -0.0653
     17 N12        13.8070    7.2450   -5.5640 N.am      1 25B        -0.2835
     18 C13        14.5920    6.2590   -6.0350 C.2       1 25B         0.1818
     19 O39        15.8950    6.3690   -6.0580 O.2       1 25B        -0.3966
     20 C14        13.9520    4.9830   -6.5790 C.3       1 25B         0.0665
     21 C15        14.0920    3.8990   -5.4990 C.3       1 25B        -0.0309
     22 C16        13.5000    2.5650   -5.9530 C.3       1 25B        -0.0504
     23 C17        13.9850    2.1510   -7.3280 C.3       1 25B        -0.0505
     24 C18        13.8590    3.2590   -8.3500 C.3       1 25B        -0.0325
     25 C19        14.5860    4.5670   -7.8820 C.3       1 25B         0.0535
     26 C39        14.5000    5.6630   -8.8880 C.2       1 25B         0.1384
     27 O41        13.4190    6.3100   -9.0420 O.2       1 25B        -0.3780
     28 C40        15.7190    6.0180   -9.6900 C.ar      1 25B         0.0330
     29 C41        16.8360    5.1640   -9.7890 C.ar      1 25B        -0.0427
     30 C45        15.7050    7.2060  -10.3630 C.ar      1 25B        -0.0427
     31 C44        16.8140    7.5530  -11.1340 C.ar      1 25B        -0.0420
     32 C43        17.8720    6.7070  -11.2250 C.ar      1 25B         0.0453
     33 CL22       19.2520    7.2880  -12.1850 Cl        1 25B        -0.0663
     34 C42        17.9290    5.5080  -10.5660 C.ar      1 25B        -0.0420
     35 H1         10.4377   12.5320   -2.9212 H         1 25B         0.0636
     36 H2          8.0517   12.9331   -3.4640 H         1 25B         0.0618
     37 H3          6.4689   11.0287   -3.7571 H         1 25B         0.0618
     38 H4          7.3548    8.7400   -3.5415 H         1 25B         0.0618
     39 H5          9.6812    8.3676   -2.8579 H         1 25B         0.0636
     40 H6         11.8021    8.6335   -4.2827 H         1 25B         0.0505
     41 H7         11.8926    7.8015   -2.6933 H         1 25B         0.0505
     42 H8         14.0375    7.4465   -3.0825 H         1 25B         0.0303
     43 H9         14.2986    9.2150   -2.9072 H         1 25B         0.0303
     44 H10        15.3769    8.5187   -4.9316 H         1 25B         0.0556
     45 H11        13.9757   10.6675   -5.0925 H         1 25B         0.0287
     46 H12        12.7303    9.6859   -5.9364 H         1 25B         0.0287
     47 H13        14.4358    8.9591   -7.5708 H         1 25B         0.0266
     48 H14        15.6522    9.9875   -6.7404 H         1 25B         0.0266
     49 H15        13.2458   10.8619   -8.4067 H         1 25B         0.0263
     50 H16        14.9871   11.2056   -8.6831 H         1 25B         0.0263
     51 H17        13.8109   13.1657   -7.8184 H         1 25B         0.0230
     52 H18        15.0402   12.5703   -6.6518 H         1 25B         0.0230
     53 H19        13.2988   12.2265   -6.3754 H         1 25B         0.0230
     54 H20        12.8184    7.1170   -5.6437 H         1 25B         0.1854
     55 H21        12.8831    5.1675   -6.7617 H         1 25B         0.0565
     56 H22        13.5668    4.2309   -4.5913 H         1 25B         0.0294
     57 H23        15.1592    3.7566   -5.2738 H         1 25B         0.0294
     58 H24        12.4041    2.6561   -5.9785 H         1 25B         0.0267
     59 H25        13.7866    1.7877   -5.2294 H         1 25B         0.0267
     60 H26        13.3894    1.2905   -7.6668 H         1 25B         0.0267
     61 H27        15.0429    1.8587   -7.2547 H         1 25B         0.0267
     62 H28        12.7928    3.4804   -8.5058 H         1 25B         0.0293
     63 H29        14.3059    2.9225   -9.2971 H         1 25B         0.0293
     64 H30        15.6491    4.3416   -7.7119 H         1 25B         0.0548
     65 H31        16.8393    4.2242   -9.2489 H         1 25B         0.0671
     66 H32        14.8481    7.8668  -10.2992 H         1 25B         0.0671
     67 H33        16.8314    8.4998  -11.6616 H         1 25B         0.0635
     68 H34        18.7918    4.8570  -10.6490 H         1 25B         0.0635
@<TRIPOS>BOND
     1    1    2 2  
     2    2    3 2  
     3    2    4 1  
     4    2   10 1  
     5    4    5 ar 
     6    4    9 ar 
     7    5    6 ar 
     8    6    7 ar 
     9    7    8 ar 
    10    8    9 ar 
    11   10   11 1  
    12   11   12 1  
    13   12   13 1  
    14   12   17 1  
    15   13   14 1  
    16   14   15 1  
    17   15   16 1  
    18   17   18 am 
    19   18   19 2  
    20   18   20 1  
    21   20   21 1  
    22   20   25 1  
    23   21   22 1  
    24   22   23 1  
    25   23   24 1  
    26   24   25 1  
    27   25   26 1  
    28   26   27 2  
    29   26   28 1  
    30   28   29 ar 
    31   28   30 ar 
    32   29   34 ar 
    33   30   31 ar 
    34   31   32 ar 
    35   32   33 1  
    36   32   34 ar 
    37    5   35 1  
    38    6   36 1  
    39    7   37 1  
    40    8   38 1  
    41    9   39 1  
    42   10   40 1  
    43   10   41 1  
    44   11   42 1  
    45   11   43 1  
    46   12   44 1  
    47   13   45 1  
    48   13   46 1  
    49   14   47 1  
    50   14   48 1  
    51   15   49 1  
    52   15   50 1  
    53   16   51 1  
    54   16   52 1  
    55   16   53 1  
    56   17   54 1  
    57   20   55 1  
    58   21   56 1  
    59   21   57 1  
    60   22   58 1  
    61   22   59 1  
    62   23   60 1  
    63   23   61 1  
    64   24   62 1  
    65   24   63 1  
    66   25   64 1  
    67   29   65 1  
    68   30   66 1  
    69   31   67 1  
    70   34   68 1  
@<TRIPOS>SUBSTRUCTURE
     1 25B         1

