### 
### Created by X-TOOL on Mon Sep 10 21:13:01 2018
### 

@<TRIPOS>MOLECULE
3hdm_ligand
   37    40     1     0     0
SMALL
GAST_HUCK


@<TRIPOS>ATOM
      1 C4         39.0200   29.8990   66.5850 C.ar      1 MMG        -0.0551
      2 C5         36.6620   30.0730   66.5510 C.ar      1 MMG        -0.0551
      3 C6         34.2760   35.7290   70.3390 C.ar      1 MMG        -0.0603
      4 C7         34.0840   34.0980   68.6180 C.ar      1 MMG        -0.0603
      5 C8         33.0440   36.2450   70.0060 C.ar      1 MMG        -0.0541
      6 C10        36.8460   32.2620   68.4080 C.ar      1 MMG        -0.0454
      7 C13        37.8680   30.4540   67.1030 C.ar      1 MMG        -0.0187
      8 C15        32.3410   35.6750   68.9710 C.ar      1 MMG         0.0037
      9 C17        36.9310   33.1240   69.4870 C.ar      1 MMG         0.0138
     10 C20        31.0330   36.2380   68.6240 C.2       1 MMG         0.0587
     11 C1         37.7680   28.6270   65.0120 C.ar      1 MMG        -0.0624
     12 C2         38.9780   28.9930   65.5500 C.ar      1 MMG        -0.0620
     13 C3         36.6060   29.1700   65.5130 C.ar      1 MMG        -0.0620
     14 C9         32.8490   34.6050   68.2700 C.ar      1 MMG        -0.0541
     15 C11        36.7560   34.6360   71.1520 C.2       1 MMG         0.0456
     16 C12        38.9790   31.4450   69.0670 C.ar      1 MMG         0.0037
     17 C14        34.8060   34.6560   69.6540 C.ar      1 MMG        -0.0357
     18 C16        37.9060   31.4020   68.2000 C.ar      1 MMG        -0.0057
     19 C18        36.0990   34.1360   70.0480 C.2       1 MMG        -0.0019
     20 C19        38.0660   33.0500   70.2730 C.ar      1 MMG         0.1410
     21 N21        37.9410   33.9670   71.2710 N.pl3     1 MMG        -0.2582
     22 N22        39.1210   32.2490   70.1290 N.ar      1 MMG        -0.2830
     23 O23        30.7070   35.8220   67.3760 O.co2     1 MMG        -0.5624
     24 O24        30.3780   36.9660   69.3570 O.co2     1 MMG        -0.5624
     25 H1         39.9793   30.1828   67.0024 H         1 MMG         0.0617
     26 H2         35.7419   30.4923   66.9417 H         1 MMG         0.0617
     27 H3         34.8383   36.1731   71.1524 H         1 MMG         0.0572
     28 H4         34.4911   33.2540   68.0731 H         1 MMG         0.0572
     29 H5         32.6345   37.0876   70.5513 H         1 MMG         0.0634
     30 H6         35.9825   32.2619   67.7527 H         1 MMG         0.0682
     31 H7         37.7282   27.9138   64.1966 H         1 MMG         0.0612
     32 H8         39.8967   28.5695   65.1605 H         1 MMG         0.0616
     33 H9         35.6485   28.8870   65.0908 H         1 MMG         0.0616
     34 H10        32.2857   34.1660   67.4545 H         1 MMG         0.0634
     35 H11        36.3948   35.4237   71.8115 H         1 MMG         0.1045
     36 H12        39.7919   30.7561   68.8677 H         1 MMG         0.0762
     37 H13        38.6394   34.1327   72.0097 H         1 MMG         0.2348
@<TRIPOS>BOND
     1    7    1 ar 
     2    1   12 ar 
     3    7    2 ar 
     4    2   13 ar 
     5    3    5 ar 
     6   17    3 ar 
     7    4   14 ar 
     8   17    4 ar 
     9    5    8 ar 
    10    9    6 ar 
    11    6   18 ar 
    12   18    7 1  
    13    8   10 1  
    14   14    8 ar 
    15   19    9 1  
    16    9   20 ar 
    17   10   23 ar 
    18   10   24 ar 
    19   12   11 ar 
    20   13   11 ar 
    21   19   15 2  
    22   15   21 1  
    23   18   16 ar 
    24   16   22 ar 
    25   17   19 1  
    26   20   21 1  
    27   20   22 ar 
    28    1   25 1  
    29    2   26 1  
    30    3   27 1  
    31    4   28 1  
    32    5   29 1  
    33    6   30 1  
    34   11   31 1  
    35   12   32 1  
    36   13   33 1  
    37   14   34 1  
    38   15   35 1  
    39   16   36 1  
    40   21   37 1  
@<TRIPOS>SUBSTRUCTURE
     1 MMG         1

