### 
### Created by X-TOOL on Mon Sep 10 21:13:02 2018
### 

@<TRIPOS>MOLECULE
3hdn_ligand
   46    50     1     0     0
SMALL
GAST_HUCK


@<TRIPOS>ATOM
      1 C4         40.6520   27.1010   66.8400 C.ar      1 GMG        -0.0544
      2 C5         32.4780   33.2090   67.6890 C.ar      1 GMG        -0.0637
      3 C6         32.3660   35.1410   69.0830 C.ar      1 GMG        -0.0637
      4 C7         37.6870   28.5700   65.3080 C.ar      1 GMG        -0.0539
      5 C8         33.7510   32.9460   68.1490 C.ar      1 GMG        -0.0690
      6 C10        37.4210   29.5880   66.1990 C.ar      1 GMG        -0.0542
      7 C13        36.1510   34.2520   70.6560 C.2       1 GMG         0.0415
      8 C15        30.4110   34.5810   67.6550 C.3       1 GMG         0.0314
      9 C17        38.7640   27.7360   65.5160 C.ar      1 GMG        -0.0183
     10 C20        38.2190   29.7980   67.3070 C.ar      1 GMG        -0.0182
     11 C21        37.9670   30.8690   68.2560 C.ar      1 GMG        -0.0058
     12 C22        36.6610   32.5760   69.2280 C.ar      1 GMG         0.0121
     13 C24        37.7250   32.7790   70.0870 C.ar      1 GMG         0.1398
     14 C1         40.1200   25.8860   64.8570 C.ar      1 GMG        -0.0614
     15 C2         40.9260   26.0790   65.9580 C.ar      1 GMG        -0.0615
     16 C3         39.0390   26.7130   64.6340 C.ar      1 GMG        -0.0543
     17 C9         33.6360   34.8760   69.5430 C.ar      1 GMG        -0.0690
     18 C11        39.2930   28.9510   67.4980 C.ar      1 GMG        -0.0477
     19 C12        36.7810   31.5790   68.2710 C.ar      1 GMG        -0.0456
     20 C14        38.9400   31.1910   69.1790 C.ar      1 GMG         0.0035
     21 C16        31.7840   34.3050   68.1550 C.ar      1 GMG        -0.0349
     22 C18        34.3360   33.7800   69.0800 C.ar      1 GMG        -0.0440
     23 C19        39.5700   27.9280   66.6190 C.ar      1 GMG        -0.0183
     24 C23        35.6600   33.5200   69.5970 C.2       1 GMG        -0.0083
     25 C25        30.4050   35.7600   66.7370 C.2       1 GMG         0.0457
     26 N26        37.4020   33.7930   70.9370 N.pl3     1 GMG        -0.2606
     27 N27        38.8870   32.1310   70.1220 N.ar      1 GMG        -0.2833
     28 O28        29.2220   36.4160   66.8310 O.co2     1 GMG        -0.5665
     29 O29        31.3270   36.0910   66.0040 O.co2     1 GMG        -0.5665
     30 H1         41.2853   27.2552   67.7061 H         1 GMG         0.0621
     31 H2         32.0213   32.5514   66.9582 H         1 GMG         0.0548
     32 H3         31.8248   36.0056   69.4500 H         1 GMG         0.0548
     33 H4         37.0488   28.4257   64.4437 H         1 GMG         0.0623
     34 H5         34.2929   32.0832   67.7789 H         1 GMG         0.0553
     35 H6         36.5693   30.2361   66.0268 H         1 GMG         0.0620
     36 H7         35.6310   35.0551   71.1761 H         1 GMG         0.1011
     37 H8         29.7508   34.7872   68.5104 H         1 GMG         0.0580
     38 H9         30.0417   33.6991   67.1110 H         1 GMG         0.0580
     39 H10        40.3364   25.0813   64.1637 H         1 GMG         0.0615
     40 H11        41.7749   25.4271   66.1298 H         1 GMG         0.0617
     41 H12        38.4070   26.5588   63.7669 H         1 GMG         0.0623
     42 H13        34.0904   35.5337   70.2752 H         1 GMG         0.0553
     43 H14        39.9333   29.0950   68.3607 H         1 GMG         0.0619
     44 H15        35.9830   31.3668   67.5686 H         1 GMG         0.0682
     45 H16        39.8549   30.6116   69.1318 H         1 GMG         0.0762
     46 H17        38.0129   34.1583   71.6815 H         1 GMG         0.2335
@<TRIPOS>BOND
     1    1   15 ar 
     2   23    1 ar 
     3    5    2 ar 
     4    2   21 ar 
     5   17    3 ar 
     6    3   21 ar 
     7    6    4 ar 
     8    4    9 ar 
     9   22    5 ar 
    10   10    6 ar 
    11   24    7 2  
    12    7   26 1  
    13   21    8 1  
    14    8   25 1  
    15    9   16 ar 
    16   23    9 ar 
    17   11   10 1  
    18   10   18 ar 
    19   19   11 ar 
    20   11   20 ar 
    21   12   13 ar 
    22   12   19 ar 
    23   24   12 1  
    24   13   26 1  
    25   13   27 ar 
    26   15   14 ar 
    27   16   14 ar 
    28   22   17 ar 
    29   18   23 ar 
    30   27   20 ar 
    31   22   24 1  
    32   25   28 ar 
    33   25   29 ar 
    34    1   30 1  
    35    2   31 1  
    36    3   32 1  
    37    4   33 1  
    38    5   34 1  
    39    6   35 1  
    40    7   36 1  
    41    8   37 1  
    42    8   38 1  
    43   14   39 1  
    44   15   40 1  
    45   16   41 1  
    46   17   42 1  
    47   18   43 1  
    48   19   44 1  
    49   20   45 1  
    50   26   46 1  
@<TRIPOS>SUBSTRUCTURE
     1 GMG         1

