### 
### Created by X-TOOL on Mon Sep 10 21:13:00 2018
### 

@<TRIPOS>MOLECULE
3hdz_ligand
   43    45     1     0     0
SMALL
GAST_HUCK


@<TRIPOS>ATOM
      1 N3         20.1520   -6.7490   11.9030 N.pl3     1 PD6        -0.2973
      2 C4         18.2550   -5.2510   11.8590 C.ar      1 PD6        -0.0259
      3 C5         18.2170   -5.1720   14.5640 C.ar      1 PD6         0.1033
      4 C6         20.1210   -6.6960   14.6770 C.2       1 PD6         0.0736
      5 C7         21.0540   -7.4740   12.6100 C.3       1 PD6         0.0424
      6 C8         20.2890   -6.8680   10.4530 C.3       1 PD6         0.0309
      7 C15        16.2790   -3.6970   11.7500 C.ar      1 PD6        -0.0106
      8 C17        15.0450   -3.4270   12.3450 C.ar      1 PD6        -0.0524
      9 C20        14.0600   -2.7150   11.6600 C.ar      1 PD6        -0.0601
     10 C21        15.5100   -2.5350    9.7430 C.ar      1 PD6        -0.0601
     11 C22        14.2860   -2.2640   10.3560 C.ar      1 PD6        -0.0607
     12 C1         19.2120   -6.0000   12.5470 C.ar      1 PD6         0.0597
     13 C2         19.1880   -5.9620   13.9420 C.ar      1 PD6         0.0648
     14 C9         17.2990   -4.4750   12.5120 C.ar      1 PD6         0.0200
     15 N10        17.3080   -4.4560   13.8670 N.ar      1 PD6        -0.3011
     16 N11        18.0880   -5.0510   15.8900 N.pl3     1 PD6        -0.3244
     17 C12        21.0650   -7.4580   13.9970 C.2       1 PD6        -0.0514
     18 O13        20.1900   -6.7330   15.9980 O.3       1 PD6        -0.3488
     19 C14        21.3220   -5.8810    9.8900 C.3       1 PD6        -0.0328
     20 C16        21.0790   -4.4000   10.2120 C.3       1 PD6        -0.0541
     21 C18        16.4810   -3.2470   10.4430 C.ar      1 PD6        -0.0524
     22 C19        22.1300   -3.4500    9.6190 C.3       1 PD6        -0.0652
     23 H1         18.2557   -5.2740   10.7752 H         1 PD6         0.0496
     24 H2         22.0487   -7.1330   12.2872 H         1 PD6         0.0623
     25 H3         20.9116   -8.5233   12.3123 H         1 PD6         0.0623
     26 H4         19.3136   -6.6659    9.9863 H         1 PD6         0.0522
     27 H5         20.6070   -7.8924   10.2092 H         1 PD6         0.0522
     28 H6         14.8497   -3.7753   13.3528 H         1 PD6         0.0634
     29 H7         13.1114   -2.5097   12.1428 H         1 PD6         0.0620
     30 H8         15.7031   -2.1947    8.7321 H         1 PD6         0.0620
     31 H9         13.5190   -1.7100    9.8271 H         1 PD6         0.0626
     32 H10        17.3489   -4.4507   16.2829 H         1 PD6         0.1773
     33 H11        18.7277   -5.5581   16.5181 H         1 PD6         0.1773
     34 H12        21.8053   -8.0363   14.5479 H         1 PD6         0.0360
     35 H13        21.0398   -6.4142   16.2787 H         1 PD6         0.2413
     36 H14        21.3314   -5.9908    8.7955 H         1 PD6         0.0285
     37 H15        22.3070   -6.1566   10.2947 H         1 PD6         0.0285
     38 H16        21.0815   -4.2790   11.3053 H         1 PD6         0.0263
     39 H17        20.0934   -4.1169    9.8139 H         1 PD6         0.0263
     40 H18        17.4263   -3.4593    9.9568 H         1 PD6         0.0634
     41 H19        21.8844   -2.4137    9.8944 H         1 PD6         0.0230
     42 H20        22.1351   -3.5468    8.5233 H         1 PD6         0.0230
     43 H21        23.1232   -3.7089   10.0147 H         1 PD6         0.0230
@<TRIPOS>BOND
     1    1    5 1  
     2    1    6 1  
     3   12    1 1  
     4    2   12 ar 
     5   14    2 ar 
     6   13    3 ar 
     7    3   15 ar 
     8    3   16 1  
     9    4   13 1  
    10   17    4 2  
    11    4   18 1  
    12    5   17 1  
    13    6   19 1  
    14    7    8 ar 
    15    7   14 1  
    16    7   21 ar 
    17    8    9 ar 
    18    9   11 ar 
    19   11   10 ar 
    20   10   21 ar 
    21   12   13 ar 
    22   14   15 ar 
    23   19   20 1  
    24   20   22 1  
    25    2   23 1  
    26    5   24 1  
    27    5   25 1  
    28    6   26 1  
    29    6   27 1  
    30    8   28 1  
    31    9   29 1  
    32   10   30 1  
    33   11   31 1  
    34   16   32 1  
    35   16   33 1  
    36   17   34 1  
    37   18   35 1  
    38   19   36 1  
    39   19   37 1  
    40   20   38 1  
    41   20   39 1  
    42   21   40 1  
    43   22   41 1  
    44   22   42 1  
    45   22   43 1  
@<TRIPOS>SUBSTRUCTURE
     1 PD6         1

