### 
### Created by X-TOOL on Mon Sep 10 21:13:02 2018
### 

@<TRIPOS>MOLECULE
3heg_ligand
   48    50     1     0     0
SMALL
GAST_HUCK


@<TRIPOS>ATOM
      1 C1         -1.9780    2.2590   25.9480 C.ar      1 BAX        -0.0127
      2 C2         -1.2280    3.4280   25.8570 C.ar      1 BAX         0.0959
      3 C3         -1.6980    4.5910   26.4520 C.ar      1 BAX        -0.0108
      4 C4         -2.9200    4.6600   27.1000 C.ar      1 BAX        -0.0291
      5 C13         0.4480    2.7040   24.2850 C.2       1 BAX         0.3148
      6 C16         2.3380    2.3780   22.9000 C.ar      1 BAX         0.0577
      7 C17         1.6560    2.2710   21.6650 C.ar      1 BAX        -0.0478
      8 C18         2.3330    1.8220   20.5270 C.ar      1 BAX        -0.0404
      9 C19         3.7070    1.4910   20.6340 C.ar      1 BAX         0.1047
     10 C20         4.3820    1.5940   21.8510 C.ar      1 BAX        -0.0404
     11 C21         3.6920    2.0440   22.9670 C.ar      1 BAX        -0.0478
     12 O22         4.4640    1.0880   19.5620 O.3       1 BAX        -0.2564
     13 C24         3.7130   -1.0290   18.8880 C.ar      1 BAX         0.0024
     14 C25         3.4170   -1.9280   17.8630 C.ar      1 BAX         0.0057
     15 C27         4.0410   -0.3090   16.2360 C.ar      1 BAX         0.1117
     16 C28         4.3280    0.6230   17.2290 C.ar      1 BAX         0.0183
     17 N30         4.1010   -1.0340   13.8920 N.am      1 BAX        -0.2874
     18 C31         3.2530   -1.0040   12.7050 C.3       1 BAX         0.0193
     19 C5         -3.7100    3.5350   27.1680 C.ar      1 BAX         0.0592
     20 C6         -3.2190    2.2650   26.5840 C.ar      1 BAX         0.0462
     21 C7         -4.0500    0.9970   26.6980 C.3       1 BAX         0.3715
     22 F8         -5.2380    1.1420   26.2110 F         1 BAX        -0.2224
     23 F9         -3.4800    0.0010   26.1220 F         1 BAX        -0.2224
     24 F10        -4.2250    0.6490   27.9280 F         1 BAX        -0.2224
     25 CL11       -5.2760    3.5990   28.0420 Cl        1 BAX        -0.0539
     26 N12        -0.0220    3.4870   25.2640 N.am      1 BAX        -0.2087
     27 N14         1.7480    2.8090   24.0510 N.am      1 BAX        -0.2199
     28 O15        -0.2620    1.9460   23.6160 O.2       1 BAX        -0.3813
     29 C23         4.1550    0.2360   18.5580 C.ar      1 BAX         0.1379
     30 N26         3.5810   -1.5370   16.5780 N.ar      1 BAX        -0.2925
     31 C29         4.1310    0.0000   14.7620 C.2       1 BAX         0.2205
     32 O32         4.1550    1.1730   14.3910 O.2       1 BAX        -0.3791
     33 H          -1.5931    1.3335   25.5197 H         1 BAX         0.0706
     34 H          -1.0793    5.4873   26.4073 H         1 BAX         0.0758
     35 H          -3.2525    5.5949   27.5512 H         1 BAX         0.0670
     36 H           0.6014    2.5390   21.6006 H         1 BAX         0.0480
     37 H           1.8129    1.7281   19.5737 H         1 BAX         0.0520
     38 H           5.4358    1.3248   21.9236 H         1 BAX         0.0520
     39 H           4.2182    2.1389   23.9168 H         1 BAX         0.0480
     40 H           3.5971   -1.3208   19.9318 H         1 BAX         0.0673
     41 H           3.0587   -2.9312   18.0940 H         1 BAX         0.0803
     42 H           4.6771    1.6241   16.9761 H         1 BAX         0.0696
     43 H           4.6834   -1.8525   14.0690 H         1 BAX         0.1844
     44 H           2.2108   -0.9008   13.0071 H         1 BAX         0.0484
     45 H           3.5366   -0.1581   12.0787 H         1 BAX         0.0484
     46 H           3.3804   -1.9308   12.1455 H         1 BAX         0.0484
     47 H           0.6091    4.2144   25.6000 H         1 BAX         0.2266
     48 H           2.3366    3.2335   24.7678 H         1 BAX         0.2230
@<TRIPOS>BOND
     1    2    1 ar 
     2    1   20 ar 
     3    2    3 ar 
     4   26    2 1  
     5    3    4 ar 
     6    4   19 ar 
     7    5   26 am 
     8   27    5 am 
     9    5   28 2  
    10    7    6 ar 
    11   11    6 ar 
    12    6   27 1  
    13    8    7 ar 
    14    9    8 ar 
    15    9   10 ar 
    16   12    9 1  
    17   10   11 ar 
    18   29   12 1  
    19   14   13 ar 
    20   29   13 ar 
    21   30   14 ar 
    22   15   16 ar 
    23   15   30 ar 
    24   31   15 1  
    25   16   29 ar 
    26   17   18 1  
    27   17   31 am 
    28   19   20 ar 
    29   19   25 1  
    30   20   21 1  
    31   21   22 1  
    32   21   23 1  
    33   21   24 1  
    34   31   32 2  
    35    1   33 1  
    36    3   34 1  
    37    4   35 1  
    38    7   36 1  
    39    8   37 1  
    40   10   38 1  
    41   11   39 1  
    42   13   40 1  
    43   14   41 1  
    44   16   42 1  
    45   17   43 1  
    46   18   44 1  
    47   18   45 1  
    48   18   46 1  
    49   26   47 1  
    50   27   48 1  
@<TRIPOS>SUBSTRUCTURE
     1 BAX         1

