### 
### Created by X-TOOL on Mon Sep 10 21:13:01 2018
### 

@<TRIPOS>MOLECULE
3hek_ligand
   54    57     1     0     0
SMALL
GAST_HUCK


@<TRIPOS>ATOM
      1 C4         16.9690   -0.4100   48.8480 C.ar      1 BD0         0.1012
      2 C6         16.1420   -1.4760   49.3160 C.ar      1 BD0         0.0681
      3 C7         14.7780   -1.2440   49.6580 C.ar      1 BD0        -0.0440
      4 C8         14.2410    0.0590   49.5400 C.ar      1 BD0         0.0624
      5 C10        16.7140   -2.8390   49.4510 C.2       1 BD0         0.1961
      6 N12        17.0310   -3.3320   50.7390 N.am      1 BD0        -0.2625
      7 C13        17.6240   -4.6650   50.8180 C.3       1 BD0         0.0354
      8 C15        17.8800   -3.5970   52.9560 C.3       1 BD0        -0.0189
      9 C17        15.7410   -2.4550   52.8050 C.ar      1 BD0        -0.0246
     10 C20        13.3210   -2.0780   54.3040 C.ar      1 BD0        -0.0053
     11 C21        12.0600   -1.9040   55.1180 C.3       1 BD0        -0.0009
     12 C24         9.0440   -0.9360   53.2160 C.3       1 BD0         0.0562
     13 C28         9.8710   -1.0440   55.4910 C.3       1 BD0         0.0345
     14 O1         14.5870    2.3950   48.9580 O.3       1 BD0        -0.3315
     15 C2         15.0620    1.1230   49.0810 C.ar      1 BD0         0.0989
     16 C3         16.4250    0.8980   48.7300 C.ar      1 BD0         0.0016
     17 O5         18.2870   -0.6460   48.5160 O.3       1 BD0        -0.3301
     18 CL9        12.5950    0.3110   49.9670 Cl        1 BD0        -0.0869
     19 O11        16.9110   -3.4590   48.4080 O.2       1 BD0        -0.3953
     20 C14        17.8450   -4.9660   52.2860 C.3       1 BD0        -0.0287
     21 C16        17.0730   -2.6250   52.0540 C.3       1 BD0         0.0745
     22 C18        14.6870   -3.4280   52.7600 C.ar      1 BD0        -0.0645
     23 C19        13.4970   -3.2420   53.4990 C.ar      1 BD0        -0.0617
     24 N22        10.9750   -1.1050   54.5460 N.4       1 BD0         0.2506
     25 C23        10.3990   -1.6160   53.2880 C.3       1 BD0        -0.0246
     26 C25         8.7320   -0.5690   54.6530 C.3       1 BD0         0.2920
     27 F26         7.5690   -1.1170   55.0700 F         1 BD0        -0.1996
     28 F27         8.6170    0.7660   54.7720 F         1 BD0        -0.1996
     29 C29        14.3540   -1.0980   54.3500 C.ar      1 BD0        -0.0617
     30 C30        15.5520   -1.2810   53.6100 C.ar      1 BD0        -0.0645
     31 H1         14.1563   -2.0609   50.0063 H         1 BD0         0.0623
     32 H2         18.5833   -4.6841   50.2801 H         1 BD0         0.0523
     33 H3         16.9424   -5.4082   50.3786 H         1 BD0         0.0523
     34 H4         18.9194   -3.2494   53.0495 H         1 BD0         0.0309
     35 H5         17.4212   -3.6538   53.9541 H         1 BD0         0.0309
     36 H6         12.3475   -1.4313   56.0687 H         1 BD0         0.0967
     37 H7         11.6571   -2.9084   55.3150 H         1 BD0         0.0967
     38 H8          8.2840   -1.6231   52.8156 H         1 BD0         0.0377
     39 H9          9.0928   -0.0357   52.5858 H         1 BD0         0.0377
     40 H10        10.0858   -0.3344   56.3035 H         1 BD0         0.0874
     41 H11         9.6607   -2.0362   55.9167 H         1 BD0         0.0874
     42 H12        15.2799    2.9611   48.6389 H         1 BD0         0.2502
     43 H13        17.0411    1.7168   48.3763 H         1 BD0         0.0475
     44 H14        18.4277   -0.4215   47.6037 H         1 BD0         0.2508
     45 H15        18.7972   -5.4961   52.4350 H         1 BD0         0.0287
     46 H16        17.0203   -5.5738   52.6866 H         1 BD0         0.0287
     47 H17        17.5630   -1.6471   51.9376 H         1 BD0         0.0707
     48 H18        14.8053   -4.3171   52.1512 H         1 BD0         0.0540
     49 H19        12.7128   -3.9890   53.4537 H         1 BD0         0.0542
     50 H20        11.3317   -0.1771   54.3792 H         1 BD0         0.2049
     51 H21        11.0249   -1.3373   52.4274 H         1 BD0         0.0816
     52 H22        10.2885   -2.7099   53.3221 H         1 BD0         0.0816
     53 H23        14.2246   -0.2070   54.9537 H         1 BD0         0.0542
     54 H24        16.3306   -0.5280   53.6531 H         1 BD0         0.0540
@<TRIPOS>BOND
     1    2    1 ar 
     2    1   16 ar 
     3    1   17 1  
     4    2    3 ar 
     5    5    2 1  
     6    3    4 ar 
     7    4   15 ar 
     8    4   18 1  
     9    6    5 am 
    10    5   19 2  
    11    6    7 1  
    12   21    6 1  
    13   20    7 1  
    14    8   20 1  
    15   21    8 1  
    16    9   21 1  
    17   22    9 ar 
    18    9   30 ar 
    19   10   11 1  
    20   23   10 ar 
    21   10   29 ar 
    22   11   24 1  
    23   12   25 1  
    24   26   12 1  
    25   24   13 1  
    26   13   26 1  
    27   15   14 1  
    28   16   15 ar 
    29   22   23 ar 
    30   24   25 1  
    31   26   27 1  
    32   26   28 1  
    33   29   30 ar 
    34    3   31 1  
    35    7   32 1  
    36    7   33 1  
    37    8   34 1  
    38    8   35 1  
    39   11   36 1  
    40   11   37 1  
    41   12   38 1  
    42   12   39 1  
    43   13   40 1  
    44   13   41 1  
    45   14   42 1  
    46   16   43 1  
    47   17   44 1  
    48   20   45 1  
    49   20   46 1  
    50   21   47 1  
    51   22   48 1  
    52   23   49 1  
    53   24   50 1  
    54   25   51 1  
    55   25   52 1  
    56   29   53 1  
    57   30   54 1  
@<TRIPOS>SUBSTRUCTURE
     1 BD0         1

