### 
### Created by X-TOOL on Mon Sep 10 21:13:00 2018
### 

@<TRIPOS>MOLECULE
3hf6_ligand
   56    59     1     0     0
SMALL
GAST_HUCK


@<TRIPOS>ATOM
      1 O3         15.7660    5.8280   19.3850 O.co2     1 LX0        -0.5641
      2 C1         15.2430    5.1580   18.4630 C.2       1 LX0         0.0868
      3 O2         15.4650    5.3890   17.2530 O.co2     1 LX0        -0.5641
      4 C4         14.2970    4.0460   18.8170 C.3       1 LX0         0.0387
      5 N5         14.4200    3.7060   20.2280 N.4       1 LX0         0.2343
      6 C6         12.8890    4.5660   18.5400 C.3       1 LX0         0.0390
      7 C7         11.8000    3.5370   18.7530 C.ar      1 LX0        -0.0298
      8 C12        10.8560    3.7370   19.7670 C.ar      1 LX0        -0.0528
      9 C11         9.8390    2.8030   19.9610 C.ar      1 LX0        -0.0501
     10 C10         9.7600    1.6670   19.1480 C.ar      1 LX0         0.0140
     11 C9         10.6960    1.4780   18.1290 C.ar      1 LX0        -0.0501
     12 C8         11.7110    2.4150   17.9330 C.ar      1 LX0        -0.0528
     13 C13         8.6600    0.6830   19.3470 C.ar      1 LX0         0.1024
     14 N18         7.6950    0.9280   20.2640 N.ar      1 LX0        -0.2444
     15 C17         6.6770    0.0520   20.4350 C.ar      1 LX0         0.1850
     16 N16         6.6160   -1.0690   19.6780 N.ar      1 LX0        -0.2221
     17 C15         7.5790   -1.3140   18.7530 C.ar      1 LX0         0.1803
     18 N19         7.5430   -2.4350   17.9930 N.pl3     1 LX0        -0.3009
     19 N14         8.5910   -0.4340   18.5890 N.ar      1 LX0        -0.2447
     20 N20         5.7140    0.3000   21.3590 N.pl3     1 LX0        -0.2728
     21 C21         5.6300    1.5680   22.0790 C.3       1 LX0         0.0748
     22 C22         4.7050    1.3810   23.2870 C.3       1 LX0        -0.0311
     23 C23         5.1680    2.7030   21.2220 C.ar      1 LX0        -0.0167
     24 C28         4.7550    2.4880   19.8990 C.ar      1 LX0        -0.0544
     25 C27         4.3230    3.5190   19.0650 C.ar      1 LX0        -0.0566
     26 C26         4.2940    4.8190   19.5540 C.ar      1 LX0        -0.0222
     27 C32         3.8710    5.8840   18.7630 C.ar      1 LX0        -0.0568
     28 C31         3.8610    7.1700   19.3020 C.ar      1 LX0        -0.0634
     29 C30         4.2730    7.4030   20.6220 C.ar      1 LX0        -0.0637
     30 C29         4.7080    6.3660   21.4490 C.ar      1 LX0        -0.0578
     31 C25         4.7330    5.0680   20.9550 C.ar      1 LX0        -0.0258
     32 C24         5.1610    4.0000   21.7420 C.ar      1 LX0        -0.0527
     33 H1         14.5062    3.1581   18.2023 H         1 LX0         0.1050
     34 H2         13.7803    2.9595   20.4507 H         1 LX0         0.2012
     35 H3         14.2012    4.5145   20.7888 H         1 LX0         0.2012
     36 H4         15.3636    3.4086   20.4210 H         1 LX0         0.2012
     37 H5         12.8449    4.9050   17.4945 H         1 LX0         0.0514
     38 H6         12.6965    5.4170   19.2098 H         1 LX0         0.0514
     39 H7         10.9154    4.6153   20.3995 H         1 LX0         0.0575
     40 H8          9.1065    2.9577   20.7450 H         1 LX0         0.0658
     41 H9         10.6340    0.6040   17.4908 H         1 LX0         0.0658
     42 H10        12.4339    2.2689   17.1385 H         1 LX0         0.0575
     43 H11         6.7758   -3.1122   18.1102 H         1 LX0         0.1860
     44 H12         8.2828   -2.6100   17.2980 H         1 LX0         0.1860
     45 H13         5.0177   -0.4321   21.5595 H         1 LX0         0.1926
     46 H14         6.6363    1.8182   22.4461 H         1 LX0         0.0728
     47 H15         4.6302    2.3280   23.8416 H         1 LX0         0.0275
     48 H16         5.1154    0.6017   23.9459 H         1 LX0         0.0275
     49 H17         3.7056    1.0793   22.9404 H         1 LX0         0.0275
     50 H18         4.7723    1.4771   19.5079 H         1 LX0         0.0587
     51 H19         4.0136    3.3085   18.0476 H         1 LX0         0.0620
     52 H20         3.5533    5.7154   17.7404 H         1 LX0         0.0619
     53 H21         3.5297    8.0022   18.6914 H         1 LX0         0.0598
     54 H22         4.2532    8.4149   21.0103 H         1 LX0         0.0611
     55 H23         5.0229    6.5714   22.4657 H         1 LX0         0.0603
     56 H24         5.4892    4.1761   22.7600 H         1 LX0         0.0532
@<TRIPOS>BOND
     1    1    2 ar 
     2    2    3 ar 
     3    2    4 1  
     4    4    5 1  
     5    4    6 1  
     6    6    7 1  
     7    7    8 ar 
     8    7   12 ar 
     9    8    9 ar 
    10    9   10 ar 
    11   10   11 ar 
    12   10   13 1  
    13   11   12 ar 
    14   13   14 ar 
    15   13   19 ar 
    16   14   15 ar 
    17   15   16 ar 
    18   15   20 1  
    19   16   17 ar 
    20   17   18 1  
    21   17   19 ar 
    22   20   21 1  
    23   21   22 1  
    24   21   23 1  
    25   23   24 ar 
    26   23   32 ar 
    27   24   25 ar 
    28   25   26 ar 
    29   26   27 ar 
    30   26   31 ar 
    31   27   28 ar 
    32   28   29 ar 
    33   29   30 ar 
    34   30   31 ar 
    35   31   32 ar 
    36    4   33 1  
    37    5   34 1  
    38    5   35 1  
    39    5   36 1  
    40    6   37 1  
    41    6   38 1  
    42    8   39 1  
    43    9   40 1  
    44   11   41 1  
    45   12   42 1  
    46   18   43 1  
    47   18   44 1  
    48   20   45 1  
    49   21   46 1  
    50   22   47 1  
    51   22   48 1  
    52   22   49 1  
    53   24   50 1  
    54   25   51 1  
    55   27   52 1  
    56   28   53 1  
    57   29   54 1  
    58   30   55 1  
    59   32   56 1  
@<TRIPOS>SUBSTRUCTURE
     1 LX0         1

