### 
### Created by X-TOOL on Mon Sep 10 21:13:03 2018
### 

@<TRIPOS>MOLECULE
3hf8_ligand
   60    63     1     0     0
SMALL
GAST_HUCK


@<TRIPOS>ATOM
      1 O38        15.9710    7.0860   19.1490 O.co2     1 ML0        -0.5641
      2 C36        15.4020    6.3880   18.2740 C.2       1 ML0         0.0867
      3 O37        15.5420    6.5980   17.0400 O.co2     1 ML0        -0.5641
      4 C34        14.4860    5.2750   18.7000 C.3       1 ML0         0.0384
      5 N35        14.6090    4.9720   20.1190 N.4       1 ML0         0.2342
      6 C33        13.0770    5.7580   18.3920 C.3       1 ML0         0.0381
      7 C30        12.0180    4.7020   18.6070 C.ar      1 ML0        -0.0317
      8 C29        11.0900    4.8950   19.6280 C.ar      1 ML0        -0.0551
      9 C28        10.0940    3.9470   19.8430 C.ar      1 ML0        -0.0546
     10 C31        11.9450    3.5670   17.7970 C.ar      1 ML0        -0.0551
     11 C32        10.9460    2.6190   18.0180 C.ar      1 ML0        -0.0546
     12 C27        10.0190    2.8060   19.0480 C.ar      1 ML0        -0.0063
     13 C22         8.9210    1.8260   19.2940 C.ar      1 ML0         0.0376
     14 C21         8.3210    1.7340   20.5500 C.ar      1 ML0         0.0084
     15 N23         8.4590    1.0460   18.2820 N.ar      1 ML0        -0.2701
     16 C24         7.4460    0.1670   18.4820 C.ar      1 ML0         0.1702
     17 N26         7.0080   -0.6080   17.4650 N.pl3     1 ML0        -0.3065
     18 N25         6.8630    0.0570   19.6970 N.ar      1 ML0        -0.2335
     19 C20         7.2810    0.8250   20.7340 C.ar      1 ML0         0.1679
     20 O16         6.6910    0.7180   21.9700 O.3       1 ML0        -0.2697
     21 C14         5.7920   -0.3540   22.2590 C.3       1 ML0         0.2160
     22 C15         6.1290   -0.9110   23.6350 C.3       1 ML0         0.4316
     23 F19         7.4210   -1.1560   23.7170 F         1 ML0        -0.1654
     24 F18         5.8130   -0.0300   24.5640 F         1 ML0        -0.1654
     25 F17         5.4540   -2.0310   23.8060 F         1 ML0        -0.1654
     26 C11         4.3750    0.0960   22.2050 C.ar      1 ML0         0.0009
     27 C10         4.0260    1.4270   22.4460 C.ar      1 ML0        -0.0557
     28 C9          2.6880    1.8230   22.3940 C.ar      1 ML0        -0.0600
     29 C12         3.3770   -0.8340   21.9130 C.ar      1 ML0        -0.0557
     30 C13         2.0430   -0.4380   21.8620 C.ar      1 ML0        -0.0600
     31 C8          1.6890    0.8920   22.0980 C.ar      1 ML0        -0.0251
     32 C3          0.2520    1.2990   22.0370 C.ar      1 ML0        -0.0240
     33 C2         -0.1080    2.5620   21.5650 C.ar      1 ML0        -0.0596
     34 C4         -0.7500    0.4170   22.4560 C.ar      1 ML0        -0.0223
     35 C5         -2.0940    0.7970   22.3980 C.ar      1 ML0         0.1319
     36 F7         -3.0530   -0.0590   22.7990 F         1 ML0        -0.1837
     37 C6         -2.4420    2.0620   21.9230 C.ar      1 ML0        -0.0290
     38 C1         -1.4480    2.9440   21.5050 C.ar      1 ML0        -0.0640
     39 H1         14.7110    4.3671   18.1211 H         1 ML0         0.1050
     40 H2         13.9787    4.2227   20.3584 H         1 ML0         0.2012
     41 H3         14.3774    5.7912   20.6588 H         1 ML0         0.2012
     42 H4         15.5559    4.6924   20.3220 H         1 ML0         0.2012
     43 H5         13.0408    6.0785   17.3404 H         1 ML0         0.0510
     44 H6         12.8521    6.6146   19.0444 H         1 ML0         0.0510
     45 H7         11.1435    5.7796   20.2522 H         1 ML0         0.0569
     46 H8          9.3705    4.0980   20.6360 H         1 ML0         0.0639
     47 H9         12.6633    3.4229   16.9980 H         1 ML0         0.0569
     48 H10        10.8882    1.7367   17.3909 H         1 ML0         0.0639
     49 H11         8.6581    2.3591   21.3690 H         1 ML0         0.0578
     50 H12         7.4446   -0.5327   16.5352 H         1 ML0         0.1823
     51 H13         6.2376   -1.2739   17.6198 H         1 ML0         0.1823
     52 H14         5.9326   -1.1464   21.5091 H         1 ML0         0.0922
     53 H15         4.7963    2.1547   22.6741 H         1 ML0         0.0561
     54 H16         2.4232    2.8569   22.5840 H         1 ML0         0.0609
     55 H17         3.6409   -1.8685   21.7252 H         1 ML0         0.0561
     56 H18         1.2735   -1.1677   21.6374 H         1 ML0         0.0609
     57 H19         0.6618    3.2533   21.2417 H         1 ML0         0.0581
     58 H20        -0.4828   -0.5657   22.8274 H         1 ML0         0.0599
     59 H21        -3.4839    2.3579   21.8793 H         1 ML0         0.0597
     60 H22        -1.7158    3.9265   21.1334 H         1 ML0         0.0605
@<TRIPOS>BOND
     1    1    2 ar 
     2    2    3 ar 
     3    2    4 1  
     4    4    5 1  
     5    4    6 1  
     6    6    7 1  
     7    7    8 ar 
     8    7   10 ar 
     9    8    9 ar 
    10    9   12 ar 
    11   10   11 ar 
    12   11   12 ar 
    13   12   13 1  
    14   13   14 ar 
    15   13   15 ar 
    16   14   19 ar 
    17   15   16 ar 
    18   16   17 1  
    19   16   18 ar 
    20   18   19 ar 
    21   19   20 1  
    22   20   21 1  
    23   21   22 1  
    24   21   26 1  
    25   22   23 1  
    26   22   24 1  
    27   22   25 1  
    28   26   27 ar 
    29   26   29 ar 
    30   27   28 ar 
    31   28   31 ar 
    32   29   30 ar 
    33   30   31 ar 
    34   31   32 1  
    35   32   33 ar 
    36   32   34 ar 
    37   33   38 ar 
    38   34   35 ar 
    39   35   36 1  
    40   35   37 ar 
    41   37   38 ar 
    42    4   39 1  
    43    5   40 1  
    44    5   41 1  
    45    5   42 1  
    46    6   43 1  
    47    6   44 1  
    48    8   45 1  
    49    9   46 1  
    50   10   47 1  
    51   11   48 1  
    52   14   49 1  
    53   17   50 1  
    54   17   51 1  
    55   21   52 1  
    56   27   53 1  
    57   28   54 1  
    58   29   55 1  
    59   30   56 1  
    60   33   57 1  
    61   34   58 1  
    62   37   59 1  
    63   38   60 1  
@<TRIPOS>SUBSTRUCTURE
     1 ML0         1

