### 
### Created by X-TOOL on Mon Sep 10 21:13:04 2018
### 

@<TRIPOS>MOLECULE
3hfb_ligand
   59    62     1     0     0
SMALL
GAST_HUCK


@<TRIPOS>ATOM
      1 O3         16.0630    5.9860   19.2230 O.co2     1 ML4        -0.5641
      2 C2         15.4590    5.2980   18.3710 C.2       1 ML4         0.0867
      3 O1         15.6400    5.4490   17.1480 O.co2     1 ML4        -0.5641
      4 C4         14.4830    4.2540   18.8360 C.3       1 ML4         0.0380
      5 N5         14.6730    3.9930   20.2560 N.4       1 ML4         0.2342
      6 C6         13.0670    4.7470   18.5610 C.3       1 ML4         0.0369
      7 C7         12.0220    3.6870   18.8300 C.ar      1 ML4        -0.0344
      8 C12        11.8420    2.6290   17.9430 C.ar      1 ML4        -0.0580
      9 C11        10.8710    1.6600   18.2030 C.ar      1 ML4        -0.0584
     10 C10        10.0710    1.7510   19.3470 C.ar      1 ML4        -0.0080
     11 C9         10.2620    2.8060   20.2390 C.ar      1 ML4        -0.0584
     12 C8         11.2330    3.7700   19.9810 C.ar      1 ML4        -0.0580
     13 C13         9.0410    0.7130   19.6260 C.ar      1 ML4         0.0641
     14 N18         8.8310   -0.3130   18.7630 N.ar      1 ML4        -0.2822
     15 C17         7.9100   -1.2530   19.0050 C.ar      1 ML4         0.0576
     16 C16         7.1540   -1.1840   20.1670 C.ar      1 ML4         0.1435
     17 N15         7.3640   -0.1650   21.0310 N.ar      1 ML4        -0.2606
     18 C14         8.2840    0.7780   20.7890 C.ar      1 ML4         0.0319
     19 N19         6.2210   -2.1260   20.4420 N.pl3     1 ML4        -0.2902
     20 C20         5.8650   -2.4200   21.8260 C.3       1 ML4         0.0628
     21 C21         5.1650   -3.7610   21.9390 C.ar      1 ML4        -0.0134
     22 C26         3.7380   -3.8550   22.3810 C.ar      1 ML4        -0.0168
     23 C25         3.1370   -5.1110   22.4740 C.ar      1 ML4        -0.0618
     24 C24         3.8690   -6.2550   22.1600 C.ar      1 ML4        -0.0690
     25 C23         5.1990   -6.1710   21.7430 C.ar      1 ML4        -0.0692
     26 C22         5.8450   -4.9400   21.6360 C.ar      1 ML4        -0.0582
     27 C27         2.9570   -2.6340   22.7240 C.ar      1 ML4        -0.0189
     28 C32         2.3090   -1.9230   21.7170 C.ar      1 ML4        -0.0619
     29 C31         1.5760   -0.7780   22.0300 C.ar      1 ML4        -0.0690
     30 C30         1.4790   -0.3290   23.3470 C.ar      1 ML4        -0.0692
     31 C29         2.1110   -1.0070   24.3920 C.ar      1 ML4        -0.0604
     32 C28         2.8560   -2.1560   24.1350 C.ar      1 ML4        -0.0385
     33 C33         3.5380   -2.8860   25.2730 C.3       1 ML4        -0.0303
     34 H1         14.6545    3.3223   18.2770 H         1 ML4         0.1049
     35 H2         14.0151    3.2923   20.5598 H         1 ML4         0.2012
     36 H3         14.5231    4.8429   20.7769 H         1 ML4         0.2012
     37 H4         15.6122    3.6631   20.4143 H         1 ML4         0.2012
     38 H5         12.9979    5.0507   17.5060 H         1 ML4         0.0505
     39 H6         12.8639    5.6143   19.2064 H         1 ML4         0.0505
     40 H7         12.4549    2.5577   17.0518 H         1 ML4         0.0562
     41 H8         10.7364    0.8331   17.5151 H         1 ML4         0.0614
     42 H9          9.6541    2.8755   21.1338 H         1 ML4         0.0614
     43 H10        11.3779    4.5890   20.6762 H         1 ML4         0.0562
     44 H11         7.7556   -2.0615   18.2996 H         1 ML4         0.0830
     45 H12         8.4367    1.5859   21.4954 H         1 ML4         0.0880
     46 H13         5.7622   -2.6355   19.6734 H         1 ML4         0.1856
     47 H14         5.1939   -1.6323   22.1990 H         1 ML4         0.0688
     48 H15         6.7805   -2.4407   22.4354 H         1 ML4         0.0688
     49 H16         2.1035   -5.1968   22.7896 H         1 ML4         0.0595
     50 H17         3.3971   -7.2276   22.2410 H         1 ML4         0.0559
     51 H18         5.7387   -7.0787   21.4982 H         1 ML4         0.0593
     52 H19         6.8799   -4.8994   21.3160 H         1 ML4         0.0554
     53 H20         2.3742   -2.2597   20.6887 H         1 ML4         0.0595
     54 H21         1.0755   -0.2303   21.2397 H         1 ML4         0.0559
     55 H22         0.9023    0.5629   23.5636 H         1 ML4         0.0593
     56 H23         2.0215   -0.6377   25.4072 H         1 ML4         0.0554
     57 H24         4.0739   -3.7617   24.8780 H         1 ML4         0.0395
     58 H25         2.7830   -3.2162   26.0016 H         1 ML4         0.0395
     59 H26         4.2526   -2.2105   25.7660 H         1 ML4         0.0395
@<TRIPOS>BOND
     1    1    2 ar 
     2    2    3 ar 
     3    2    4 1  
     4    4    5 1  
     5    4    6 1  
     6    6    7 1  
     7    7    8 ar 
     8    7   12 ar 
     9    8    9 ar 
    10    9   10 ar 
    11   10   11 ar 
    12   10   13 1  
    13   11   12 ar 
    14   13   14 ar 
    15   13   18 ar 
    16   14   15 ar 
    17   15   16 ar 
    18   16   17 ar 
    19   16   19 1  
    20   17   18 ar 
    21   19   20 1  
    22   20   21 1  
    23   21   22 ar 
    24   21   26 ar 
    25   22   23 ar 
    26   22   27 1  
    27   23   24 ar 
    28   24   25 ar 
    29   25   26 ar 
    30   27   28 ar 
    31   27   32 ar 
    32   28   29 ar 
    33   29   30 ar 
    34   30   31 ar 
    35   31   32 ar 
    36   32   33 1  
    37    4   34 1  
    38    5   35 1  
    39    5   36 1  
    40    5   37 1  
    41    6   38 1  
    42    6   39 1  
    43    8   40 1  
    44    9   41 1  
    45   11   42 1  
    46   12   43 1  
    47   15   44 1  
    48   18   45 1  
    49   19   46 1  
    50   20   47 1  
    51   20   48 1  
    52   23   49 1  
    53   24   50 1  
    54   25   51 1  
    55   26   52 1  
    56   28   53 1  
    57   29   54 1  
    58   30   55 1  
    59   31   56 1  
    60   33   57 1  
    61   33   58 1  
    62   33   59 1  
@<TRIPOS>SUBSTRUCTURE
     1 ML4         1

