### 
### Created by X-TOOL on Mon Sep 10 21:13:01 2018
### 

@<TRIPOS>MOLECULE
3hfj_ligand
   37    40     1     0     0
SMALL
GAST_HUCK


@<TRIPOS>ATOM
      1 CAL        13.6590  -18.3420   -9.1010 C.ar      1 DZ9        -0.0086
      2 CAR        12.6090  -19.1360   -9.5640 C.ar      1 DZ9         0.1190
      3 FAC        12.6710  -20.4740   -9.4420 F         1 DZ9        -0.1876
      4 CAG        11.4870  -18.5560  -10.1510 C.ar      1 DZ9        -0.0437
      5 CAE        11.4150  -17.1720  -10.2810 C.ar      1 DZ9        -0.0772
      6 CAH        12.4670  -16.3780   -9.8190 C.ar      1 DZ9        -0.0454
      7 CAS        13.5910  -16.9500   -9.2190 C.ar      1 DZ9         0.0627
      8 NAN        14.5750  -16.1270   -8.8170 N.am      1 DZ9        -0.2397
      9 CAQ        15.8240  -16.4530   -8.4380 C.2       1 DZ9         0.2175
     10 OAB        16.2830  -17.5940   -8.3710 O.2       1 DZ9        -0.3930
     11 CAW        16.7070  -15.2440   -8.0760 C.2       1 DZ9         0.1146
     12 CAT        18.0970  -15.2440   -7.9610 C.2       1 DZ9         0.0662
     13 NAA        18.8290  -16.3400   -8.1380 N.pl3     1 DZ9        -0.3381
     14 SAP        16.1730  -13.6700   -7.7810 S.3       1 DZ9        -0.0297
     15 CAY        17.7000  -12.9690   -7.4910 C.ar      1 DZ9         0.1014
     16 NAM        18.0620  -11.7050   -7.1770 N.ar      1 DZ9        -0.2869
     17 CAX        18.6640  -13.9910   -7.6350 C.ar      1 DZ9         0.0375
     18 CAK        20.0030  -13.6540   -7.4380 C.ar      1 DZ9        -0.0428
     19 CAJ        20.3520  -12.3440   -7.1160 C.ar      1 DZ9        -0.0373
     20 CAU        19.3570  -11.3670   -6.9970 C.ar      1 DZ9         0.0479
     21 CAV        19.7060  -10.0610   -6.6430 C.2       1 DZ9         0.0506
     22 CAI        20.8880   -9.4390   -6.7070 C.2       1 DZ9        -0.0615
     23 CAD        20.8850   -8.1610   -6.2500 C.2       1 DZ9        -0.0675
     24 CAF        19.7290   -7.6880   -5.7780 C.2       1 DZ9        -0.0001
     25 SAO        18.6310   -8.9600   -5.9410 S.3       1 DZ9        -0.0330
     26 H1         14.5288  -18.8049   -8.6491 H         1 DZ9         0.0485
     27 H2         10.6738  -19.1793  -10.5049 H         1 DZ9         0.0475
     28 H3         10.5464  -16.7126  -10.7387 H         1 DZ9         0.0568
     29 H4         12.4102  -15.3010   -9.9278 H         1 DZ9         0.0469
     30 H5         14.3510  -15.1526   -8.7972 H         1 DZ9         0.2236
     31 H6         18.3717  -17.2320   -8.3748 H         1 DZ9         0.1719
     32 H7         19.8533  -16.2969   -8.0383 H         1 DZ9         0.1719
     33 H8         20.7724  -14.4114   -7.5354 H         1 DZ9         0.0717
     34 H9         21.3920  -12.0822   -6.9580 H         1 DZ9         0.0630
     35 H10        21.7839   -9.9207   -7.0958 H         1 DZ9         0.0494
     36 H11        21.7853   -7.5486   -6.2675 H         1 DZ9         0.0442
     37 H12        19.5359   -6.6951   -5.3746 H         1 DZ9         0.0794
@<TRIPOS>BOND
     1    1    2 ar 
     2    1    7 ar 
     3    2    3 1  
     4    2    4 ar 
     5    4    5 ar 
     6    5    6 ar 
     7    6    7 ar 
     8    7    8 1  
     9    8    9 am 
    10    9   10 2  
    11    9   11 1  
    12   11   12 2  
    13   11   14 1  
    14   12   13 1  
    15   12   17 1  
    16   14   15 1  
    17   15   16 ar 
    18   15   17 ar 
    19   16   20 ar 
    20   17   18 ar 
    21   18   19 ar 
    22   19   20 ar 
    23   20   21 1  
    24   21   22 2  
    25   21   25 1  
    26   22   23 1  
    27   23   24 2  
    28   24   25 1  
    29    1   26 1  
    30    4   27 1  
    31    5   28 1  
    32    6   29 1  
    33    8   30 1  
    34   13   31 1  
    35   13   32 1  
    36   18   33 1  
    37   19   34 1  
    38   22   35 1  
    39   23   36 1  
    40   24   37 1  
@<TRIPOS>SUBSTRUCTURE
     1 DZ9         1

