### 
### Created by X-TOOL on Mon Sep 10 21:13:00 2018
### 

@<TRIPOS>MOLECULE
3hfv_ligand
   24    24     1     0     0
SMALL
GAST_HUCK


@<TRIPOS>ATOM
      1 N           5.0510   18.9500   13.1590 N.4       1 MTY         0.2341
      2 CA          4.7980   19.2920   11.7310 C.3       1 MTY         0.0376
      3 CB          3.5820   18.5390   11.2100 C.3       1 MTY         0.0336
      4 CG          3.7320   17.0590   11.3980 C.ar      1 MTY        -0.0449
      5 CD1         4.3090   16.3090   10.3800 C.ar      1 MTY        -0.0711
      6 CE1         4.4680   14.9300   10.5050 C.ar      1 MTY        -0.0772
      7 CD2         3.3220   16.4120   12.5560 C.ar      1 MTY        -0.0322
      8 CE2         3.4770   15.0270   12.6740 C.ar      1 MTY         0.0809
      9 CZ          4.0500   14.2920   11.6540 C.ar      1 MTY        -0.0403
     10 OH          3.0790   14.3510   13.7870 O.3       1 MTY        -0.3349
     11 C           4.5290   20.7530   11.5860 C.2       1 MTY         0.0866
     12 O           4.2520   21.4720   12.5250 O.co2     1 MTY        -0.5641
     13 OXT         4.5710   21.2960   10.5190 O.co2     1 MTY        -0.5641
     14 H1          5.2308   17.9616   13.2410 H         1 MTY         0.2012
     15 H2          4.2426   19.1913   13.7106 H         1 MTY         0.2012
     16 H3          5.8508   19.4657   13.4914 H         1 MTY         0.2012
     17 H4          5.6817   19.0199   11.1353 H         1 MTY         0.1048
     18 H5          3.4611   18.7529   10.1378 H         1 MTY         0.0498
     19 H6          2.6894   18.8801   11.7549 H         1 MTY         0.0498
     20 H7          4.6406   16.8044    9.4746 H         1 MTY         0.0464
     21 H8          4.9193   14.3602    9.7008 H         1 MTY         0.0572
     22 H9          2.8822   16.9798   13.3679 H         1 MTY         0.0478
     23 H10         4.1704   13.2196   11.7563 H         1 MTY         0.0485
     24 H11         2.7040   14.9622   14.4102 H         1 MTY         0.2479
@<TRIPOS>BOND
     1    1    2 1  
     2    2    3 1  
     3    2   11 1  
     4    3    4 1  
     5    4    5 ar 
     6    4    7 ar 
     7    5    6 ar 
     8    6    9 ar 
     9    7    8 ar 
    10    8    9 ar 
    11    8   10 1  
    12   11   12 ar 
    13   11   13 ar 
    14    1   14 1  
    15    1   15 1  
    16    1   16 1  
    17    2   17 1  
    18    3   18 1  
    19    3   19 1  
    20    5   20 1  
    21    6   21 1  
    22    7   22 1  
    23    9   23 1  
    24   10   24 1  
@<TRIPOS>SUBSTRUCTURE
     1 MTY         1

