### 
### Created by X-TOOL on Mon Sep 10 21:13:02 2018
### 

@<TRIPOS>MOLECULE
3hfz_ligand
   24    24     1     0     0
SMALL
GAST_HUCK


@<TRIPOS>ATOM
      1 N          19.8840   62.7180   19.5950 N.4       1 MTY         0.2341
      2 CA         18.8820   63.5880   18.9670 C.3       1 MTY         0.0376
      3 CB         19.1460   63.6650   17.4630 C.3       1 MTY         0.0336
      4 CG         20.5220   64.2290   17.2220 C.ar      1 MTY        -0.0449
      5 CD1        20.6930   65.5940   17.0880 C.ar      1 MTY        -0.0711
      6 CE1        21.9550   66.1140   16.8680 C.ar      1 MTY        -0.0772
      7 CD2        21.6100   63.3840   17.1400 C.ar      1 MTY        -0.0322
      8 CE2        22.8750   63.9030   16.9140 C.ar      1 MTY         0.0809
      9 CZ         23.0450   65.2730   16.7810 C.ar      1 MTY        -0.0403
     10 OH         23.9480   63.0720   16.8290 O.3       1 MTY        -0.3349
     11 C          17.5060   63.0230   19.2070 C.2       1 MTY         0.0866
     12 O          17.3520   61.8330   19.3230 O.co2     1 MTY        -0.5641
     13 OXT        16.4490   63.8470   19.2920 O.co2     1 MTY        -0.5641
     14 H1         20.8047   63.0957   19.4346 H         1 MTY         0.2012
     15 H2         19.8253   61.7946   19.1950 H         1 MTY         0.2012
     16 H3         19.7101   62.6664   20.5865 H         1 MTY         0.2012
     17 H4         18.9460   64.5959   19.4030 H         1 MTY         0.1048
     18 H5         18.3952   64.3165   16.9920 H         1 MTY         0.0498
     19 H6         19.0817   62.6569   17.0275 H         1 MTY         0.0498
     20 H7         19.8378   66.2567   17.1554 H         1 MTY         0.0464
     21 H8         22.0882   67.1847   16.7637 H         1 MTY         0.0572
     22 H9         21.4752   62.3143   17.2524 H         1 MTY         0.0478
     23 H10        24.0337   65.6827   16.6088 H         1 MTY         0.0485
     24 H11        23.6608   62.1734   16.9410 H         1 MTY         0.2479
@<TRIPOS>BOND
     1    1    2 1  
     2    2    3 1  
     3    2   11 1  
     4    3    4 1  
     5    4    5 ar 
     6    4    7 ar 
     7    5    6 ar 
     8    6    9 ar 
     9    7    8 ar 
    10    8    9 ar 
    11    8   10 1  
    12   11   12 ar 
    13   11   13 ar 
    14    1   14 1  
    15    1   15 1  
    16    1   16 1  
    17    2   17 1  
    18    3   18 1  
    19    3   19 1  
    20    5   20 1  
    21    6   21 1  
    22    7   22 1  
    23    9   23 1  
    24   10   24 1  
@<TRIPOS>SUBSTRUCTURE
     1 MTY         1

