### 
### Created by X-TOOL on Mon Sep 10 21:13:01 2018
### 

@<TRIPOS>MOLECULE
3hhk_ligand
   58    61     1     0     0
SMALL
GAST_HUCK


@<TRIPOS>ATOM
      1 O55        96.4530   44.1150   42.6400 O.2       1 77Z        -0.3943
      2 C51        96.6660   45.2750   42.9630 C.2       1 77Z         0.2040
      3 N54        97.1600   46.2440   42.1350 N.am      1 77Z        -0.2987
      4 C50        96.4120   45.8030   44.3400 C.3       1 77Z         0.1564
      5 O49        95.7730   44.7140   44.9930 O.3       1 77Z        -0.3047
      6 C19        95.5680   45.0060   46.3310 C.ar      1 77Z         0.0849
      7 C18        94.7170   44.1640   47.0100 C.ar      1 77Z        -0.0414
      8 C20        96.1720   46.0650   46.9780 C.ar      1 77Z        -0.0162
      9 C14        95.8820   46.2410   48.3140 C.ar      1 77Z         0.1115
     10 S15        96.6150   47.5830   49.2040 S.o2      1 77Z         0.0367
     11 O21        95.7510   48.7110   48.9280 O.2       1 77Z        -0.1640
     12 O22        98.0110   47.6000   48.8140 O.2       1 77Z        -0.1640
     13 N16        96.5460   47.1320   50.7650 N.2       1 77Z        -0.2481
     14 C13        95.0320   45.4150   49.0120 C.ar      1 77Z         0.0803
     15 C17        94.4450   44.3630   48.3440 C.ar      1 77Z        -0.0440
     16 N12        94.7560   45.6280   50.3680 N.pl3     1 77Z        -0.2583
     17 C11        95.6710   46.2690   51.1690 C.2       1 77Z         0.1230
     18 C9         95.7270   45.8800   52.5910 C.2       1 77Z         0.1288
     19 C8         94.9750   44.7250   53.1330 C.2       1 77Z         0.2142
     20 O24        94.2560   44.0810   52.3800 O.2       1 77Z        -0.4088
     21 C10        96.5260   46.5940   53.3960 C.2       1 77Z         0.1409
     22 O23        97.2660   47.6760   52.9870 O.3       1 77Z        -0.3068
     23 C4         96.6640   46.2720   54.7970 C.ar      1 77Z         0.0665
     24 C5         97.4960   47.0280   55.5950 C.ar      1 77Z        -0.0498
     25 C6         97.6390   46.7210   56.9280 C.ar      1 77Z        -0.0662
     26 C3         95.9720   45.2050   55.3210 C.ar      1 77Z         0.1010
     27 C2         96.1150   44.9000   56.6580 C.ar      1 77Z        -0.0274
     28 C1         96.9470   45.6540   57.4540 C.ar      1 77Z        -0.0658
     29 N7         95.1310   44.4500   54.4810 N.am      1 77Z        -0.2142
     30 C33        94.4010   43.3330   55.0440 C.3       1 77Z         0.0609
     31 C34        93.1600   43.7400   55.8280 C.3       1 77Z        -0.0234
     32 C37        92.1600   44.5840   55.0600 C.3       1 77Z        -0.0443
     33 C44        91.1420   45.1740   56.0060 C.3       1 77Z        -0.0626
     34 C40        91.4220   43.7500   54.0440 C.3       1 77Z        -0.0626
     35 H1         97.3049   47.1710   42.4809 H         1 77Z         0.1815
     36 H2         97.3764   46.0259   41.1834 H         1 77Z         0.1815
     37 H3         95.7551   46.6848   44.3094 H         1 77Z         0.0855
     38 H4         97.3550   46.0654   44.8419 H         1 77Z         0.0855
     39 H5         94.2554   43.3340   46.4875 H         1 77Z         0.0516
     40 H6         96.8481   46.7323   46.4558 H         1 77Z         0.0535
     41 H7         93.7712   43.6943   48.8674 H         1 77Z         0.0514
     42 H8         93.8637   45.3031   50.7670 H         1 77Z         0.2152
     43 H9         97.8701   47.4057   52.3056 H         1 77Z         0.2651
     44 H10        98.0382   47.8656   55.1713 H         1 77Z         0.0657
     45 H11        98.2911   47.3143   57.5588 H         1 77Z         0.0526
     46 H12        95.5709   44.0644   57.0832 H         1 77Z         0.0538
     47 H13        97.0581   45.4055   58.5033 H         1 77Z         0.0645
     48 H14        95.0736   42.7849   55.7201 H         1 77Z         0.0607
     49 H15        94.0899   42.6724   54.2213 H         1 77Z         0.0607
     50 H16        93.4861   44.3146   56.7075 H         1 77Z         0.0294
     51 H17        92.6495   42.8231   56.1576 H         1 77Z         0.0294
     52 H18        92.6971   45.3946   54.5459 H         1 77Z         0.0296
     53 H19        90.4234   45.7830   55.4380 H         1 77Z         0.0232
     54 H20        91.6531   45.8061   56.7470 H         1 77Z         0.0232
     55 H21        90.6077   44.3628   56.5222 H         1 77Z         0.0232
     56 H22        92.1423   43.3071   53.3404 H         1 77Z         0.0232
     57 H23        90.7140   44.3858   53.4922 H         1 77Z         0.0232
     58 H24        90.8713   42.9484   54.5579 H         1 77Z         0.0232
@<TRIPOS>BOND
     1    1    2 2  
     2    2    3 am 
     3    2    4 1  
     4    4    5 1  
     5    5    6 1  
     6    6    7 ar 
     7    6    8 ar 
     8    7   15 ar 
     9    8    9 ar 
    10    9   10 1  
    11    9   14 ar 
    12   10   11 2  
    13   10   12 2  
    14   10   13 1  
    15   13   17 2  
    16   14   15 ar 
    17   14   16 1  
    18   16   17 1  
    19   17   18 1  
    20   18   19 1  
    21   18   21 2  
    22   19   20 2  
    23   19   29 am 
    24   21   22 1  
    25   21   23 1  
    26   23   24 ar 
    27   23   26 ar 
    28   24   25 ar 
    29   25   28 ar 
    30   26   27 ar 
    31   26   29 1  
    32   27   28 ar 
    33   29   30 1  
    34   30   31 1  
    35   31   32 1  
    36   32   33 1  
    37   32   34 1  
    38    3   35 1  
    39    3   36 1  
    40    4   37 1  
    41    4   38 1  
    42    7   39 1  
    43    8   40 1  
    44   15   41 1  
    45   16   42 1  
    46   22   43 1  
    47   24   44 1  
    48   25   45 1  
    49   27   46 1  
    50   28   47 1  
    51   30   48 1  
    52   30   49 1  
    53   31   50 1  
    54   31   51 1  
    55   32   52 1  
    56   33   53 1  
    57   33   54 1  
    58   33   55 1  
    59   34   56 1  
    60   34   57 1  
    61   34   58 1  
@<TRIPOS>SUBSTRUCTURE
     1 77Z         1

