### 
### Created by X-TOOL on Mon Sep 10 21:13:02 2018
### 

@<TRIPOS>MOLECULE
3hhm_ligand
   59    62     1     0     0
SMALL
GAST_HUCK


@<TRIPOS>ATOM
      1 C1         60.7470   60.3390  113.7990 C.3       1 KWT         0.0709
      2 O1         61.7350   59.3080  114.0360 O.3       1 KWT        -0.2877
      3 C9         61.1520   61.3550  112.7000 C.3       1 KWT        -0.0290
      4 C23        59.3110   59.7840  113.6550 C.3       1 KWT         0.0645
      5 C2         62.3490   58.7430  112.8480 C.2       1 KWT         0.2610
      6 O2         63.2390   57.9180  112.9500 O.2       1 KWT        -0.3570
      7 C3         61.8690   59.1740  111.5500 C.2       1 KWT         0.0560
      8 C4         61.3750   60.5450  111.4240 C.2       1 KWT         0.0130
      9 C19        61.8660   58.3110  110.5480 C.2       1 KWT        -0.0749
     10 C5         61.1350   61.0340  110.2040 C.2       1 KWT         0.2322
     11 C6         60.3320   62.2280  110.0380 C.2       1 KWT         0.2395
     12 O5         61.6180   60.4370  109.1200 O.3       1 KWT        -0.2470
     13 O3         59.7080   62.3970  109.0070 O.2       1 KWT        -0.3257
     14 C7         60.3330   63.2000  111.1730 C.3       1 KWT         0.0489
     15 O6         59.0530   62.7640  114.7380 O.3       1 KWT        -0.2748
     16 C11        59.8800   63.4300  113.7390 C.3       1 KWT         0.0796
     17 C21        58.6100   63.3670  116.0330 C.2       1 KWT         0.2308
     18 C8         60.0920   62.4730  112.5090 C.3       1 KWT        -0.0296
     19 C15        59.3230   64.3320  111.0550 C.3       1 KWT        -0.0101
     20 C10        62.4970   62.0020  113.0450 C.3       1 KWT        -0.1037
     21 C12        59.3020   64.8330  113.4350 C.3       1 KWT        -0.0124
     22 C13        59.7200   65.3690  112.0780 C.3       1 KWT         0.0396
     23 C14        61.2030   65.7490  112.0670 C.3       1 KWT        -0.0543
     24 C18        58.9110   66.5310  111.6010 C.2       1 KWT         0.1330
     25 C16        59.0910   65.0690  109.7380 C.3       1 KWT        -0.0331
     26 C17        58.5030   66.4190  110.1480 C.3       1 KWT         0.0231
     27 O4         58.6220   67.4690  112.3190 O.2       1 KWT        -0.3322
     28 O7         57.5710   62.9380  116.5310 O.2       1 KWT        -0.3707
     29 C22        59.3620   64.4410  116.7800 C.3       1 KWT         0.0372
     30 O8         59.2290   58.3810  113.4210 O.3       1 KWT        -0.3815
     31 C24        57.8730   57.9770  113.2090 C.3       1 KWT         0.0365
     32 H1         60.7271   60.9284  114.7276 H         1 KWT         0.0498
     33 H2         58.8288   60.2995  112.8114 H         1 KWT         0.0574
     34 H3         58.7639   60.0079  114.5826 H         1 KWT         0.0574
     35 H4         62.2462   57.3016  110.6976 H         1 KWT         0.0636
     36 H5         61.4833   58.6098  109.5732 H         1 KWT         0.0636
     37 H6         60.8986   60.1694  108.5601 H         1 KWT         0.2998
     38 H7         61.3339   63.6552  111.2038 H         1 KWT         0.0527
     39 H8         60.8742   63.5933  114.1804 H         1 KWT         0.0638
     40 H9         59.1310   61.9501  112.3953 H         1 KWT         0.0190
     41 H10        58.3503   63.9028  111.3370 H         1 KWT         0.0318
     42 H11        63.2563   61.2181  113.1827 H         1 KWT         0.0063
     43 H12        62.3970   62.5828  113.9738 H         1 KWT         0.0063
     44 H13        62.8035   62.6696  112.2263 H         1 KWT         0.0063
     45 H14        59.6520   65.5310  114.2098 H         1 KWT         0.0283
     46 H15        58.2040   64.7730  113.4644 H         1 KWT         0.0283
     47 H16        61.4757   66.1331  111.0730 H         1 KWT         0.0219
     48 H17        61.8107   64.8613  112.2964 H         1 KWT         0.0219
     49 H18        61.3882   66.5257  112.8236 H         1 KWT         0.0219
     50 H19        58.3845   64.5150  109.1025 H         1 KWT         0.0292
     51 H20        60.0394   65.2068  109.1981 H         1 KWT         0.0292
     52 H21        58.9328   67.2368  109.5510 H         1 KWT         0.0487
     53 H22        57.4082   66.4236  110.0418 H         1 KWT         0.0487
     54 H23        58.8148   64.7006  117.6983 H         1 KWT         0.0483
     55 H24        59.4550   65.3336  116.1439 H         1 KWT         0.0483
     56 H25        60.3644   64.0718  117.0425 H         1 KWT         0.0483
     57 H26        57.8372   56.8921  113.0311 H         1 KWT         0.0523
     58 H27        57.4653   58.5056  112.3347 H         1 KWT         0.0523
     59 H28        57.2739   58.2226  114.0982 H         1 KWT         0.0523
@<TRIPOS>BOND
     1    1    2 1  
     2    3    1 1  
     3    1    4 1  
     4    2    5 1  
     5    3    8 1  
     6   18    3 1  
     7    3   20 1  
     8    4   30 1  
     9    5    6 2  
    10    7    5 1  
    11    8    7 1  
    12    7    9 2  
    13    8   10 2  
    14   11   10 1  
    15   10   12 1  
    16   11   13 2  
    17   14   11 1  
    18   18   14 1  
    19   14   19 1  
    20   16   15 1  
    21   15   17 1  
    22   16   18 1  
    23   16   21 1  
    24   17   28 2  
    25   17   29 1  
    26   19   22 1  
    27   19   25 1  
    28   21   22 1  
    29   22   23 1  
    30   22   24 1  
    31   24   26 1  
    32   24   27 2  
    33   25   26 1  
    34   30   31 1  
    35    1   32 1  
    36    4   33 1  
    37    4   34 1  
    38    9   35 1  
    39    9   36 1  
    40   12   37 1  
    41   14   38 1  
    42   16   39 1  
    43   18   40 1  
    44   19   41 1  
    45   20   42 1  
    46   20   43 1  
    47   20   44 1  
    48   21   45 1  
    49   21   46 1  
    50   23   47 1  
    51   23   48 1  
    52   23   49 1  
    53   25   50 1  
    54   25   51 1  
    55   26   52 1  
    56   26   53 1  
    57   29   54 1  
    58   29   55 1  
    59   29   56 1  
    60   31   57 1  
    61   31   58 1  
    62   31   59 1  
@<TRIPOS>SUBSTRUCTURE
     1 KWT         1

