### 
### Created by X-TOOL on Mon Sep 10 21:13:01 2018
### 

@<TRIPOS>MOLECULE
3hhu_ligand
   55    57     1     0     0
SMALL
GAST_HUCK


@<TRIPOS>ATOM
      1 C1          5.2570  -41.5480    1.5280 C.3       1 819        -0.0372
      2 C2          4.8970  -42.0290    0.1190 C.3       1 819         0.0745
      3 O3          4.2350  -40.9710   -0.6260 O.3       1 819        -0.2641
      4 C4          5.1000  -39.9460   -0.9420 C.2       1 819         0.3222
      5 O5          6.3080  -40.0830   -0.7190 O.2       1 819        -0.3774
      6 N6          4.6050  -38.8660   -1.5590 N.am      1 819        -0.2464
      7 C8          3.2030  -38.7750   -1.9970 C.3       1 819         0.0786
      8 C9          2.3090  -38.3160   -0.9170 C.ar      1 819         0.0049
      9 C12         2.7910  -37.6010    0.2000 C.ar      1 819        -0.0324
     10 C13         1.8870  -37.0330    1.1190 C.ar      1 819        -0.0214
     11 C10         0.9230  -38.4590   -1.1060 C.ar      1 819        -0.0324
     12 C11         0.0190  -37.8920   -0.1900 C.ar      1 819        -0.0214
     13 C14         0.4950  -37.1730    0.9270 C.ar      1 819         0.0722
     14 N15        -0.3780  -36.5770    1.7790 N.2       1 819        -0.2168
     15 C16        -0.7360  -37.0400    2.9590 C.2       1 819         0.1918
     16 S17        -0.1510  -38.4890    3.7070 S.2       1 819        -0.1741
     17 N18        -1.6130  -36.1970    3.5000 N.am      1 819        -0.1675
     18 N20        -1.7960  -35.2480    2.7010 N.pl3     1 819        -0.1565
     19 C21        -1.0460  -35.4220    1.5930 C.2       1 819         0.2150
     20 C22        -0.9780  -34.5460    0.4830 C.ar      1 819         0.1091
     21 C23         0.2700  -34.0240    0.0880 C.ar      1 819        -0.0226
     22 C24         0.3970  -33.2730   -1.0950 C.ar      1 819         0.0173
     23 C25         1.7670  -32.6880   -1.5090 C.3       1 819        -0.0072
     24 C27         2.0020  -31.3650   -0.7710 C.3       1 819        -0.0528
     25 C26         2.9060  -33.6820   -1.2260 C.3       1 819        -0.0528
     26 C28        -0.7400  -33.0370   -1.8930 C.ar      1 819         0.1238
     27 O29        -0.6190  -32.3760   -3.0770 O.3       1 819        -0.3129
     28 C31        -1.9950  -33.5330   -1.4950 C.ar      1 819         0.0286
     29 C32        -2.1230  -34.2800   -0.3090 C.ar      1 819         0.1365
     30 O33        -3.3600  -34.6710    0.0980 O.3       1 819        -0.3111
     31 H1          5.7563  -42.3604    2.0763 H         1 819         0.0255
     32 H2          4.3403  -41.2553    2.0609 H         1 819         0.0255
     33 H3          5.9329  -40.6829    1.4586 H         1 819         0.0255
     34 H4          4.2235  -42.8955    0.1933 H         1 819         0.0608
     35 H5          5.8160  -42.3231   -0.4090 H         1 819         0.0608
     36 H6          5.2123  -38.0899   -1.7291 H         1 819         0.1905
     37 H7          2.8717  -39.7689   -2.3323 H         1 819         0.0751
     38 H8          3.1393  -38.0652   -2.8349 H         1 819         0.0751
     39 H9          3.8585  -37.4887    0.3511 H         1 819         0.0645
     40 H10         2.2614  -36.4863    1.9769 H         1 819         0.0747
     41 H11         0.5494  -39.0091   -1.9621 H         1 819         0.0645
     42 H12        -1.0479  -38.0078   -0.3427 H         1 819         0.0747
     43 H13        -2.0516  -36.3027    4.3925 H         1 819         0.2336
     44 H14        -2.4273  -34.4512    2.8666 H         1 819         0.2402
     45 H15         1.1438  -34.2035    0.7039 H         1 819         0.0654
     46 H16         1.7475  -32.4868   -2.5903 H         1 819         0.0457
     47 H17         2.9767  -30.9489   -1.0656 H         1 819         0.0255
     48 H18         1.9927  -31.5438    0.3143 H         1 819         0.0255
     49 H19         1.2053  -30.6529   -1.0322 H         1 819         0.0255
     50 H20         2.7152  -34.6215   -1.7653 H         1 819         0.0255
     51 H21         2.9571  -33.8832   -0.1458 H         1 819         0.0255
     52 H22         3.8603  -33.2523   -1.5645 H         1 819         0.0255
     53 H23        -1.4734  -32.3019   -3.4858 H         1 819         0.2616
     54 H24        -2.8692  -33.3385   -2.1058 H         1 819         0.0537
     55 H25        -3.9022  -33.9042    0.2409 H         1 819         0.2623
@<TRIPOS>BOND
     1    1    2 1  
     2    2    3 1  
     3    3    4 1  
     4    4    5 2  
     5    4    6 am 
     6    6    7 1  
     7    7    8 1  
     8    8    9 ar 
     9    8   11 ar 
    10    9   10 ar 
    11   10   13 ar 
    12   11   12 ar 
    13   12   13 ar 
    14   13   14 1  
    15   14   15 1  
    16   14   19 2  
    17   15   16 2  
    18   15   17 am 
    19   17   18 1  
    20   18   19 1  
    21   19   20 1  
    22   20   21 ar 
    23   20   29 ar 
    24   21   22 ar 
    25   22   23 1  
    26   22   26 ar 
    27   23   24 1  
    28   23   25 1  
    29   26   27 1  
    30   26   28 ar 
    31   28   29 ar 
    32   29   30 1  
    33    1   31 1  
    34    1   32 1  
    35    1   33 1  
    36    2   34 1  
    37    2   35 1  
    38    6   36 1  
    39    7   37 1  
    40    7   38 1  
    41    9   39 1  
    42   10   40 1  
    43   11   41 1  
    44   12   42 1  
    45   17   43 1  
    46   18   44 1  
    47   21   45 1  
    48   23   46 1  
    49   24   47 1  
    50   24   48 1  
    51   24   49 1  
    52   25   50 1  
    53   25   51 1  
    54   25   52 1  
    55   27   53 1  
    56   28   54 1  
    57   30   55 1  
@<TRIPOS>SUBSTRUCTURE
     1 819         1

