### 
### Created by X-TOOL on Mon Sep 10 21:12:59 2018
### 

@<TRIPOS>MOLECULE
3hig_ligand
   38    39     1     0     0
SMALL
GAST_HUCK


@<TRIPOS>ATOM
      1 C1        -29.1450  -11.3280   77.5840 C.ar      1 BRN         0.0504
      2 C2        -30.1170  -10.4880   77.0350 C.ar      1 BRN        -0.0436
      3 C3        -30.7170   -9.5070   77.8210 C.ar      1 BRN        -0.0570
      4 C4        -30.4400   -9.4270   79.1830 C.ar      1 BRN         0.0241
      5 C5        -29.4720  -10.2650   79.7430 C.ar      1 BRN        -0.0570
      6 C6        -28.8270  -11.2070   78.9410 C.ar      1 BRN        -0.0436
      7 C7        -31.1530   -8.4080   80.0180 C.cat     1 BRN         0.2346
      8 NA        -32.3130   -8.0370   79.7110 N.pl3     1 BRN        -0.2723
      9 NB        -30.5470   -7.8040   81.0280 N.pl3     1 BRN        -0.2723
     10 N1        -28.4990  -12.2580   76.8390 N.2       1 BRN        -0.1832
     11 N         -28.8090  -12.5200   75.5710 N.2       1 BRN        -0.0589
     12 N1'       -28.1610  -13.3860   74.9300 N.pl3     1 BRN        -0.1720
     13 C1'       -28.4730  -13.6650   73.5900 C.ar      1 BRN         0.0877
     14 C2'       -29.8160  -13.6940   73.2480 C.ar      1 BRN        -0.0346
     15 C3'       -30.2050  -13.9800   71.9550 C.ar      1 BRN        -0.0650
     16 C4'       -29.2720  -14.2330   70.9610 C.ar      1 BRN         0.0150
     17 C5'       -27.9180  -14.2090   71.2870 C.ar      1 BRN        -0.0650
     18 C6'       -27.5230  -13.9350   72.6050 C.ar      1 BRN        -0.0346
     19 C7'       -29.8050  -14.5440   69.5940 C.cat     1 BRN         0.2297
     20 NA'       -30.9020  -15.1790   69.5270 N.pl3     1 BRN        -0.2733
     21 NB'       -29.1250  -14.2530   68.4860 N.pl3     1 BRN        -0.2733
     22 H1        -30.4047  -10.5998   75.9959 H         1 BRN         0.0615
     23 H2        -31.4043   -8.8010   77.3691 H         1 BRN         0.0613
     24 H3        -29.2236  -10.1836   80.7950 H         1 BRN         0.0613
     25 H4        -28.0712  -11.8522   79.3741 H         1 BRN         0.0615
     26 H5        -32.7992   -7.3361   80.2882 H         1 BRN         0.3181
     27 H6        -32.7781   -8.4337   78.8820 H         1 BRN         0.3181
     28 H7        -29.5955   -8.0878   81.3017 H         1 BRN         0.3181
     29 H8        -31.0270   -7.0502   81.5402 H         1 BRN         0.3181
     30 H9        -27.3943  -13.8954   75.3922 H         1 BRN         0.2473
     31 H10       -30.5672  -13.4903   74.0025 H         1 BRN         0.0547
     32 H11       -31.2610  -14.0074   71.7117 H         1 BRN         0.0590
     33 H12       -27.1718  -14.4014   70.5247 H         1 BRN         0.0590
     34 H13       -26.4695  -13.9331   72.8603 H         1 BRN         0.0547
     35 H14       -31.3056  -15.4143   68.6091 H         1 BRN         0.3180
     36 H15       -31.3886  -15.4590   70.3906 H         1 BRN         0.3180
     37 H16       -28.2355  -13.7374   68.5481 H         1 BRN         0.3180
     38 H17       -29.4888  -14.5436   67.5672 H         1 BRN         0.3180
@<TRIPOS>BOND
     1    1    2 ar 
     2    1    6 ar 
     3    1   10 1  
     4    2    3 ar 
     5    3    4 ar 
     6    4    5 ar 
     7    4    7 1  
     8    5    6 ar 
     9    7    8 ar 
    10    7    9 ar 
    11   10   11 2  
    12   11   12 1  
    13   12   13 1  
    14   13   14 ar 
    15   13   18 ar 
    16   14   15 ar 
    17   15   16 ar 
    18   16   17 ar 
    19   16   19 1  
    20   17   18 ar 
    21   19   20 ar 
    22   19   21 ar 
    23    2   22 1  
    24    3   23 1  
    25    5   24 1  
    26    6   25 1  
    27    8   26 1  
    28    8   27 1  
    29    9   28 1  
    30    9   29 1  
    31   12   30 1  
    32   14   31 1  
    33   15   32 1  
    34   17   33 1  
    35   18   34 1  
    36   20   35 1  
    37   20   36 1  
    38   21   37 1  
    39   21   38 1  
@<TRIPOS>SUBSTRUCTURE
     1 BRN         1

