### 
### Created by X-TOOL on Mon Sep 10 21:13:00 2018
### 

@<TRIPOS>MOLECULE
3hii_ligand
   51    52     1     0     0
SMALL
GAST_HUCK


@<TRIPOS>ATOM
      1 C1        -28.3070  -13.4570   73.1330 C.ar      1 PNT         0.0911
      2 C2        -27.3080  -13.6030   72.1840 C.ar      1 PNT        -0.0332
      3 C3        -27.6270  -13.8790   70.8610 C.ar      1 PNT        -0.0654
      4 C4        -28.9540  -14.0140   70.4850 C.ar      1 PNT         0.0145
      5 C5        -29.9570  -13.8850   71.4380 C.ar      1 PNT        -0.0654
      6 C6        -29.6320  -13.6100   72.7570 C.ar      1 PNT        -0.0332
      7 C7        -28.3350  -12.1160   75.2200 C.3       1 PNT         0.0704
      8 C8        -29.6970  -12.3080   75.8240 C.3       1 PNT        -0.0250
      9 C9        -29.3220  -14.3200   69.0770 C.cat     1 PNT         0.2294
     10 C10       -30.7090  -11.4320   75.1000 C.3       1 PNT        -0.0482
     11 C1'       -34.1200   -9.6500   73.9860 C.ar      1 PNT         0.0911
     12 C2'       -35.1620  -10.5300   73.6920 C.ar      1 PNT        -0.0332
     13 C3'       -36.2790  -10.0830   72.9950 C.ar      1 PNT        -0.0654
     14 C4'       -36.3690   -8.7560   72.5940 C.ar      1 PNT         0.0145
     15 C5'       -35.3330   -7.8730   72.8910 C.ar      1 PNT        -0.0654
     16 C6'       -34.2100   -8.3160   73.5820 C.ar      1 PNT        -0.0332
     17 C7'       -31.9200   -9.2880   75.0050 C.3       1 PNT         0.0704
     18 C8'       -30.9000  -10.0920   75.7860 C.3       1 PNT        -0.0250
     19 C9'       -37.5800   -8.2700   71.8560 C.cat     1 PNT         0.2294
     20 O1        -27.9580  -13.2270   74.4360 O.3       1 PNT        -0.3180
     21 O1'       -33.0300  -10.1240   74.6720 O.3       1 PNT        -0.3180
     22 N1        -28.6640  -13.8820   68.0960 N.pl3     1 PNT        -0.2733
     23 N2        -30.3680  -15.1110   68.8550 N.pl3     1 PNT        -0.2733
     24 N1'       -38.0680   -8.9750   70.9310 N.pl3     1 PNT        -0.2733
     25 N2'       -38.1400   -7.1010   72.1840 N.pl3     1 PNT        -0.2733
     26 H1        -26.2692  -13.5010   72.4767 H         1 PNT         0.0542
     27 H2        -26.8397  -13.9886   70.1239 H         1 PNT         0.0588
     28 H3        -30.9955  -13.9997   71.1493 H         1 PNT         0.0588
     29 H4        -30.4177  -13.5142   73.4977 H         1 PNT         0.0542
     30 H5        -27.6007  -11.9826   76.0281 H         1 PNT         0.0614
     31 H6        -28.3485  -11.2180   74.5849 H         1 PNT         0.0614
     32 H7        -29.6676  -12.0294   76.8877 H         1 PNT         0.0291
     33 H8        -29.9933  -13.3631   75.7293 H         1 PNT         0.0291
     34 H9        -31.6755  -11.9564   75.0713 H         1 PNT         0.0267
     35 H10       -30.3560  -11.2572   74.0729 H         1 PNT         0.0267
     36 H11       -35.1006  -11.5651   74.0079 H         1 PNT         0.0542
     37 H12       -37.0827  -10.7726   72.7636 H         1 PNT         0.0588
     38 H13       -35.4024   -6.8362   72.5822 H         1 PNT         0.0588
     39 H14       -33.4048   -7.6260   73.8069 H         1 PNT         0.0542
     40 H15       -31.4581   -8.9067   74.0824 H         1 PNT         0.0614
     41 H16       -32.2679   -8.4430   75.6173 H         1 PNT         0.0614
     42 H17       -29.9432   -9.5500   75.8127 H         1 PNT         0.0291
     43 H18       -31.2608  -10.2499   76.8131 H         1 PNT         0.0291
     44 H19       -28.9527  -14.1176   67.1358 H         1 PNT         0.3180
     45 H20       -27.8373  -13.2883   68.2542 H         1 PNT         0.3180
     46 H21       -30.9149  -15.4762   69.6477 H         1 PNT         0.3180
     47 H22       -30.6311  -15.3583   67.8904 H         1 PNT         0.3180
     48 H23       -38.8999   -8.6486   70.4189 H         1 PNT         0.3180
     49 H24       -37.6346   -9.8772   70.6877 H         1 PNT         0.3180
     50 H25       -37.7359   -6.5307   72.9405 H         1 PNT         0.3180
     51 H26       -38.9755   -6.7708   71.6802 H         1 PNT         0.3180
@<TRIPOS>BOND
     1    1    2 ar 
     2    1    6 ar 
     3   20    1 1  
     4    2    3 ar 
     5    3    4 ar 
     6    5    4 ar 
     7    4    9 1  
     8    6    5 ar 
     9    8    7 1  
    10    7   20 1  
    11   10    8 1  
    12    9   22 ar 
    13    9   23 ar 
    14   18   10 1  
    15   11   12 ar 
    16   11   16 ar 
    17   21   11 1  
    18   12   13 ar 
    19   13   14 ar 
    20   15   14 ar 
    21   14   19 1  
    22   16   15 ar 
    23   17   18 1  
    24   17   21 1  
    25   19   24 ar 
    26   19   25 ar 
    27    2   26 1  
    28    3   27 1  
    29    5   28 1  
    30    6   29 1  
    31    7   30 1  
    32    7   31 1  
    33    8   32 1  
    34    8   33 1  
    35   10   34 1  
    36   10   35 1  
    37   12   36 1  
    38   13   37 1  
    39   15   38 1  
    40   16   39 1  
    41   17   40 1  
    42   17   41 1  
    43   18   42 1  
    44   18   43 1  
    45   22   44 1  
    46   22   45 1  
    47   23   46 1  
    48   23   47 1  
    49   24   48 1  
    50   24   49 1  
    51   25   50 1  
    52   25   51 1  
@<TRIPOS>SUBSTRUCTURE
     1 PNT         1

