### 
### Created by X-TOOL on Mon Sep 10 21:12:59 2018
### 

@<TRIPOS>MOLECULE
3hj0_ligand
   35    36     1     0     0
SMALL
GAST_HUCK


@<TRIPOS>ATOM
      1 CAE        -0.5720   -0.6270   -0.3170 C.2       1 A93         0.1267
      2 OAE         0.4340   -0.2830    0.2950 O.2       1 A93        -0.3619
      3 CAQ        -1.0610    0.1990   -1.4830 C.ar      1 A93         0.0292
      4 CAI        -1.9230    1.2100   -1.0880 C.ar      1 A93        -0.0448
      5 CAH        -2.4660    2.0610   -2.0210 C.ar      1 A93        -0.0571
      6 CAJ        -2.1330    1.9090   -3.3580 C.ar      1 A93        -0.0523
      7 CAR        -1.2750    0.9120   -3.7990 C.ar      1 A93        -0.0237
      8 CAM        -0.7170    0.0420   -2.8510 C.ar      1 A93        -0.0379
      9 CAF        -1.0450    0.9010   -5.2840 C.2       1 A93        -0.0588
     10 CAG        -0.4260   -0.0550   -5.9790 C.2       1 A93        -0.0646
     11 CAS        -0.2840   -0.0130   -7.4720 C.ar      1 A93        -0.0472
     12 CAL         0.1110   -1.1630   -8.1650 C.ar      1 A93        -0.0663
     13 CAO         0.2300   -1.1780   -9.5660 C.ar      1 A93        -0.0197
     14 CAB         0.6480   -2.4220  -10.3170 C.3       1 A93        -0.0339
     15 CAP        -0.0360    0.0050  -10.2590 C.ar      1 A93         0.0946
     16 OAD         0.0700    0.0250  -11.6290 O.3       1 A93        -0.3377
     17 CAN        -0.4130    1.1760   -9.5980 C.ar      1 A93        -0.0197
     18 CAA        -0.7140    2.4340  -10.3870 C.3       1 A93        -0.0339
     19 CAK        -0.5320    1.1540   -8.2000 C.ar      1 A93        -0.0663
     20 H1         -1.1110   -1.5256   -0.0203 H         1 A93         0.1340
     21 H2         -2.1699    1.3300   -0.0393 H         1 A93         0.0658
     22 H3         -3.1491    2.8446   -1.7137 H         1 A93         0.0626
     23 H4         -2.5577    2.5928   -4.0840 H         1 A93         0.0647
     24 H5         -0.0322   -0.7398   -3.1590 H         1 A93         0.0668
     25 H6         -1.4193    1.7549   -5.8467 H         1 A93         0.0572
     26 H7         -0.0057   -0.9023   -5.4393 H         1 A93         0.0610
     27 H8          0.3310   -2.0659   -7.6070 H         1 A93         0.0487
     28 H9          0.8110   -3.2434   -9.6038 H         1 A93         0.0367
     29 H10         1.5800   -2.2230  -10.8662 H         1 A93         0.0367
     30 H11        -0.1429   -2.7047  -11.0273 H         1 A93         0.0367
     31 H12        -0.1408    0.8942  -11.9492 H         1 A93         0.2452
     32 H13        -0.9908    3.2432   -9.6952 H         1 A93         0.0367
     33 H14        -1.5472    2.2422  -11.0791 H         1 A93         0.0367
     34 H15         0.1775    2.7299  -10.9594 H         1 A93         0.0367
     35 H16        -0.8212    2.0576   -7.6757 H         1 A93         0.0487
@<TRIPOS>BOND
     1    1    2 2  
     2    1    3 1  
     3    3    4 ar 
     4    3    8 ar 
     5    4    5 ar 
     6    5    6 ar 
     7    6    7 ar 
     8    7    8 ar 
     9    7    9 1  
    10    9   10 2  
    11   10   11 1  
    12   11   12 ar 
    13   11   19 ar 
    14   12   13 ar 
    15   13   14 1  
    16   13   15 ar 
    17   15   16 1  
    18   15   17 ar 
    19   17   18 1  
    20   17   19 ar 
    21    1   20 1  
    22    4   21 1  
    23    5   22 1  
    24    6   23 1  
    25    8   24 1  
    26    9   25 1  
    27   10   26 1  
    28   12   27 1  
    29   14   28 1  
    30   14   29 1  
    31   14   30 1  
    32   16   31 1  
    33   18   32 1  
    34   18   33 1  
    35   18   34 1  
    36   19   35 1  
@<TRIPOS>SUBSTRUCTURE
     1 A93         1

