### 
### Created by X-TOOL on Mon Sep 10 21:12:59 2018
### 

@<TRIPOS>MOLECULE
3hjo_ligand
   30    30     1     0     0
SMALL
GAST_HUCK


@<TRIPOS>ATOM
      1 C1          8.7300    3.4890   31.5240 C.ar      1 EAA         0.1139
      2 O2          8.3210    3.4020   32.8350 O.3       1 EAA        -0.2994
      3 C2          9.3440    2.3060   30.8770 C.ar      1 EAA         0.0881
      4 CL1         9.5760    0.7520   31.7470 Cl        1 EAA        -0.0767
      5 C3          9.7780    2.4150   29.4690 C.ar      1 EAA         0.0650
      6 CL2        10.5200    0.9610   28.7560 Cl        1 EAA        -0.0667
      7 C4          9.5920    3.6940   28.7250 C.ar      1 EAA         0.0377
      8 C5          8.9980    4.7460   29.4300 C.ar      1 EAA        -0.0512
      9 C6          8.5810    4.6550   30.7690 C.ar      1 EAA        -0.0258
     10 C7          9.9990    3.9080   27.2730 C.2       1 EAA         0.1527
     11 O1          9.5400    4.8630   26.6660 O.2       1 EAA        -0.3720
     12 C8         10.9280    3.0550   26.5200 C.2       1 EAA         0.0058
     13 C9         11.0190    3.1740   25.0050 C.3       1 EAA        -0.0152
     14 C10        12.1810    2.3660   24.4430 C.3       1 EAA        -0.0548
     15 C11        11.7120    2.1930   27.1420 C.2       1 EAA        -0.0907
     16 C12         8.3060    4.5530   33.6850 C.3       1 EAA         0.1241
     17 C13         6.8900    4.9940   33.9570 C.2       1 EAA         0.0656
     18 O           6.0190    4.8080   33.0780 O.co2     1 EAA        -0.5662
     19 OXT         6.6390    5.5310   35.0560 O.co2     1 EAA        -0.5662
     20 H1          8.8506    5.6872   28.9129 H         1 EAA         0.0644
     21 H2          8.1265    5.5225   31.2336 H         1 EAA         0.0559
     22 H3         11.1594    4.2320   24.7387 H         1 EAA         0.0432
     23 H4         10.0820    2.8056   24.5620 H         1 EAA         0.0432
     24 H5         12.2110    2.4789   23.3492 H         1 EAA         0.0253
     25 H6         12.0470    1.3045   24.6985 H         1 EAA         0.0253
     26 H7         13.1244    2.7310   24.8752 H         1 EAA         0.0253
     27 H8         11.6610    2.0940   28.2253 H         1 EAA         0.0460
     28 H9         12.4094    1.5813   26.5715 H         1 EAA         0.0460
     29 H10         8.8516    5.3722   33.1938 H         1 EAA         0.0788
     30 H11         8.7966    4.3051   34.6378 H         1 EAA         0.0788
@<TRIPOS>BOND
     1    1    2 1  
     2    1    3 ar 
     3    1    9 ar 
     4    2   16 1  
     5    3    4 1  
     6    3    5 ar 
     7    5    6 1  
     8    5    7 ar 
     9    7    8 ar 
    10    7   10 1  
    11    8    9 ar 
    12   10   11 2  
    13   10   12 1  
    14   12   13 1  
    15   12   15 2  
    16   13   14 1  
    17   16   17 1  
    18   17   18 ar 
    19   17   19 ar 
    20    8   20 1  
    21    9   21 1  
    22   13   22 1  
    23   13   23 1  
    24   14   24 1  
    25   14   25 1  
    26   14   26 1  
    27   15   27 1  
    28   15   28 1  
    29   16   29 1  
    30   16   30 1  
@<TRIPOS>SUBSTRUCTURE
     1 EAA         1

