### 
### Created by X-TOOL on Mon Sep 10 21:13:00 2018
### 

@<TRIPOS>MOLECULE
3hk1_ligand
   34    35     1     0     0
SMALL
GAST_HUCK


@<TRIPOS>ATOM
      1 C1         10.2870   19.4680   -2.7600 C.2       1 B64         0.0370
      2 C2         11.5380   18.6230   -2.7280 C.3       1 B64         0.0175
      3 C3         11.9650   18.1150   -4.0930 C.3       1 B64         0.0544
      4 O1         10.3950   20.5690   -2.2000 O.co2     1 B64        -0.5689
      5 O2          9.2250   19.0740   -3.3220 O.co2     1 B64        -0.5689
      6 O7         11.3120   20.2010   -5.3400 O.2       1 B64        -0.3853
      7 N8         12.8070   18.7190   -6.2890 N.am      1 B64        -0.2395
      8 C9         12.9560   19.3520   -7.4870 C.2       1 B64         0.0719
      9 C10        13.9350   18.7420   -8.3870 C.2       1 B64         0.1135
     10 S11        13.9610   19.6590   -9.8820 S.3       1 B64        -0.0474
     11 C12        12.6220   20.6750   -9.3110 C.2       1 B64         0.0426
     12 C13        12.1850   20.4130   -8.0030 C.2       1 B64        -0.0306
     13 C14        14.8620   17.6370   -8.1270 C.2       1 B64         0.2387
     14 O15        15.7540   17.2440   -9.1790 O.3       1 B64        -0.2888
     15 C16        16.6570   16.1790   -8.8820 C.3       1 B64         0.0631
     16 O17        14.9240   17.1030   -7.0200 O.2       1 B64        -0.3843
     17 C18        12.1090   21.7390  -10.2140 C.2       1 B64         0.0474
     18 C19        11.1580   22.7110   -9.9010 C.2       1 B64        -0.0647
     19 C20        10.9470   23.5530  -11.0240 C.2       1 B64        -0.0711
     20 C21        11.7010   23.2960  -12.1910 C.2       1 B64        -0.0036
     21 S22        12.6660   21.8290  -11.8870 S.3       1 B64        -0.0369
     22 CS1        12.0340   19.1870   -5.2510 C.2       1 B64         0.2037
     23 H1         11.3551   17.7560   -2.0762 H         1 B64         0.0455
     24 H2         12.3560   19.2289   -2.3113 H         1 B64         0.0455
     25 H3         11.2502   17.3371   -4.3993 H         1 B64         0.0525
     26 H4         12.9662   17.6719   -3.9871 H         1 B64         0.0525
     27 H5         13.2928   17.8552   -6.1552 H         1 B64         0.2238
     28 H6         11.3885   20.9384   -7.4781 H         1 B64         0.0418
     29 H7         17.2831   15.9728   -9.7626 H         1 B64         0.0573
     30 H8         16.0858   15.2765   -8.6189 H         1 B64         0.0573
     31 H9         17.2980   16.4670   -8.0357 H         1 B64         0.0573
     32 H10        10.6540   22.8087   -8.9406 H         1 B64         0.0463
     33 H11        10.2279   24.3700  -10.9874 H         1 B64         0.0435
     34 H12        11.6938   23.8853  -13.1067 H         1 B64         0.0765
@<TRIPOS>BOND
     1    2    1 1  
     2    1    4 ar 
     3    1    5 ar 
     4    3    2 1  
     5   22    3 1  
     6   22    6 2  
     7    7    8 1  
     8    7   22 am 
     9    8    9 2  
    10    8   12 1  
    11    9   10 1  
    12    9   13 1  
    13   10   11 1  
    14   11   12 2  
    15   11   17 1  
    16   13   14 1  
    17   13   16 2  
    18   14   15 1  
    19   17   18 2  
    20   17   21 1  
    21   18   19 1  
    22   19   20 2  
    23   20   21 1  
    24    2   23 1  
    25    2   24 1  
    26    3   25 1  
    27    3   26 1  
    28    7   27 1  
    29   12   28 1  
    30   15   29 1  
    31   15   30 1  
    32   15   31 1  
    33   18   32 1  
    34   19   33 1  
    35   20   34 1  
@<TRIPOS>SUBSTRUCTURE
     1 B64         1

