### 
### Created by X-TOOL on Mon Sep 10 21:13:00 2018
### 

@<TRIPOS>MOLECULE
3hkn_ligand
   84    85     1     0     0
SMALL
GAST_HUCK


@<TRIPOS>ATOM
      1 C2         16.1140    4.1460   13.8670 C.3       1 MFS         0.1681
      2 C3         16.7560    5.2000   12.9790 C.3       1 MFS         0.1507
      3 O4         16.8800    7.6600   12.8930 O.3       1 MFS        -0.3394
      4 C7         18.2170    8.1770   12.9870 C.3       1 MFS         0.1936
      5 C8         18.5910    8.8240   11.6630 C.3       1 MFS         0.1712
      6 C9         20.0350    9.2900   11.7170 C.3       1 MFS         0.1556
      7 C10        20.1830   10.2950   12.8430 C.3       1 MFS         0.1495
      8 C11        19.6660    9.6260   14.1030 C.3       1 MFS         0.1227
      9 C12        19.8580   10.5680   15.2820 C.3       1 MFS         0.1059
     10 C13        18.4550    2.7420   13.1300 C.3       1 MFS         0.0372
     11 C14        17.0580    2.1950   12.8370 C.2       1 MFS         0.2311
     12 C16        16.9900    4.9010   10.7230 C.2       1 MFS         0.2310
     13 C5         17.3260    6.3910   15.0350 C.3       1 MFS         0.1178
     14 C6         17.1910    7.6790   15.8260 C.3       1 MFS         0.1055
     15 C22        20.1780    6.5920   11.9110 C.3       1 MFS         0.0372
     16 C23        19.3000    6.8340   10.6800 C.2       1 MFS         0.2311
     17 O24        19.3660    6.0600    9.7260 O.2       1 MFS        -0.3707
     18 O8         18.4810    7.9120   10.5640 O.3       1 MFS        -0.2655
     19 O9         20.4680    9.8620   10.4740 O.3       1 MFS        -0.2675
     20 C25        21.8170    9.7510   10.3300 C.2       1 MFS         0.2310
     21 C26        22.6600    9.0310   11.3850 C.3       1 MFS         0.0372
     22 O27        22.3660   10.2140    9.3310 O.2       1 MFS        -0.3707
     23 O10        19.4250   11.4810   12.5680 O.3       1 MFS        -0.2679
     24 C29        20.2800   12.5030   12.0340 C.2       1 MFS         0.2310
     25 C28        20.4480   13.8280   12.7820 C.3       1 MFS         0.0372
     26 O30        20.9790   12.2980   10.8040 O.2       1 MFS        -0.3707
     27 O12        20.4520   11.8090   14.8700 O.3       1 MFS        -0.2743
     28 C31        21.7840   11.8660   15.1530 C.2       1 MFS         0.2307
     29 C32        22.4490   10.7100   15.8870 C.3       1 MFS         0.0372
     30 O33        22.4480   12.8540   14.8390 O.2       1 MFS        -0.3707
     31 O11        18.2890    9.2550   13.9330 O.3       1 MFS        -0.3394
     32 C4         16.5870    6.5170   13.7150 C.3       1 MFS         0.1238
     33 O3         16.1230    5.2930   11.6960 O.3       1 MFS        -0.2679
     34 C17        18.3310    4.2610   11.0840 C.3       1 MFS         0.0372
     35 O18        16.6690    5.0160    9.5420 O.2       1 MFS        -0.3707
     36 O2         15.9400    2.8770   13.2130 O.3       1 MFS        -0.2662
     37 O15        16.9380    1.1150   12.2610 O.2       1 MFS        -0.3707
     38 C1         16.7910    4.0310   15.2240 C.3       1 MFS         0.2268
     39 SAI        15.8970    2.8870   16.3430 S.o2      1 MFS         0.0667
     40 OAM        16.3410    3.1340   17.7550 O.2       1 MFS        -0.1530
     41 OAE        14.4190    3.1270   16.2540 O.2       1 MFS        -0.1530
     42 NAJ        16.2250    1.3400   15.9480 N.am      1 MFS        -0.2629
     43 O5         16.7730    5.3320   15.8320 O.3       1 MFS        -0.3423
     44 O6         16.0530    8.3940   15.3250 O.3       1 MFS        -0.2744
     45 C19        14.8540    7.9220   15.7630 C.2       1 MFS         0.2307
     46 C20        14.7630    6.7640   16.7600 C.3       1 MFS         0.0372
     47 O21        13.8310    8.4670   15.3540 O.2       1 MFS        -0.3707
     48 H1         15.0975    4.5123   14.0729 H         1 MFS         0.0725
     49 H2         17.8228    4.9709   12.8394 H         1 MFS         0.0708
     50 H3         18.9159    7.3704   13.2532 H         1 MFS         0.0942
     51 H4         17.9278    9.6841   11.4886 H         1 MFS         0.0732
     52 H5         20.6728    8.4202   11.9330 H         1 MFS         0.0712
     53 H6         21.2425   10.5632   12.9675 H         1 MFS         0.0708
     54 H7         20.2505    8.7125   14.2868 H         1 MFS         0.0654
     55 H8         20.5135   10.0859   16.0222 H         1 MFS         0.0640
     56 H9         18.8787   10.7742   15.7385 H         1 MFS         0.0640
     57 H10        19.2111    2.0417   12.7454 H         1 MFS         0.0483
     58 H11        18.5826    2.8590   14.2163 H         1 MFS         0.0483
     59 H12        18.5767    3.7188   12.6392 H         1 MFS         0.0483
     60 H13        18.3882    6.1860   14.8355 H         1 MFS         0.0650
     61 H14        18.0981    8.2889   15.7026 H         1 MFS         0.0640
     62 H15        17.0464    7.4483   16.8918 H         1 MFS         0.0640
     63 H16        20.7496    5.6618   11.7765 H         1 MFS         0.0483
     64 H17        19.5416    6.5054   12.8040 H         1 MFS         0.0483
     65 H18        20.8736    7.4348   12.0367 H         1 MFS         0.0483
     66 H19        23.7180    9.0504   11.0847 H         1 MFS         0.0483
     67 H20        22.3232    7.9876   11.4739 H         1 MFS         0.0483
     68 H21        22.5448    9.5375   12.3546 H         1 MFS         0.0483
     69 H22        21.1357   14.4798   12.2233 H         1 MFS         0.0483
     70 H23        20.8592   13.6341   13.7837 H         1 MFS         0.0483
     71 H24        19.4699   14.3223   12.8765 H         1 MFS         0.0483
     72 H25        23.5176   10.9305   16.0266 H         1 MFS         0.0483
     73 H26        22.3389    9.7887   15.2962 H         1 MFS         0.0483
     74 H27        21.9712   10.5755   16.8686 H         1 MFS         0.0483
     75 H28        15.5208    6.6122   13.9685 H         1 MFS         0.0655
     76 H29        18.8810    4.0178   10.1629 H         1 MFS         0.0483
     77 H30        18.1548    3.3404   11.6597 H         1 MFS         0.0483
     78 H31        18.9220    4.9644   11.6890 H         1 MFS         0.0483
     79 H32        17.8259    3.6830   15.0909 H         1 MFS         0.0893
     80 H33        15.8111    0.5927   16.4678 H         1 MFS         0.1632
     81 H34        16.8402    1.1382   15.1858 H         1 MFS         0.1632
     82 H35        13.7062    6.5474   16.9748 H         1 MFS         0.0483
     83 H36        15.2772    7.0413   17.6920 H         1 MFS         0.0483
     84 H37        15.2401    5.8712   16.3296 H         1 MFS         0.0483
@<TRIPOS>BOND
     1    2    1 1  
     2    1   36 1  
     3    1   38 1  
     4   32    2 1  
     5    2   33 1  
     6    4    3 1  
     7    3   32 1  
     8    5    4 1  
     9    4   31 1  
    10    5    6 1  
    11   18    5 1  
    12    6    7 1  
    13    6   19 1  
    14    7    8 1  
    15    7   23 1  
    16    8    9 1  
    17   31    8 1  
    18    9   27 1  
    19   11   10 1  
    20   36   11 1  
    21   11   37 2  
    22   33   12 1  
    23   12   34 1  
    24   12   35 2  
    25   13   14 1  
    26   32   13 1  
    27   13   43 1  
    28   14   44 1  
    29   16   15 1  
    30   16   17 2  
    31   16   18 1  
    32   19   20 1  
    33   20   21 1  
    34   20   22 2  
    35   23   24 1  
    36   24   25 1  
    37   24   26 2  
    38   27   28 1  
    39   28   29 1  
    40   28   30 2  
    41   38   39 1  
    42   38   43 1  
    43   39   40 2  
    44   39   41 2  
    45   39   42 am 
    46   44   45 1  
    47   45   46 1  
    48   45   47 2  
    49    1   48 1  
    50    2   49 1  
    51    4   50 1  
    52    5   51 1  
    53    6   52 1  
    54    7   53 1  
    55    8   54 1  
    56    9   55 1  
    57    9   56 1  
    58   10   57 1  
    59   10   58 1  
    60   10   59 1  
    61   13   60 1  
    62   14   61 1  
    63   14   62 1  
    64   15   63 1  
    65   15   64 1  
    66   15   65 1  
    67   21   66 1  
    68   21   67 1  
    69   21   68 1  
    70   25   69 1  
    71   25   70 1  
    72   25   71 1  
    73   29   72 1  
    74   29   73 1  
    75   29   74 1  
    76   32   75 1  
    77   34   76 1  
    78   34   77 1  
    79   34   78 1  
    80   38   79 1  
    81   42   80 1  
    82   42   81 1  
    83   46   82 1  
    84   46   83 1  
    85   46   84 1  
@<TRIPOS>SUBSTRUCTURE
     1 MFS         1

