### 
### Created by X-TOOL on Mon Sep 10 21:13:00 2018
### 

@<TRIPOS>MOLECULE
3hkq_ligand
   28    28     1     0     0
SMALL
GAST_HUCK


@<TRIPOS>ATOM
      1 O2         17.0460    2.1500   13.8140 O.3       1 1SD        -0.3848
      2 C2         16.5600    3.4770   14.0360 C.3       1 1SD         0.1313
      3 C3         17.2540    4.4430   13.0750 C.3       1 1SD         0.1134
      4 O3         16.8650    4.1410   11.7320 O.3       1 1SD        -0.3864
      5 C4         16.8400    5.8770   13.4070 C.3       1 1SD         0.1118
      6 O4         15.4430    6.0370   13.1470 O.3       1 1SD        -0.3865
      7 C5         17.1130    6.1610   14.8850 C.3       1 1SD         0.1124
      8 C6         16.6930    7.5940   15.2180 C.3       1 1SD         0.0730
      9 O6         15.2970    7.7540   14.9570 O.3       1 1SD        -0.3924
     10 O5         16.3620    5.2370   15.6880 O.3       1 1SD        -0.3430
     11 C1         16.8230    3.8910   15.4860 C.3       1 1SD         0.2217
     12 SAI        15.9190    2.7790   16.6260 S.o2      1 1SD         0.0664
     13 OAM        16.3670    3.0430   18.0330 O.2       1 1SD        -0.1530
     14 OAE        14.4450    3.0350   16.5230 O.2       1 1SD        -0.1530
     15 NAJ        16.2440    1.2300   16.2370 N.am      1 1SD        -0.2629
     16 H1         16.8622    1.8924   12.9182 H         1 1SD         0.2101
     17 H2         15.4764    3.5003   13.8482 H         1 1SD         0.0664
     18 H3         18.3447    4.3413   13.1750 H         1 1SD         0.0647
     19 H4         17.1178    3.2494   11.5232 H         1 1SD         0.2100
     20 H5         17.4144    6.5793   12.7850 H         1 1SD         0.0647
     21 H6         15.1837    6.9275   13.3527 H         1 1SD         0.2100
     22 H7         18.1865    6.0377   15.0908 H         1 1SD         0.0646
     23 H8         17.2653    8.2978   14.5959 H         1 1SD         0.0584
     24 H9         16.8930    7.7973   16.2804 H         1 1SD         0.0584
     25 H10        15.1254    7.5782   14.0393 H         1 1SD         0.2095
     26 H11        17.9017    3.8337   15.6937 H         1 1SD         0.0889
     27 H12        15.8304    0.4855   16.7611 H         1 1SD         0.1632
     28 H13        16.8570    1.0241   15.4742 H         1 1SD         0.1632
@<TRIPOS>BOND
     1    1    2 1  
     2    2    3 1  
     3    2   11 1  
     4    3    4 1  
     5    3    5 1  
     6    5    6 1  
     7    5    7 1  
     8    7    8 1  
     9    7   10 1  
    10    8    9 1  
    11   10   11 1  
    12   11   12 1  
    13   12   13 2  
    14   12   14 2  
    15   12   15 am 
    16    1   16 1  
    17    2   17 1  
    18    3   18 1  
    19    4   19 1  
    20    5   20 1  
    21    6   21 1  
    22    7   22 1  
    23    8   23 1  
    24    8   24 1  
    25    9   25 1  
    26   11   26 1  
    27   15   27 1  
    28   15   28 1  
@<TRIPOS>SUBSTRUCTURE
     1 1SD         1

