### 
### Created by X-TOOL on Mon Sep 10 21:12:59 2018
### 

@<TRIPOS>MOLECULE
3hkt_ligand
   49    50     1     0     0
SMALL
GAST_HUCK


@<TRIPOS>ATOM
      1 O8         18.6160    6.2680    9.9040 O.3       1 2SD        -0.3841
      2 C8         17.5860    7.2550    9.8730 C.3       1 2SD         0.1341
      3 C9         18.0340    8.5950   10.5410 C.3       1 2SD         0.1141
      4 O9         18.9690    9.3230    9.7020 O.3       1 2SD        -0.3864
      5 C10        16.8300    9.4860   11.0430 C.3       1 2SD         0.1119
      6 O10        16.5730   10.6290   10.2200 O.3       1 2SD        -0.3865
      7 C11        15.5080    8.6570   11.3410 C.3       1 2SD         0.1130
      8 C12        14.2380    9.4370   11.5920 C.3       1 2SD         0.0730
      9 O12        14.0850   10.4020   10.5420 O.3       1 2SD        -0.3924
     10 O11        15.2840    7.5610   10.3750 O.3       1 2SD        -0.3405
     11 C7         16.3850    6.6540   10.5810 C.3       1 2SD         0.1884
     12 O4         16.5590    6.6710   12.0260 O.3       1 2SD        -0.3401
     13 C4         17.1300    5.6170   12.8940 C.3       1 2SD         0.1184
     14 C3         16.9410    4.1370   12.5070 C.3       1 2SD         0.1138
     15 O3         16.2950    3.9570   11.2230 O.3       1 2SD        -0.3864
     16 C2         16.3460    3.2370   13.6160 C.3       1 2SD         0.1313
     17 O2         16.9750    1.9390   13.4230 O.3       1 2SD        -0.3848
     18 C1         16.6390    3.7160   15.0910 C.3       1 2SD         0.2217
     19 SAI        15.6470    2.8520   16.3560 S.o2      1 2SD         0.0664
     20 OAM        16.1970    3.2110   17.7180 O.2       1 2SD        -0.1530
     21 OAE        14.1850    3.2210   16.2350 O.2       1 2SD        -0.1530
     22 NAJ        15.8320    1.2220   16.0780 N.am      1 2SD        -0.2629
     23 O5         16.5320    5.1280   15.3730 O.3       1 2SD        -0.3430
     24 C5         16.7720    6.0940   14.3390 C.3       1 2SD         0.1128
     25 C6         15.4640    6.8500   14.2580 C.3       1 2SD         0.0730
     26 O6         15.3950    7.7350   15.3230 O.3       1 2SD        -0.3924
     27 H1         18.8507    6.0851   10.8062 H         1 2SD         0.2101
     28 H2         17.3211    7.4658    8.8264 H         1 2SD         0.0671
     29 H3         18.5921    8.3114   11.4455 H         1 2SD         0.0648
     30 H4         19.2204   10.1297   10.1361 H         1 2SD         0.2100
     31 H5         17.1527    9.8884   12.0146 H         1 2SD         0.0647
     32 H6         15.8407   11.1172   10.5777 H         1 2SD         0.2100
     33 H7         15.7159    8.1591   12.2996 H         1 2SD         0.0647
     34 H8         14.3032    9.9509   12.5624 H         1 2SD         0.0584
     35 H9         13.3765    8.7530   11.5964 H         1 2SD         0.0584
     36 H10        14.8325   10.9883   10.5409 H         1 2SD         0.2095
     37 H11        16.1748    5.6406   10.2085 H         1 2SD         0.0938
     38 H12        18.2204    5.7389   12.8150 H         1 2SD         0.0651
     39 H13        17.9637    3.7580   12.3639 H         1 2SD         0.0647
     40 H14        16.2072    3.0287   11.0413 H         1 2SD         0.2100
     41 H15        15.2569    3.1646   13.4798 H         1 2SD         0.0664
     42 H16        17.9168    2.0286   13.5104 H         1 2SD         0.2101
     43 H17        17.6906    3.4475   15.2699 H         1 2SD         0.0889
     44 H18        15.3672    0.5588   16.6646 H         1 2SD         0.1632
     45 H19        16.4080    0.9055   15.3243 H         1 2SD         0.1632
     46 H20        17.5829    6.7574   14.6741 H         1 2SD         0.0647
     47 H21        14.6236    6.1422   14.3100 H         1 2SD         0.0584
     48 H22        15.4164    7.4068   13.3105 H         1 2SD         0.0584
     49 H23        15.4382    7.2506   16.1391 H         1 2SD         0.2095
@<TRIPOS>BOND
     1    1    2 1  
     2    2    3 1  
     3    2   11 1  
     4    3    4 1  
     5    3    5 1  
     6    5    6 1  
     7    5    7 1  
     8    7    8 1  
     9    7   10 1  
    10    8    9 1  
    11   10   11 1  
    12   11   12 1  
    13   12   13 1  
    14   13   14 1  
    15   13   24 1  
    16   14   15 1  
    17   14   16 1  
    18   16   17 1  
    19   16   18 1  
    20   18   19 1  
    21   18   23 1  
    22   19   20 2  
    23   19   21 2  
    24   19   22 am 
    25   23   24 1  
    26   24   25 1  
    27   25   26 1  
    28    1   27 1  
    29    2   28 1  
    30    3   29 1  
    31    4   30 1  
    32    5   31 1  
    33    6   32 1  
    34    7   33 1  
    35    8   34 1  
    36    8   35 1  
    37    9   36 1  
    38   11   37 1  
    39   13   38 1  
    40   14   39 1  
    41   15   40 1  
    42   16   41 1  
    43   17   42 1  
    44   18   43 1  
    45   22   44 1  
    46   22   45 1  
    47   24   46 1  
    48   25   47 1  
    49   25   48 1  
    50   26   49 1  
@<TRIPOS>SUBSTRUCTURE
     1 2SD         1

