### 
### Created by X-TOOL on Mon Sep 10 21:12:59 2018
### 

@<TRIPOS>MOLECULE
3hku_ligand
   43    45     1     0     0
SMALL
GAST_HUCK


@<TRIPOS>ATOM
      1 CAT        17.1660    7.9240   13.3690 C.3       1 TOR        -0.0107
      2 CAU        16.4080    6.6220   13.6940 C.3       1 TOR         0.1686
      3 CAV        15.2040    6.8900   14.6100 C.3       1 TOR        -0.0107
      4 OAR        17.3610    5.6750   14.3050 O.3       1 TOR        -0.3130
      5 OAQ        15.9650    6.0270   12.4750 O.3       1 TOR        -0.3378
      6 CAK        15.9590    4.5870   12.7530 C.3       1 TOR         0.1466
      7 CAG        16.1250    3.8180   11.4060 C.3       1 TOR         0.1215
      8 OAF        16.0700    2.4320   11.7090 O.3       1 TOR        -0.3406
      9 CAE        16.8590    1.7650   10.7100 C.3       1 TOR         0.1656
     10 CAD        16.0510    1.4790    9.4210 C.3       1 TOR        -0.0108
     11 CAJ        17.4250    0.4790   11.3180 C.3       1 TOR        -0.0108
     12 OAA        17.9560    2.6640   10.4220 O.3       1 TOR        -0.3410
     13 CAB        17.5010    4.0000   10.7580 C.3       1 TOR         0.1140
     14 CAC        18.5360    4.5920   11.7150 C.3       1 TOR         0.0799
     15 OAH        18.3500    4.0350   13.0500 O.3       1 TOR        -0.3418
     16 CAL        17.1570    4.4160   13.7190 C.3       1 TOR         0.2280
     17 CAM        16.9260    3.3700   14.8380 C.3       1 TOR         0.1347
     18 OAN        15.7080    3.5690   15.5330 O.3       1 TOR        -0.2173
     19 SAO        15.3430    2.7600   16.7370 S.o2      1 TOR         0.1598
     20 OAS        16.1920    3.2560   17.8520 O.2       1 TOR        -0.1270
     21 OAI        13.8850    2.9840   16.8950 O.2       1 TOR        -0.1270
     22 NAP        15.7010    1.2370   16.4040 N.am      1 TOR        -0.2415
     23 H1         17.5116    8.3901   14.3035 H         1 TOR         0.0281
     24 H2         16.4949    8.6168   12.8401 H         1 TOR         0.0281
     25 H3         18.0325    7.6945   12.7315 H         1 TOR         0.0281
     26 H4         14.6865    5.9427   14.8219 H         1 TOR         0.0281
     27 H5         14.5106    7.5829   14.1109 H         1 TOR         0.0281
     28 H6         15.5528    7.3361   15.5530 H         1 TOR         0.0281
     29 H7         15.0239    4.2732   13.2398 H         1 TOR         0.0679
     30 H8         15.3296    4.1151   10.7067 H         1 TOR         0.0652
     31 H9         15.2210    0.7953    9.6527 H         1 TOR         0.0281
     32 H10        16.7090    1.0159    8.6709 H         1 TOR         0.0281
     33 H11        15.6488    2.4225    9.0234 H         1 TOR         0.0281
     34 H12        18.0328   -0.0455   10.5660 H         1 TOR         0.0281
     35 H13        16.5970   -0.1706   11.6382 H         1 TOR         0.0281
     36 H14        18.0519    0.7290   12.1866 H         1 TOR         0.0281
     37 H15        17.4162    4.6316    9.8615 H         1 TOR         0.0647
     38 H16        18.4137    5.6844   11.7549 H         1 TOR         0.0588
     39 H17        19.5468    4.3490   11.3556 H         1 TOR         0.0588
     40 H18        17.7557    3.4358   15.5572 H         1 TOR         0.0639
     41 H19        16.9122    2.3678   14.3848 H         1 TOR         0.0639
     42 H20        15.5325    0.5236   17.0842 H         1 TOR         0.1654
     43 H21        16.0933    0.9983   15.5157 H         1 TOR         0.1654
@<TRIPOS>BOND
     1    1    2 1  
     2    2    3 1  
     3    2    4 1  
     4    2    5 1  
     5    4   16 1  
     6    5    6 1  
     7    6    7 1  
     8    6   16 1  
     9    7    8 1  
    10    7   13 1  
    11    8    9 1  
    12    9   10 1  
    13    9   11 1  
    14    9   12 1  
    15   12   13 1  
    16   13   14 1  
    17   14   15 1  
    18   15   16 1  
    19   16   17 1  
    20   17   18 1  
    21   18   19 1  
    22   19   20 2  
    23   19   21 2  
    24   19   22 am 
    25    1   23 1  
    26    1   24 1  
    27    1   25 1  
    28    3   26 1  
    29    3   27 1  
    30    3   28 1  
    31    6   29 1  
    32    7   30 1  
    33   10   31 1  
    34   10   32 1  
    35   10   33 1  
    36   11   34 1  
    37   11   35 1  
    38   11   36 1  
    39   13   37 1  
    40   14   38 1  
    41   14   39 1  
    42   17   40 1  
    43   17   41 1  
    44   22   42 1  
    45   22   43 1  
@<TRIPOS>SUBSTRUCTURE
     1 TOR         1

