### 
### Created by X-TOOL on Mon Sep 10 21:13:02 2018
### 

@<TRIPOS>MOLECULE
3hkw_ligand
   73    77     1     0     0
SMALL
GAST_HUCK


@<TRIPOS>ATOM
      1 C1         39.3060    3.7770  -19.0200 C.ar      1 IX6        -0.0582
      2 C2         38.9410    3.7620  -17.6850 C.ar      1 IX6        -0.0956
      3 C3         37.9060    2.9560  -17.2530 C.ar      1 IX6        -0.0610
      4 C4         37.2210    2.1300  -18.1640 C.ar      1 IX6         0.0866
      5 C5         37.5700    2.2010  -19.5170 C.ar      1 IX6         0.1097
      6 C6         38.6280    2.9950  -19.9380 C.ar      1 IX6         0.0974
      7 C8         34.8280    1.5540  -18.4160 C.3       1 IX6         0.1150
      8 C15        35.6700   -0.0290  -21.9410 C.3       1 IX6         0.0036
      9 C16        34.4350    3.6330  -19.9240 C.ar      1 IX6        -0.0672
     10 C17        34.5810    3.0560  -18.6660 C.ar      1 IX6         0.0129
     11 C18        34.2130    4.9910  -20.0530 C.ar      1 IX6        -0.0434
     12 C19        34.1600    5.8140  -18.9290 C.ar      1 IX6         0.0854
     13 C21        34.5210    3.8840  -17.5450 C.ar      1 IX6         0.1283
     14 C24        33.5260    0.8560  -22.8690 C.3       1 IX6        -0.0565
     15 C27        31.3510    7.3290  -20.0280 C.2       1 IX6        -0.1267
     16 O29        38.9600    3.0020  -21.2640 O.3       1 IX6        -0.3423
     17 C32        36.3170    0.5210  -16.6490 C.2       1 IX6         0.2114
     18 C34        37.6000   -0.0210  -16.1800 C.2       1 IX6         0.0969
     19 C35        38.5520   -0.6740  -16.9170 C.2       1 IX6         0.1363
     20 C37        39.2130   -0.5960  -15.0300 C.2       1 IX6         0.1731
     21 C39        40.1120   -0.7990  -13.8460 C.3       1 IX6         0.0221
     22 C40        38.4980   -0.9830  -18.3950 C.3       1 IX6         0.0073
     23 F41        34.6780    3.3490  -16.3470 F         1 IX6        -0.1917
     24 C20        34.3150    5.2420  -17.6690 C.ar      1 IX6        -0.0061
     25 O23        33.9500    7.1650  -19.0120 O.3       1 IX6        -0.3084
     26 C22        33.7550    7.8600  -20.2400 C.3       1 IX6         0.1035
     27 C26        32.3960    7.5590  -20.8410 C.2       1 IX6        -0.0467
     28 C28        32.2010    7.5490  -22.3440 C.3       1 IX6        -0.0275
     29 N7         36.1060    1.3470  -17.7280 N.am      1 IX6        -0.2158
     30 N38        38.0360    0.0360  -14.9290 N.2       1 IX6        -0.3140
     31 O36        39.4670   -0.9950  -16.1710 O.3       1 IX6        -0.2175
     32 O33        35.3030    0.1960  -16.0500 O.2       1 IX6        -0.3945
     33 C9         34.8080    0.7460  -19.6880 C.2       1 IX6         0.0892
     34 S12        33.4080   -0.2290  -19.8180 S.o2      1 IX6        -0.0239
     35 O30        32.2750    0.6440  -19.7740 O.2       1 IX6        -0.1768
     36 O31        33.3780   -1.1930  -18.7420 O.2       1 IX6        -0.1768
     37 C13        33.5100   -1.1430  -21.3650 C.3       1 IX6         0.0704
     38 C14        34.2840   -0.4060  -22.4590 C.3       1 IX6        -0.0050
     39 C25        34.4020   -1.3620  -23.6510 C.3       1 IX6        -0.0565
     40 C10        35.7790    0.7400  -20.6270 C.2       1 IX6         0.0421
     41 N11        36.9760    1.4230  -20.5280 N.pl3     1 IX6        -0.2909
     42 H1         40.1270    4.4044  -19.3478 H         1 IX6         0.0388
     43 H2         39.4705    4.3864  -16.9745 H         1 IX6         0.0450
     44 H3         37.6198    2.9595  -16.2075 H         1 IX6         0.0380
     45 H4         34.0207    1.1850  -17.7663 H         1 IX6         0.0810
     46 H5         36.1488    0.5867  -22.7167 H         1 IX6         0.0444
     47 H6         36.2341   -0.9650  -21.8157 H         1 IX6         0.0444
     48 H7         34.4959    3.0119  -20.8104 H         1 IX6         0.0520
     49 H8         34.0786    5.4209  -21.0390 H         1 IX6         0.0491
     50 H9         32.5285    0.5798  -23.2414 H         1 IX6         0.0237
     51 H10        34.0824    1.3765  -23.6624 H         1 IX6         0.0237
     52 H11        33.4214    1.5201  -21.9983 H         1 IX6         0.0237
     53 H12        30.3706    7.1119  -20.4495 H         1 IX6         0.0076
     54 H13        31.4845    7.3597  -18.9476 H         1 IX6         0.0076
     55 H14        39.6964    3.5861  -21.4018 H         1 IX6         0.2432
     56 H15        39.6516   -0.3482  -12.9545 H         1 IX6         0.0474
     57 H16        41.0843   -0.3215  -14.0377 H         1 IX6         0.0474
     58 H17        40.2592   -1.8760  -13.6777 H         1 IX6         0.0474
     59 H18        39.4129   -1.5168  -18.6916 H         1 IX6         0.0446
     60 H19        38.4206   -0.0444  -18.9633 H         1 IX6         0.0446
     61 H20        37.6212   -1.6128  -18.6062 H         1 IX6         0.0446
     62 H21        34.2736    5.8657  -16.7833 H         1 IX6         0.0510
     63 H22        34.5359    7.5537  -20.9516 H         1 IX6         0.0811
     64 H23        33.8317    8.9415  -20.0544 H         1 IX6         0.0811
     65 H24        31.1524    7.3113  -22.5761 H         1 IX6         0.0425
     66 H25        32.8573    6.7895  -22.7939 H         1 IX6         0.0425
     67 H26        32.4517    8.5389  -22.7529 H         1 IX6         0.0425
     68 H27        32.4883   -1.3299  -21.7271 H         1 IX6         0.0503
     69 H28        34.0112   -2.1026  -21.1701 H         1 IX6         0.0503
     70 H29        34.9549   -0.8682  -24.4637 H         1 IX6         0.0237
     71 H30        33.3963   -1.6338  -24.0041 H         1 IX6         0.0237
     72 H31        34.9396   -2.2702  -23.3409 H         1 IX6         0.0237
     73 H32        37.5575    1.3464  -21.3747 H         1 IX6         0.2008
@<TRIPOS>BOND
     1    2    1 ar 
     2    6    1 ar 
     3    3    2 ar 
     4    4    3 ar 
     5    4    5 ar 
     6   29    4 1  
     7    5    6 ar 
     8    5   41 1  
     9    6   16 1  
    10    7   10 1  
    11    7   29 1  
    12   33    7 1  
    13    8   38 1  
    14   40    8 1  
    15   10    9 ar 
    16    9   11 ar 
    17   10   13 ar 
    18   11   12 ar 
    19   24   12 ar 
    20   12   25 1  
    21   13   23 1  
    22   13   24 ar 
    23   38   14 1  
    24   27   15 2  
    25   17   18 1  
    26   29   17 am 
    27   17   32 2  
    28   18   19 2  
    29   18   30 1  
    30   19   22 1  
    31   19   31 1  
    32   20   21 1  
    33   30   20 2  
    34   20   31 1  
    35   25   26 1  
    36   26   27 1  
    37   27   28 1  
    38   33   34 1  
    39   33   40 2  
    40   34   35 2  
    41   34   36 2  
    42   34   37 1  
    43   37   38 1  
    44   38   39 1  
    45   40   41 1  
    46    1   42 1  
    47    2   43 1  
    48    3   44 1  
    49    7   45 1  
    50    8   46 1  
    51    8   47 1  
    52    9   48 1  
    53   11   49 1  
    54   14   50 1  
    55   14   51 1  
    56   14   52 1  
    57   15   53 1  
    58   15   54 1  
    59   16   55 1  
    60   21   56 1  
    61   21   57 1  
    62   21   58 1  
    63   22   59 1  
    64   22   60 1  
    65   22   61 1  
    66   24   62 1  
    67   26   63 1  
    68   26   64 1  
    69   28   65 1  
    70   28   66 1  
    71   28   67 1  
    72   37   68 1  
    73   37   69 1  
    74   39   70 1  
    75   39   71 1  
    76   39   72 1  
    77   41   73 1  
@<TRIPOS>SUBSTRUCTURE
     1 IX6         1

