### 
### Created by X-TOOL on Mon Sep 10 21:13:03 2018
### 

@<TRIPOS>MOLECULE
3hky_ligand
   73    77     1     0     0
SMALL
GAST_HUCK


@<TRIPOS>ATOM
      1 C1        -20.9700   -6.8890   30.0110 C.ar      1 IX6        -0.0582
      2 C2        -21.2050   -7.9020   29.1370 C.ar      1 IX6        -0.0956
      3 C3        -22.4730   -8.0580   28.6180 C.ar      1 IX6        -0.0610
      4 C4        -23.5340   -7.1800   28.9510 C.ar      1 IX6         0.0866
      5 C5        -23.2880   -6.1760   29.8640 C.ar      1 IX6         0.1097
      6 C6        -21.9900   -6.0320   30.3520 C.ar      1 IX6         0.0974
      7 C8        -25.9050   -7.5850   29.4360 C.3       1 IX6         0.1150
      8 C15       -26.1560   -3.8790   30.8510 C.3       1 IX6         0.0036
      9 C16       -25.3220   -8.1380   31.8820 C.ar      1 IX6        -0.0672
     10 C17       -25.4360   -8.5240   30.5520 C.ar      1 IX6         0.0129
     11 C18       -24.8830   -9.0210   32.8360 C.ar      1 IX6        -0.0434
     12 C19       -24.5360  -10.3200   32.4850 C.ar      1 IX6         0.0854
     13 C21       -25.0630   -9.8180   30.2090 C.ar      1 IX6         0.1283
     14 C24       -27.5460   -4.7180   32.7690 C.3       1 IX6        -0.0565
     15 C27       -26.4480  -11.6600   34.9110 C.2       1 IX6        -0.1267
     16 O29       -21.7470   -5.0430   31.2170 O.3       1 IX6        -0.3423
     17 C32       -24.9730   -7.4020   27.0590 C.2       1 IX6         0.2114
     18 C34       -24.0840   -6.8280   26.0350 C.2       1 IX6         0.0969
     19 C35       -23.6240   -5.5390   25.9520 C.2       1 IX6         0.1363
     20 C37       -22.8310   -6.5350   24.3970 C.2       1 IX6         0.1731
     21 C39       -22.0150   -6.7640   23.1450 C.3       1 IX6         0.0221
     22 C40       -23.9460   -4.3930   26.8730 C.3       1 IX6         0.0073
     23 F41       -25.1450  -10.2140   28.9500 F         1 IX6        -0.1917
     24 C20       -24.6120  -10.7000   31.1520 C.ar      1 IX6        -0.0061
     25 O23       -24.0910  -11.2300   33.3940 O.3       1 IX6        -0.3084
     26 C22       -24.0310  -11.0530   34.8010 C.3       1 IX6         0.1035
     27 C26       -25.4070  -10.9840   35.4290 C.2       1 IX6        -0.0467
     28 C28       -25.6390  -10.1680   36.6650 C.3       1 IX6        -0.0275
     29 N7        -24.8310   -7.4100   28.4360 N.am      1 IX6        -0.2158
     30 N38       -23.5490   -7.4900   25.0150 N.2       1 IX6        -0.3140
     31 O36       -22.9170   -5.4460   24.9610 O.3       1 IX6        -0.2175
     32 O33       -25.9560   -7.9970   26.6830 O.2       1 IX6        -0.3945
     33 C9        -26.3580   -6.2160   29.8950 C.2       1 IX6         0.0892
     34 S12       -28.0750   -5.9750   29.7770 S.o2      1 IX6        -0.0239
     35 O30       -28.6580   -7.0540   30.5320 O.2       1 IX6        -0.1768
     36 O31       -28.3570   -5.9640   28.3620 O.2       1 IX6        -0.1768
     37 C13       -28.5470   -4.3920   30.4660 C.3       1 IX6         0.0704
     38 C14       -27.5460   -3.8600   31.5060 C.3       1 IX6        -0.0050
     39 C25       -27.9070   -2.4120   31.8310 C.3       1 IX6        -0.0565
     40 C10       -25.5880   -5.1890   30.3150 C.2       1 IX6         0.0421
     41 N11       -24.1990   -5.2020   30.2910 N.pl3     1 IX6        -0.2909
     42 H1        -19.9824   -6.7567   30.4379 H         1 IX6         0.0388
     43 H2        -20.4072   -8.5781   28.8516 H         1 IX6         0.0450
     44 H3        -22.6639   -8.8773   27.9344 H         1 IX6         0.0380
     45 H4        -26.7625   -8.0684   28.9452 H         1 IX6         0.0810
     46 H5        -25.4445   -3.5076   31.6032 H         1 IX6         0.0444
     47 H6        -26.1935   -3.1781   30.0041 H         1 IX6         0.0444
     48 H7        -25.5833   -7.1260   32.1696 H         1 IX6         0.0520
     49 H8        -24.8064   -8.7034   33.8696 H         1 IX6         0.0491
     50 H9        -28.5457   -4.6957   33.2274 H         1 IX6         0.0237
     51 H10       -26.8072   -4.3221   33.4813 H         1 IX6         0.0237
     52 H11       -27.2852   -5.7543   32.5083 H         1 IX6         0.0237
     53 H12       -27.4281  -11.5942   35.3810 H         1 IX6         0.0076
     54 H13       -26.3107  -12.2732   34.0215 H         1 IX6         0.0076
     55 H14       -20.8304   -5.0599   31.4663 H         1 IX6         0.2432
     56 H15       -22.1005   -7.8172   22.8392 H         1 IX6         0.0474
     57 H16       -20.9602   -6.5251   23.3459 H         1 IX6         0.0474
     58 H17       -22.3906   -6.1165   22.3390 H         1 IX6         0.0474
     59 H18       -23.4171   -3.4901   26.5336 H         1 IX6         0.0446
     60 H19       -23.6258   -4.6430   27.8952 H         1 IX6         0.0446
     61 H20       -25.0303   -4.2082   26.8632 H         1 IX6         0.0446
     62 H21       -24.3128  -11.6994   30.8574 H         1 IX6         0.0510
     63 H22       -23.4957  -10.1168   35.0176 H         1 IX6         0.0811
     64 H23       -23.4830  -11.8991   35.2412 H         1 IX6         0.0811
     65 H24       -26.6950  -10.2460   36.9630 H         1 IX6         0.0425
     66 H25       -25.3923   -9.1156   36.4613 H         1 IX6         0.0425
     67 H26       -25.0000  -10.5437   37.4777 H         1 IX6         0.0425
     68 H27       -29.5290   -4.5002   30.9497 H         1 IX6         0.0503
     69 H28       -28.6204   -3.6620   29.6464 H         1 IX6         0.0503
     70 H29       -27.1997   -2.0158   32.5745 H         1 IX6         0.0237
     71 H30       -28.9280   -2.3712   32.2381 H         1 IX6         0.0237
     72 H31       -27.8532   -1.8061   30.9145 H         1 IX6         0.0237
     73 H32       -23.7613   -4.3421   30.6515 H         1 IX6         0.2008
@<TRIPOS>BOND
     1    2    1 ar 
     2    6    1 ar 
     3    3    2 ar 
     4    4    3 ar 
     5    4    5 ar 
     6   29    4 1  
     7    5    6 ar 
     8    5   41 1  
     9    6   16 1  
    10    7   10 1  
    11    7   29 1  
    12   33    7 1  
    13    8   38 1  
    14   40    8 1  
    15   10    9 ar 
    16    9   11 ar 
    17   10   13 ar 
    18   11   12 ar 
    19   24   12 ar 
    20   12   25 1  
    21   13   23 1  
    22   13   24 ar 
    23   38   14 1  
    24   27   15 2  
    25   17   18 1  
    26   29   17 am 
    27   17   32 2  
    28   18   19 2  
    29   18   30 1  
    30   19   22 1  
    31   19   31 1  
    32   20   21 1  
    33   30   20 2  
    34   20   31 1  
    35   25   26 1  
    36   26   27 1  
    37   27   28 1  
    38   33   34 1  
    39   33   40 2  
    40   34   35 2  
    41   34   36 2  
    42   34   37 1  
    43   37   38 1  
    44   38   39 1  
    45   40   41 1  
    46    1   42 1  
    47    2   43 1  
    48    3   44 1  
    49    7   45 1  
    50    8   46 1  
    51    8   47 1  
    52    9   48 1  
    53   11   49 1  
    54   14   50 1  
    55   14   51 1  
    56   14   52 1  
    57   15   53 1  
    58   15   54 1  
    59   16   55 1  
    60   21   56 1  
    61   21   57 1  
    62   21   58 1  
    63   22   59 1  
    64   22   60 1  
    65   22   61 1  
    66   24   62 1  
    67   26   63 1  
    68   26   64 1  
    69   28   65 1  
    70   28   66 1  
    71   28   67 1  
    72   37   68 1  
    73   37   69 1  
    74   39   70 1  
    75   39   71 1  
    76   39   72 1  
    77   41   73 1  
@<TRIPOS>SUBSTRUCTURE
     1 IX6         1

