### 
### Created by X-TOOL on Mon Sep 10 21:13:00 2018
### 

@<TRIPOS>MOLECULE
3hl5_ligand
   76    79     1     0     0
SMALL
GAST_HUCK


@<TRIPOS>ATOM
      1 O3          9.7840   12.4600  -19.7000 O.2       1 9JZ        -0.3942
      2 C5          8.7630   12.3680  -20.3720 C.2       1 9JZ         0.2067
      3 C4          8.2410   13.5790  -21.1010 C.3       1 9JZ         0.1341
      4 C12         8.7570   13.5560  -22.5550 C.3       1 9JZ        -0.0006
      5 C18        10.2850   13.6620  -22.6990 C.3       1 9JZ        -0.0460
      6 C17        10.7280   13.5190  -24.1600 C.3       1 9JZ        -0.0526
      7 C16         9.9800   14.4840  -25.0840 C.3       1 9JZ        -0.0530
      8 C15         8.4630   14.3590  -24.9150 C.3       1 9JZ        -0.0526
      9 C14         8.0540   14.5740  -23.4590 C.3       1 9JZ        -0.0460
     10 N2          8.6620   14.8220  -20.4610 N.am      1 9JZ        -0.2607
     11 C3          7.8500   15.8680  -20.3170 C.2       1 9JZ         0.2265
     12 O2          6.6960   15.9000  -20.7290 O.2       1 9JZ        -0.3907
     13 C2          8.4430   17.0640  -19.6330 C.3       1 9JZ         0.0637
     14 C13         8.4050   16.8550  -18.1220 C.3       1 9JZ        -0.0039
     15 N1          7.7540   18.2890  -20.0140 N.4       1 9JZ         0.2438
     16 C1          7.9220   18.8070  -21.3610 C.3       1 9JZ        -0.0428
     17 N3          8.0770   11.2240  -20.5180 N.am      1 9JZ        -0.2490
     18 C9          6.8450   11.0300  -21.2960 C.3       1 9JZ         0.0372
     19 C8          6.2930    9.7010  -20.8050 C.3       1 9JZ        -0.0255
     20 C7          7.5310    8.9340  -20.4120 C.3       1 9JZ        -0.0008
     21 C28         7.2650    7.7770  -19.4560 C.3       1 9JZ        -0.0581
     22 C6          8.4990    9.9800  -19.8640 C.3       1 9JZ         0.1427
     23 C10         9.8670    9.4940  -20.2350 C.2       1 9JZ         0.2328
     24 O1         10.5250    8.9130  -19.3870 O.2       1 9JZ        -0.3806
     25 N4         10.2880    9.7190  -21.4890 N.am      1 9JZ        -0.2263
     26 C11        11.5270    9.2650  -21.9680 C.ar      1 9JZ         0.0858
     27 C27        12.6520    9.2010  -21.1370 C.ar      1 9JZ        -0.0348
     28 C26        13.8620    8.7140  -21.6220 C.ar      1 9JZ        -0.0711
     29 C25        13.9600    8.2810  -22.9420 C.ar      1 9JZ        -0.0718
     30 C24        12.8420    8.3280  -23.7700 C.ar      1 9JZ        -0.0586
     31 C19        11.6220    8.8150  -23.2890 C.ar      1 9JZ         0.0440
     32 C20        10.4640    8.8560  -24.2310 C.ar      1 9JZ         0.1197
     33 N6         10.3960    7.9550  -25.2470 N.ar      1 9JZ        -0.2649
     34 C23         9.3760    7.9750  -26.1190 C.ar      1 9JZ         0.0242
     35 C22         8.3790    8.9380  -25.9920 C.ar      1 9JZ        -0.0126
     36 C21         8.4630    9.8620  -24.9520 C.ar      1 9JZ         0.0242
     37 N5          9.5010    9.8070  -24.1000 N.ar      1 9JZ        -0.2649
     38 H1          7.1417   13.5405  -21.1063 H         1 9JZ         0.0803
     39 H2          8.4872   12.5633  -22.9445 H         1 9JZ         0.0348
     40 H3         10.7553   12.8651  -22.1043 H         1 9JZ         0.0270
     41 H4         10.6115   14.6424  -22.3218 H         1 9JZ         0.0270
     42 H5         10.5333   12.4881  -24.4908 H         1 9JZ         0.0265
     43 H6         11.8059   13.7279  -24.2262 H         1 9JZ         0.0265
     44 H7         10.2435   14.2566  -26.1275 H         1 9JZ         0.0265
     45 H8         10.2826   15.5143  -24.8456 H         1 9JZ         0.0265
     46 H9          8.1474   13.3542  -25.2325 H         1 9JZ         0.0265
     47 H10         7.9678   15.1144  -25.5428 H         1 9JZ         0.0265
     48 H11         8.3363   15.5909  -23.1489 H         1 9JZ         0.0270
     49 H12         6.9649   14.4512  -23.3659 H         1 9JZ         0.0270
     50 H13         9.5983   14.8908  -20.1167 H         1 9JZ         0.1885
     51 H14         9.4942   17.1549  -19.9440 H         1 9JZ         0.1096
     52 H15         8.8397   17.7317  -17.6196 H         1 9JZ         0.0310
     53 H16         8.9854   15.9577  -17.8612 H         1 9JZ         0.0310
     54 H17         7.3625   16.7250  -17.7959 H         1 9JZ         0.0310
     55 H18         8.0628   19.0098  -19.3807 H         1 9JZ         0.2032
     56 H19         6.7681   18.1256  -19.8822 H         1 9JZ         0.2032
     57 H20         7.3353   19.7305  -21.4745 H         1 9JZ         0.0777
     58 H21         7.5725   18.0589  -22.0878 H         1 9JZ         0.0777
     59 H22         8.9854   19.0238  -21.5405 H         1 9JZ         0.0777
     60 H23         7.0673   10.9853  -22.3724 H         1 9JZ         0.0524
     61 H24         6.1303   11.8435  -21.1026 H         1 9JZ         0.0524
     62 H25         5.7456    9.1819  -21.6056 H         1 9JZ         0.0290
     63 H26         5.6284    9.8457  -19.9405 H         1 9JZ         0.0290
     64 H27         7.9709    8.4978  -21.3209 H         1 9JZ         0.0346
     65 H28         8.2129    7.2715  -19.2195 H         1 9JZ         0.0235
     66 H29         6.5760    7.0616  -19.9288 H         1 9JZ         0.0235
     67 H30         6.8142    8.1629  -18.5298 H         1 9JZ         0.0235
     68 H31         8.4240   10.0826  -18.7714 H         1 9JZ         0.0811
     69 H32         9.6939   10.2319  -22.1087 H         1 9JZ         0.2299
     70 H33        12.5799    9.5334  -20.1077 H         1 9JZ         0.0516
     71 H34        14.7286    8.6717  -20.9721 H         1 9JZ         0.0610
     72 H35        14.9039    7.9086  -23.3234 H         1 9JZ         0.0503
     73 H36        12.9173    7.9846  -24.7954 H         1 9JZ         0.0618
     74 H37         9.3288    7.2446  -26.9186 H         1 9JZ         0.0930
     75 H38         7.5507    8.9688  -26.6906 H         1 9JZ         0.0746
     76 H39         7.6969   10.6193  -24.8312 H         1 9JZ         0.0930
@<TRIPOS>BOND
     1    1    2 2  
     2    2    3 1  
     3    2   17 am 
     4    3    4 1  
     5    3   10 1  
     6    4    5 1  
     7    4    9 1  
     8    5    6 1  
     9    6    7 1  
    10    7    8 1  
    11    8    9 1  
    12   10   11 am 
    13   11   12 2  
    14   11   13 1  
    15   13   14 1  
    16   13   15 1  
    17   15   16 1  
    18   17   18 1  
    19   17   22 1  
    20   18   19 1  
    21   19   20 1  
    22   20   21 1  
    23   20   22 1  
    24   22   23 1  
    25   23   24 2  
    26   23   25 am 
    27   25   26 1  
    28   26   27 ar 
    29   26   31 ar 
    30   27   28 ar 
    31   28   29 ar 
    32   29   30 ar 
    33   30   31 ar 
    34   31   32 1  
    35   32   33 ar 
    36   32   37 ar 
    37   33   34 ar 
    38   34   35 ar 
    39   35   36 ar 
    40   36   37 ar 
    41    3   38 1  
    42    4   39 1  
    43    5   40 1  
    44    5   41 1  
    45    6   42 1  
    46    6   43 1  
    47    7   44 1  
    48    7   45 1  
    49    8   46 1  
    50    8   47 1  
    51    9   48 1  
    52    9   49 1  
    53   10   50 1  
    54   13   51 1  
    55   14   52 1  
    56   14   53 1  
    57   14   54 1  
    58   15   55 1  
    59   15   56 1  
    60   16   57 1  
    61   16   58 1  
    62   16   59 1  
    63   18   60 1  
    64   18   61 1  
    65   19   62 1  
    66   19   63 1  
    67   20   64 1  
    68   21   65 1  
    69   21   66 1  
    70   21   67 1  
    71   22   68 1  
    72   25   69 1  
    73   27   70 1  
    74   28   71 1  
    75   29   72 1  
    76   30   73 1  
    77   34   74 1  
    78   35   75 1  
    79   36   76 1  
@<TRIPOS>SUBSTRUCTURE
     1 9JZ         1

