### 
### Created by X-TOOL on Mon Sep 10 21:13:00 2018
### 

@<TRIPOS>MOLECULE
3hl7_ligand
   48    51     1     0     0
SMALL
GAST_HUCK


@<TRIPOS>ATOM
      1 C1         35.5390   35.8440   20.0350 C.2       1 I47         0.0460
      2 N2         35.0130   34.5920   20.1860 N.2       1 I47        -0.2149
      3 N3         34.3580   34.4200   21.3480 N.pl3     1 I47        -0.2058
      4 C4         34.4730   35.5890   21.9900 C.2       1 I47         0.0973
      5 C5         35.2010   36.5220   21.2070 C.2       1 I47         0.0378
      6 C6         36.2560   36.2100   18.8410 C.ar      1 I47        -0.0132
      7 C7         35.4600   37.9150   21.5200 C.ar      1 I47         0.0449
      8 C8         33.8990   35.7960   23.3550 C.3       1 I47         0.0338
      9 C9         35.7380   35.9390   17.5930 C.ar      1 I47        -0.0541
     10 C10        36.4100   36.3400   16.4530 C.ar      1 I47        -0.0478
     11 C11        37.6080   37.0090   16.5410 C.ar      1 I47         0.0400
     12 C12        38.1380   37.2580   17.7900 C.ar      1 I47        -0.0478
     13 C13        37.4680   36.8610   18.9240 C.ar      1 I47        -0.0541
     14 C14        35.7230   38.3440   22.8100 C.ar      1 I47        -0.0164
     15 C15        35.8820   39.7000   22.9660 C.ar      1 I47         0.0169
     16 N16        35.7820   40.5970   21.9740 N.ar      1 I47        -0.2770
     17 C17        35.5120   40.0750   20.7720 C.ar      1 I47         0.0750
     18 N18        35.3400   38.7720   20.4930 N.ar      1 I47        -0.2757
     19 C19        32.5520   35.1500   23.6150 C.3       1 I47        -0.0137
     20 C20        32.0630   35.4080   25.0390 C.3       1 I47         0.0366
     21 N21        33.0770   35.0640   26.0130 N.am      1 I47        -0.2709
     22 C22        34.4180   35.5740   25.8200 C.3       1 I47         0.0366
     23 C23        34.9160   35.3600   24.3950 C.3       1 I47        -0.0137
     24 CL24       38.4230   37.5510   15.1160 Cl        1 I47        -0.0708
     25 C25        32.7620   34.2800   27.1120 C.2       1 I47         0.2043
     26 O26        32.0050   33.3140   27.0890 O.2       1 I47        -0.3943
     27 C27        33.4530   34.7420   28.3700 C.3       1 I47         0.1333
     28 O28        32.9420   33.9600   29.4480 O.3       1 I47        -0.3746
     29 H1         33.8727   33.5719   21.6736 H         1 I47         0.2601
     30 H2         33.7483   36.8794   23.4708 H         1 I47         0.0546
     31 H3         34.7972   35.4078   17.5045 H         1 I47         0.0619
     32 H4         35.9873   36.1244   15.4784 H         1 I47         0.0622
     33 H5         39.0893   37.7702   17.8786 H         1 I47         0.0622
     34 H6         37.8998   37.0632   19.8975 H         1 I47         0.0619
     35 H7         35.7986   37.6546   23.6431 H         1 I47         0.0705
     36 H8         36.1037   40.0705   23.9603 H         1 I47         0.0896
     37 H9         35.4236   40.7695   19.9444 H         1 I47         0.1097
     38 H10        32.6423   34.0646   23.4610 H         1 I47         0.0317
     39 H11        31.8176   35.5610   22.9067 H         1 I47         0.0317
     40 H12        31.1657   34.7997   25.2256 H         1 I47         0.0524
     41 H13        31.8119   36.4738   25.1442 H         1 I47         0.0524
     42 H14        35.0970   35.0568   26.5139 H         1 I47         0.0524
     43 H15        34.4219   36.6521   26.0384 H         1 I47         0.0524
     44 H16        35.8388   35.9414   24.2522 H         1 I47         0.0317
     45 H17        35.1306   34.2906   24.2527 H         1 I47         0.0317
     46 H18        33.2424   35.8073   28.5453 H         1 I47         0.0801
     47 H19        34.5390   34.5930   28.2791 H         1 I47         0.0801
     48 H20        33.1238   33.0418   29.2857 H         1 I47         0.2129
@<TRIPOS>BOND
     1    1    2 2  
     2    1    5 1  
     3    1    6 1  
     4    2    3 1  
     5    3    4 1  
     6    4    5 2  
     7    4    8 1  
     8    5    7 1  
     9    6    9 ar 
    10    6   13 ar 
    11    7   14 ar 
    12    7   18 ar 
    13    8   19 1  
    14    8   23 1  
    15    9   10 ar 
    16   10   11 ar 
    17   11   12 ar 
    18   11   24 1  
    19   12   13 ar 
    20   14   15 ar 
    21   15   16 ar 
    22   16   17 ar 
    23   17   18 ar 
    24   19   20 1  
    25   20   21 1  
    26   21   22 1  
    27   21   25 am 
    28   22   23 1  
    29   25   26 2  
    30   25   27 1  
    31   27   28 1  
    32    3   29 1  
    33    8   30 1  
    34    9   31 1  
    35   10   32 1  
    36   12   33 1  
    37   13   34 1  
    38   14   35 1  
    39   15   36 1  
    40   17   37 1  
    41   19   38 1  
    42   19   39 1  
    43   20   40 1  
    44   20   41 1  
    45   22   42 1  
    46   22   43 1  
    47   23   44 1  
    48   23   45 1  
    49   27   46 1  
    50   27   47 1  
    51   28   48 1  
@<TRIPOS>SUBSTRUCTURE
     1 I47         1

