### 
### Created by X-TOOL on Mon Sep 10 21:13:02 2018
### 

@<TRIPOS>MOLECULE
3hl8_ligand
   34    36     1     0     0
SMALL
GAST_HUCK


@<TRIPOS>ATOM
      1 CL1        28.0820    2.1720   55.2170 Cl        1 BBP        -0.0761
      2 C4         29.6910    2.5310   55.8600 C.ar      1 BBP         0.0312
      3 C3         29.7990    3.7190   56.5620 C.ar      1 BBP        -0.0576
      4 C2         31.0010    4.0730   57.1410 C.ar      1 BBP        -0.0560
      5 C5         30.7790    1.6640   55.7570 C.ar      1 BBP        -0.0349
      6 C6         31.9970    2.0270   56.3490 C.ar      1 BBP         0.0577
      7 S1         33.4180    1.0810   56.2740 S.3       1 BBP         0.0503
      8 C7         32.0970    3.2330   57.0410 C.ar      1 BBP         0.0299
      9 N1         33.3540    3.3880   57.5390 N.2       1 BBP        -0.2673
     10 C1         34.1330    2.3430   57.2330 C.2       1 BBP         0.2985
     11 N2         35.4210    2.3290   57.6600 N.am      1 BBP         0.0062
     12 C8         36.3330    1.3730   57.4340 C.2       1 BBP         0.3102
     13 O1         36.0160    0.1530   56.6810 O.2       1 BBP        -0.3471
     14 N3         36.0100    3.3650   58.4330 N.2       1 BBP        -0.0643
     15 C10        37.2820    2.8890   58.5740 C.2       1 BBP         0.0498
     16 C9         37.6930    1.5600   58.0040 C.3       1 BBP         0.1023
     17 C11        38.2980    3.6600   59.3770 C.3       1 BBP        -0.0654
     18 C12        37.8570    5.1000   59.5810 C.3       1 BBP        -0.1083
     19 C13        38.3550    2.9790   60.7400 C.3       1 BBP        -0.1083
     20 C14        39.6860    3.5980   58.7580 C.3       1 BBP        -0.1083
     21 H1         28.9389    4.3719   56.6572 H         1 BBP         0.0563
     22 H2         31.0871    5.0119   57.6758 H         1 BBP         0.0568
     23 H3         30.6841    0.7232   55.2269 H         1 BBP         0.0572
     24 H4         38.4900    1.6242   57.2486 H         1 BBP         0.0702
     25 H5         37.9667    0.8127   58.7633 H         1 BBP         0.0702
     26 H6         38.6165    5.6363   60.1688 H         1 BBP         0.0052
     27 H7         36.8977    5.1170   60.1190 H         1 BBP         0.0052
     28 H8         37.7377    5.5890   58.6029 H         1 BBP         0.0052
     29 H9         38.6729    1.9334   60.6144 H         1 BBP         0.0052
     30 H10        37.3586    3.0059   61.2053 H         1 BBP         0.0052
     31 H11        39.0746    3.5062   61.3835 H         1 BBP         0.0052
     32 H12        39.6696    4.0844   57.7715 H         1 BBP         0.0052
     33 H13        39.9899    2.5470   58.6436 H         1 BBP         0.0052
     34 H14        40.4023    4.1178   59.4112 H         1 BBP         0.0052
@<TRIPOS>BOND
     1    1    2 1  
     2    2    3 ar 
     3    2    5 ar 
     4    3    4 ar 
     5    4    8 ar 
     6    5    6 ar 
     7    6    7 1  
     8    6    8 ar 
     9    7   10 1  
    10    8    9 1  
    11    9   10 2  
    12   10   11 am 
    13   11   12 am 
    14   11   14 1  
    15   12   13 2  
    16   12   16 1  
    17   14   15 2  
    18   15   16 1  
    19   15   17 1  
    20   17   18 1  
    21   17   19 1  
    22   17   20 1  
    23    3   21 1  
    24    4   22 1  
    25    5   23 1  
    26   16   24 1  
    27   16   25 1  
    28   18   26 1  
    29   18   27 1  
    30   18   28 1  
    31   19   29 1  
    32   19   30 1  
    33   19   31 1  
    34   20   32 1  
    35   20   33 1  
    36   20   34 1  
@<TRIPOS>SUBSTRUCTURE
     1 BBP         1

