### 
### Created by X-TOOL on Mon Sep 10 21:13:01 2018
### 

@<TRIPOS>MOLECULE
3hll_ligand
   49    51     1     0     0
SMALL
GAST_HUCK


@<TRIPOS>ATOM
      1 C1         36.6840   36.6680   18.2600 C.ar      1 I45         0.0178
      2 C2         38.0040   37.0480   18.1550 C.ar      1 I45         0.1342
      3 C3         38.5950   37.3040   16.9450 C.ar      1 I45        -0.0014
      4 C4         37.8490   37.1850   15.8030 C.ar      1 I45         0.1231
      5 C5         36.5260   36.8090   15.8790 C.ar      1 I45        -0.0389
      6 C6         35.9440   36.5560   17.1050 C.ar      1 I45        -0.0610
      7 C7         36.0660   36.4280   19.5890 C.3       1 I45         0.1071
      8 O8         35.6680   37.7740   19.9480 O.3       1 I45        -0.3053
      9 C9         35.3280   37.9990   21.2810 C.2       1 I45         0.0794
     10 C10        35.0660   39.2620   21.6780 C.2       1 I45         0.0657
     11 C11        34.6970   39.5170   23.0960 C.2       1 I45         0.2020
     12 N12        34.6460   38.4050   23.9230 N.am      1 I45        -0.1612
     13 C13        34.9310   37.1250   23.4710 C.2       1 I45         0.1024
     14 C14        35.2580   36.9000   22.1960 C.2       1 I45        -0.0021
     15 C15        34.2270   38.6030   25.2470 C.ar      1 I45         0.1176
     16 C16        35.1530   39.0970   26.1480 C.ar      1 I45        -0.0148
     17 C17        34.7600   39.2740   27.4600 C.ar      1 I45         0.0351
     18 C18        33.4800   38.9770   27.8680 C.ar      1 I45        -0.0588
     19 C19        32.5700   38.4900   26.9640 C.ar      1 I45        -0.0617
     20 C20        32.9380   38.2980   25.6500 C.ar      1 I45        -0.0066
     21 F21        38.7710   37.1710   19.2450 F         1 I45        -0.1900
     22 F22        38.4340   37.4590   14.6230 F         1 I45        -0.1903
     23 BR23       35.1590   40.6940   20.5260 Br        1 I45        -0.1006
     24 O24        34.4600   40.6580   23.4590 O.2       1 I45        -0.4263
     25 C25        34.8520   35.9970   24.4400 C.3       1 I45         0.0142
     26 C26        35.7200   39.8060   28.4400 C.2       1 I45         0.1974
     27 O27        36.5860   40.5800   28.0490 O.2       1 I45        -0.3878
     28 N28        35.5210   39.4160   29.7530 N.am      1 I45        -0.2903
     29 C29        35.5240   38.0420   30.2060 C.3       1 I45         0.0189
     30 C30        31.8930   37.7630   24.7270 C.3       1 I45        -0.0297
     31 H1         39.6375   37.5963   16.8930 H         1 I45         0.0572
     32 H2         35.9396   36.7114   14.9726 H         1 I45         0.0552
     33 H3         34.9003   36.2681   17.1582 H         1 I45         0.0537
     34 H4         36.7921   36.0157   20.3050 H         1 I45         0.0772
     35 H5         35.1991   35.7548   19.5171 H         1 I45         0.0772
     36 H6         35.4699   35.8878   21.8546 H         1 I45         0.0284
     37 H7         36.1614   39.3390   25.8323 H         1 I45         0.0585
     38 H8         33.1910   39.1275   28.9019 H         1 I45         0.0565
     39 H9         31.5609   38.2561   27.2836 H         1 I45         0.0540
     40 H10        35.1046   35.0563   23.9289 H         1 I45         0.0501
     41 H11        33.8311   35.9318   24.8444 H         1 I45         0.0501
     42 H12        35.5619   36.1696   25.2623 H         1 I45         0.0501
     43 H13        35.3647   40.1316   30.4339 H         1 I45         0.1839
     44 H14        35.3427   38.0131   31.2906 H         1 I45         0.0483
     45 H15        36.5000   37.5852   29.9852 H         1 I45         0.0483
     46 H16        34.7316   37.4830   29.6868 H         1 I45         0.0483
     47 H17        32.3151   37.6581   23.7167 H         1 I45         0.0383
     48 H18        31.0398   38.4566   24.6976 H         1 I45         0.0383
     49 H19        31.5544   36.7802   25.0867 H         1 I45         0.0383
@<TRIPOS>BOND
     1    1    2 ar 
     2    1    6 ar 
     3    1    7 1  
     4    2    3 ar 
     5    2   21 1  
     6    3    4 ar 
     7    4    5 ar 
     8    4   22 1  
     9    5    6 ar 
    10    7    8 1  
    11    8    9 1  
    12    9   10 2  
    13    9   14 1  
    14   10   11 1  
    15   10   23 1  
    16   11   12 am 
    17   11   24 2  
    18   12   13 1  
    19   12   15 1  
    20   13   14 2  
    21   13   25 1  
    22   15   16 ar 
    23   15   20 ar 
    24   16   17 ar 
    25   17   18 ar 
    26   17   26 1  
    27   18   19 ar 
    28   19   20 ar 
    29   20   30 1  
    30   26   27 2  
    31   26   28 am 
    32   28   29 1  
    33    3   31 1  
    34    5   32 1  
    35    6   33 1  
    36    7   34 1  
    37    7   35 1  
    38   14   36 1  
    39   16   37 1  
    40   18   38 1  
    41   19   39 1  
    42   25   40 1  
    43   25   41 1  
    44   25   42 1  
    45   28   43 1  
    46   29   44 1  
    47   29   45 1  
    48   29   46 1  
    49   30   47 1  
    50   30   48 1  
    51   30   49 1  
@<TRIPOS>SUBSTRUCTURE
     1 I45         1

