### 
### Created by X-TOOL on Mon Sep 10 21:13:01 2018
### 

@<TRIPOS>MOLECULE
3hmm_ligand
   39    42     1     0     0
SMALL
GAST_HUCK


@<TRIPOS>ATOM
      1 C1         10.3020   63.9450    5.4270 C.3       1 855        -0.0147
      2 C2         11.6880   64.0670    4.8800 C.ar      1 855         0.0282
      3 C3         12.0500   63.4210    3.6830 C.ar      1 855        -0.0296
      4 C4         13.3770   63.5740    3.2040 C.ar      1 855        -0.0446
      5 C5         14.3050   64.3710    3.9220 C.ar      1 855        -0.0266
      6 C6         13.8720   64.9950    5.1220 C.ar      1 855         0.0776
      7 N7         12.5740   64.8380    5.5860 N.ar      1 855        -0.2852
      8 C8         14.7430   65.8590    5.9240 C.ar      1 855         0.1156
      9 N9         15.6620   66.5790    5.2540 N.ar      1 855        -0.2441
     10 C10        16.4740   67.4160    5.9310 C.ar      1 855         0.1649
     11 C12        17.3780   68.5460    3.8100 C.ar      1 855         0.0887
     12 C17        16.2130   68.4070    2.9780 C.ar      1 855        -0.0093
     13 C16        16.2750   68.8500    1.6470 C.ar      1 855        -0.0005
     14 N15        17.4040   69.4140    1.0990 N.ar      1 855        -0.3132
     15 C14        18.5140   69.5380    1.9100 C.ar      1 855        -0.0005
     16 C13        18.5400   69.1230    3.2500 C.ar      1 855        -0.0093
     17 C18        16.4010   67.5660    7.3360 C.ar      1 855         0.0589
     18 C19        17.2160   68.4350    8.1520 C.ar      1 855        -0.0394
     19 C20        17.0370   68.4860    9.5570 C.ar      1 855        -0.0542
     20 C21        16.0500   67.6780   10.1650 C.ar      1 855        -0.0551
     21 C22        15.2370   66.8210    9.3670 C.ar      1 855        -0.0396
     22 C23        15.3920   66.7510    7.9650 C.ar      1 855         0.0459
     23 N24        14.5800   65.9150    7.2720 N.ar      1 855        -0.2856
     24 N5         17.3950   68.1280    5.1530 N.pl3     1 855        -0.2372
     25 H1          9.7021   63.3026    4.7656 H         1 855         0.0421
     26 H2          9.8418   64.9424    5.4855 H         1 855         0.0421
     27 H3         10.3423   63.5002    6.4322 H         1 855         0.0421
     28 H4         11.3307   62.8197    3.1388 H         1 855         0.0677
     29 H5         13.6819   63.0810    2.2880 H         1 855         0.0726
     30 H6         15.3198   64.5006    3.5636 H         1 855         0.0695
     31 H7         15.3033   67.9681    3.3715 H         1 855         0.0636
     32 H8         15.3946   68.7429    1.0238 H         1 855         0.0787
     33 H9         19.4112   69.9784    1.4903 H         1 855         0.0787
     34 H10        19.4373   69.2431    3.8463 H         1 855         0.0636
     35 H11        17.9727   69.0549    7.6850 H         1 855         0.0685
     36 H12        17.6537   69.1411   10.1617 H         1 855         0.0630
     37 H13        15.9109   67.7099   11.2396 H         1 855         0.0675
     38 H14        14.4823   66.2089    9.8474 H         1 855         0.0630
     39 H15        18.2490   68.3975    5.6618 H         1 855         0.2262
@<TRIPOS>BOND
     1    2    1 1  
     2    2    3 ar 
     3    7    2 ar 
     4    4    3 ar 
     5    5    4 ar 
     6    6    5 ar 
     7    6    7 ar 
     8    8    6 1  
     9    9    8 ar 
    10    8   23 ar 
    11   10    9 ar 
    12   10   17 ar 
    13   24   10 1  
    14   11   12 ar 
    15   11   16 ar 
    16   11   24 1  
    17   12   13 ar 
    18   13   14 ar 
    19   14   15 ar 
    20   15   16 ar 
    21   17   18 ar 
    22   17   22 ar 
    23   18   19 ar 
    24   19   20 ar 
    25   20   21 ar 
    26   21   22 ar 
    27   22   23 ar 
    28    1   25 1  
    29    1   26 1  
    30    1   27 1  
    31    3   28 1  
    32    4   29 1  
    33    5   30 1  
    34   12   31 1  
    35   13   32 1  
    36   15   33 1  
    37   16   34 1  
    38   18   35 1  
    39   19   36 1  
    40   20   37 1  
    41   21   38 1  
    42   24   39 1  
@<TRIPOS>SUBSTRUCTURE
     1 855         1

