### 
### Created by X-TOOL on Mon Sep 10 21:13:04 2018
### 

@<TRIPOS>MOLECULE
3hmo_ligand
   62    69     1     0     0
SMALL
GAST_HUCK


@<TRIPOS>ATOM
      1 O4        -37.9990  -13.1420  -11.2830 O.3       1 STU        -0.3149
      2 C25       -36.7560  -13.0270  -10.6490 C.3       1 STU         0.1668
      3 C24       -35.7640  -12.0900  -11.3400 C.3       1 STU         0.0455
      4 C23       -36.4490  -11.4710  -12.5740 C.3       1 STU         0.0141
      5 C22       -37.0540  -12.5740  -13.4870 C.3       1 STU         0.1556
      6 C21       -38.0170  -13.4410  -12.6470 C.3       1 STU         0.2020
      7 C26       -39.4210  -12.9600  -13.0210 C.3       1 STU        -0.0059
      8 N2        -37.9740  -14.8920  -12.8960 N.pl3     1 STU        -0.2292
      9 C18       -37.2940  -15.7700  -12.0520 C.ar      1 STU         0.0978
     10 C19       -36.5400  -15.5270  -10.8870 C.ar      1 STU         0.0952
     11 C6        -35.9310  -16.5890  -10.2040 C.ar      1 STU        -0.0018
     12 C7        -36.0860  -17.9110  -10.7100 C.ar      1 STU         0.0320
     13 C10       -36.8300  -18.1340  -11.8690 C.ar      1 STU        -0.0168
     14 C11       -37.4270  -17.0820  -12.5340 C.ar      1 STU         0.0011
     15 C12       -38.2430  -17.0040  -13.7320 C.ar      1 STU        -0.0075
     16 C17       -38.5580  -15.6330  -13.9200 C.ar      1 STU         0.0695
     17 C16       -39.3450  -15.2720  -15.0240 C.ar      1 STU        -0.0408
     18 C15       -39.7770  -16.2830  -15.8780 C.ar      1 STU        -0.0739
     19 C14       -39.4550  -17.6160  -15.6760 C.ar      1 STU        -0.0759
     20 C13       -38.6810  -18.0110  -14.5980 C.ar      1 STU        -0.0696
     21 C9        -36.8130  -19.6120  -12.1550 C.3       1 STU         0.0603
     22 N1        -36.0150  -20.1960  -11.0800 N.am      1 STU        -0.2790
     23 C8        -35.6000  -19.2170  -10.2560 C.2       1 STU         0.1871
     24 O5        -34.9140  -19.3920   -9.2770 O.2       1 STU        -0.3964
     25 C5        -35.2440  -15.9790   -9.0590 C.ar      1 STU        -0.0072
     26 C20       -35.4880  -14.5810   -9.1290 C.ar      1 STU         0.0681
     27 C1        -34.9680  -13.7070   -8.1690 C.ar      1 STU        -0.0404
     28 C2        -34.2100  -14.2620   -7.1490 C.ar      1 STU        -0.0732
     29 C3        -33.9690  -15.6260   -7.0780 C.ar      1 STU        -0.0750
     30 C4        -34.4740  -16.5130   -8.0190 C.ar      1 STU        -0.0685
     31 N3        -36.2650  -14.3520  -10.2610 N.pl3     1 STU        -0.2376
     32 O6        -36.0150  -13.2920  -14.2070 O.3       1 STU        -0.3686
     33 C27       -35.1680  -14.1320  -13.4170 C.3       1 STU         0.0373
     34 N4        -35.5100  -10.6420  -13.3460 N.4       1 STU         0.2291
     35 C28       -36.0310   -9.6830  -14.3290 C.3       1 STU        -0.0445
     36 H1        -36.9688  -12.5213   -9.6956 H         1 STU         0.0933
     37 H2        -34.8761  -12.6577  -11.6551 H         1 STU         0.0372
     38 H3        -35.4619  -11.2926  -10.6451 H         1 STU         0.0372
     39 H4        -37.2679  -10.8266  -12.2215 H         1 STU         0.0880
     40 H5        -37.6663  -12.0735  -14.2516 H         1 STU         0.0710
     41 H6        -39.5936  -13.1314  -14.0938 H         1 STU         0.0284
     42 H7        -39.5110  -11.8858  -12.8022 H         1 STU         0.0284
     43 H8        -40.1675  -13.5172  -12.4359 H         1 STU         0.0284
     44 H9        -39.6088  -14.2366  -15.2066 H         1 STU         0.0538
     45 H10       -40.3882  -16.0178  -16.7331 H         1 STU         0.0561
     46 H11       -39.8156  -18.3625  -16.3744 H         1 STU         0.0516
     47 H12       -38.4265  -19.0517  -14.4331 H         1 STU         0.0566
     48 H13       -36.3496  -19.8113  -13.1325 H         1 STU         0.0679
     49 H14       -37.8345  -20.0198  -12.1434 H         1 STU         0.0679
     50 H15       -35.8098  -21.1689  -10.9735 H         1 STU         0.1863
     51 H16       -35.1500  -12.6396   -8.2201 H         1 STU         0.0539
     52 H17       -33.7948  -13.6125   -6.3869 H         1 STU         0.0568
     53 H18       -33.3677  -16.0114   -6.2625 H         1 STU         0.0516
     54 H19       -34.2797  -17.5773   -7.9511 H         1 STU         0.0576
     55 H20       -34.4262  -14.6195  -14.0667 H         1 STU         0.0524
     56 H21       -35.7767  -14.8989  -12.9157 H         1 STU         0.0524
     57 H22       -34.6498  -13.5234  -12.6613 H         1 STU         0.0524
     58 H23       -34.9038  -11.2736  -13.8456 H         1 STU         0.2014
     59 H24       -34.9690  -10.1137  -12.6794 H         1 STU         0.2014
     60 H25       -35.1923   -9.1555  -14.8067 H         1 STU         0.0777
     61 H26       -36.6810   -8.9548  -13.8219 H         1 STU         0.0777
     62 H27       -36.6098  -10.2205  -15.0945 H         1 STU         0.0777
@<TRIPOS>BOND
     1    1    2 1  
     2    1    6 1  
     3    2    3 1  
     4    2   31 1  
     5    3    4 1  
     6    4    5 1  
     7    4   34 1  
     8    5    6 1  
     9    5   32 1  
    10    6    7 1  
    11    6    8 1  
    12    8    9 1  
    13    8   16 1  
    14    9   10 ar 
    15    9   14 ar 
    16   10   11 ar 
    17   10   31 1  
    18   11   12 ar 
    19   11   25 1  
    20   12   13 ar 
    21   12   23 1  
    22   13   14 ar 
    23   13   21 1  
    24   14   15 1  
    25   15   16 ar 
    26   15   20 ar 
    27   16   17 ar 
    28   17   18 ar 
    29   18   19 ar 
    30   19   20 ar 
    31   21   22 1  
    32   22   23 am 
    33   23   24 2  
    34   25   26 ar 
    35   25   30 ar 
    36   26   27 ar 
    37   26   31 1  
    38   27   28 ar 
    39   28   29 ar 
    40   29   30 ar 
    41   32   33 1  
    42   34   35 1  
    43    2   36 1  
    44    3   37 1  
    45    3   38 1  
    46    4   39 1  
    47    5   40 1  
    48    7   41 1  
    49    7   42 1  
    50    7   43 1  
    51   17   44 1  
    52   18   45 1  
    53   19   46 1  
    54   20   47 1  
    55   21   48 1  
    56   21   49 1  
    57   22   50 1  
    58   27   51 1  
    59   28   52 1  
    60   29   53 1  
    61   30   54 1  
    62   33   55 1  
    63   33   56 1  
    64   33   57 1  
    65   34   58 1  
    66   34   59 1  
    67   35   60 1  
    68   35   61 1  
    69   35   62 1  
@<TRIPOS>SUBSTRUCTURE
     1 STU         1

