### 
### Created by X-TOOL on Mon Sep 10 21:13:04 2018
### 

@<TRIPOS>MOLECULE
3hmp_ligand
   28    30     1     0     0
SMALL
GAST_HUCK


@<TRIPOS>ATOM
      1 CAF       -33.9980  -15.4210   -5.6650 C.3       1 CX4        -0.0480
      2 CAG       -34.9880  -16.5700   -5.8940 C.3       1 CX4        -0.0480
      3 CAP       -34.6760  -15.5890   -7.0260 C.3       1 CX4        -0.0198
      4 CAH       -33.7660  -16.1340   -8.1280 C.3       1 CX4         0.0359
      5 NAK       -34.5750  -16.9000   -9.0850 N.pl3     1 CX4        -0.2920
      6 C6        -35.1530  -16.3300  -10.1480 C.ar      1 CX4         0.1438
      7 C5        -35.9620  -17.0620  -11.0250 C.ar      1 CX4         0.0549
      8 CAD       -36.2030  -18.4320  -10.8580 C.ar      1 CX4        -0.0397
      9 CAB       -37.0090  -19.1190  -11.7690 C.ar      1 CX4        -0.0406
     10 CAL       -37.5780  -18.4260  -12.8410 C.ar      1 CX4         0.0474
     11 CLAA      -38.5940  -19.2230  -13.9780 Cl        1 CX4        -0.0640
     12 CAE       -37.3420  -17.0630  -13.0100 C.ar      1 CX4        -0.0262
     13 C4        -36.5340  -16.3780  -12.1070 C.ar      1 CX4         0.0447
     14 N3        -36.3040  -15.0660  -12.2780 N.ar      1 CX4        -0.2939
     15 C2        -35.5360  -14.4130  -11.4240 C.ar      1 CX4         0.0603
     16 N1        -34.9700  -15.0170  -10.3850 N.ar      1 CX4        -0.2542
     17 H1        -32.9243  -15.6335   -5.5552 H         1 CX4         0.0269
     18 H2        -34.2737  -14.5789   -5.0132 H         1 CX4         0.0269
     19 H3        -35.9740  -16.5522   -5.4066 H         1 CX4         0.0269
     20 H4        -34.6246  -17.6068   -5.9486 H         1 CX4         0.0269
     21 H5        -35.4205  -14.8753   -7.4086 H         1 CX4         0.0321
     22 H6        -33.0021  -16.7893   -7.6842 H         1 CX4         0.0536
     23 H7        -33.2750  -15.2978   -8.6473 H         1 CX4         0.0536
     24 H8        -34.7016  -17.9107   -8.9323 H         1 CX4         0.1914
     25 H9        -35.7630  -18.9602  -10.0199 H         1 CX4         0.0686
     26 H10       -37.1915  -20.1804  -11.6455 H         1 CX4         0.0631
     27 H11       -37.7881  -16.5357  -13.8455 H         1 CX4         0.0632
     28 H12       -35.3627  -13.3537  -11.5755 H         1 CX4         0.1061
@<TRIPOS>BOND
     1    1    2 1  
     2    1    3 1  
     3    2    3 1  
     4    3    4 1  
     5    4    5 1  
     6    5    6 1  
     7    6    7 ar 
     8    6   16 ar 
     9    7    8 ar 
    10    7   13 ar 
    11    8    9 ar 
    12    9   10 ar 
    13   10   11 1  
    14   10   12 ar 
    15   12   13 ar 
    16   13   14 ar 
    17   14   15 ar 
    18   15   16 ar 
    19    1   17 1  
    20    1   18 1  
    21    2   19 1  
    22    2   20 1  
    23    3   21 1  
    24    4   22 1  
    25    4   23 1  
    26    5   24 1  
    27    8   25 1  
    28    9   26 1  
    29   12   27 1  
    30   15   28 1  
@<TRIPOS>SUBSTRUCTURE
     1 CX4         1

