### 
### Created by X-TOOL on Mon Sep 10 21:13:02 2018
### 

@<TRIPOS>MOLECULE
3hmv_ligand
   42    44     1     0     0
SMALL
GAST_HUCK


@<TRIPOS>ATOM
      1 O2        -12.7450  -24.1940   -2.0670 O.2       1 HBT        -0.4872
      2 N2        -12.8960  -24.9860   -2.9700 N.2       1 HBT        -0.2125
      3 O3        -12.0970  -25.2350   -3.8460 O.2       1 HBT        -0.4872
      4 C13       -14.2260  -25.5790   -3.0080 C.ar      1 HBT         0.1058
      5 C12       -15.2070  -24.8730   -2.3150 C.ar      1 HBT        -0.0227
      6 C11       -16.4960  -25.3380   -2.3460 C.ar      1 HBT        -0.0498
      7 C10       -16.7920  -26.4970   -3.0600 C.ar      1 HBT        -0.0509
      8 C9        -15.7900  -27.1810   -3.7540 C.ar      1 HBT        -0.0320
      9 C8        -14.4690  -26.7130   -3.7470 C.ar      1 HBT         0.1096
     10 C7        -13.4050  -27.4540   -4.4580 C.2       1 HBT         0.3214
     11 O1        -12.3460  -27.6900   -3.9010 O.2       1 HBT        -0.3235
     12 N1        -13.6740  -27.8790   -5.7220 N.am      1 HBT        -0.1081
     13 C6        -12.8290  -28.6540   -6.5280 C.2       1 HBT         0.3474
     14 C14       -13.0270  -28.8700   -7.9140 C.2       1 HBT         0.2486
     15 C15       -14.0970  -28.2810   -8.6440 C.2       1 HBT         0.2555
     16 N3        -13.9610  -28.0210   -9.9490 N.am      1 HBT        -0.2939
     17 O4        -15.1430  -27.9790   -8.1010 O.2       1 HBT        -0.3654
     18 S1        -11.4630  -29.4540   -5.9120 S.3       1 HBT         0.2180
     19 C5        -11.1590  -30.1250   -7.4240 C.2       1 HBT         0.2090
     20 C4         -9.9550  -31.0290   -7.5870 C.3       1 HBT         0.0839
     21 C3         -9.5630  -31.2310   -9.0790 C.3       1 HBT        -0.0018
     22 C1         -8.6830  -32.4940   -9.1930 C.3       1 HBT        -0.0557
     23 C2        -10.8030  -31.3360   -9.9880 C.3       1 HBT        -0.0253
     24 C17       -11.8520  -30.2130   -9.8360 C.3       1 HBT         0.0302
     25 C16       -12.0250  -29.7480   -8.3960 C.2       1 HBT         0.1570
     26 H1        -14.9561  -23.9746   -1.7628 H         1 HBT         0.0702
     27 H2        -17.2801  -24.8073   -1.8183 H         1 HBT         0.0667
     28 H3        -17.8090  -26.8719   -3.0775 H         1 HBT         0.0671
     29 H4        -16.0371  -28.0824   -4.3031 H         1 HBT         0.0686
     30 H5        -14.5559  -27.6140   -6.1120 H         1 HBT         0.3352
     31 H6        -14.7159  -27.6070  -10.4577 H         1 HBT         0.1813
     32 H7        -13.1044  -28.2406  -10.4160 H         1 HBT         0.1813
     33 H8        -10.1875  -32.0099   -7.1469 H         1 HBT         0.0884
     34 H9         -9.1025  -30.5813   -7.0553 H         1 HBT         0.0884
     35 H10        -8.9740  -30.3614   -9.4058 H         1 HBT         0.0379
     36 H11        -8.3983  -32.6488  -10.2442 H         1 HBT         0.0238
     37 H12        -9.2468  -33.3674   -8.8334 H         1 HBT         0.0238
     38 H13        -7.7768  -32.3658   -8.5828 H         1 HBT         0.0238
     39 H14       -11.3003  -32.2925   -9.7695 H         1 HBT         0.0310
     40 H15       -10.4561  -31.3331  -11.0318 H         1 HBT         0.0310
     41 H16       -12.8199  -30.5861  -10.2020 H         1 HBT         0.0557
     42 H17       -11.5359  -29.3538  -10.4457 H         1 HBT         0.0557
@<TRIPOS>BOND
     1    1    2 2  
     2    2    3 2  
     3    2    4 1  
     4    4    5 ar 
     5    4    9 ar 
     6    5    6 ar 
     7    6    7 ar 
     8    7    8 ar 
     9    8    9 ar 
    10    9   10 1  
    11   10   11 2  
    12   10   12 am 
    13   12   13 1  
    14   13   14 2  
    15   13   18 1  
    16   14   15 1  
    17   14   25 1  
    18   15   16 am 
    19   15   17 2  
    20   18   19 1  
    21   19   20 1  
    22   19   25 2  
    23   20   21 1  
    24   21   22 1  
    25   21   23 1  
    26   23   24 1  
    27   24   25 1  
    28    5   26 1  
    29    6   27 1  
    30    7   28 1  
    31    8   29 1  
    32   12   30 1  
    33   16   31 1  
    34   16   32 1  
    35   20   33 1  
    36   20   34 1  
    37   21   35 1  
    38   22   36 1  
    39   22   37 1  
    40   22   38 1  
    41   23   39 1  
    42   23   40 1  
    43   24   41 1  
    44   24   42 1  
@<TRIPOS>SUBSTRUCTURE
     1 HBT         1

