### 
### Created by X-TOOL on Mon Sep 10 21:13:02 2018
### 

@<TRIPOS>MOLECULE
3hnz_ligand
   58    62     1     0     0
SMALL
GAST_HUCK


@<TRIPOS>ATOM
      1 O16        62.3860   34.5770    5.6180 O.3       1 PMN        -0.3719
      2 O19        60.1370   31.5270    0.6930 O.2       1 PMN        -0.2794
      3 O20        60.8400   28.3140    3.9820 O.2       1 PMN        -0.3879
      4 O30        63.6440   27.6490    7.0920 O.3       1 PMN        -0.3408
      5 O31        59.0090   28.7640    6.4860 O.3       1 PMN        -0.3391
      6 O32        57.3720   27.4260    7.9980 O.co2     1 PMN        -0.5673
      7 O33        58.3810   25.9640    9.5690 O.co2     1 PMN        -0.5673
      8 N28        61.4970   29.2530    5.7580 N.am      1 PMN        -0.2402
      9 C1         61.2910   29.3190    4.4860 C.2       1 PMN         0.1976
     10 C2         61.6100   30.5960    3.7340 C.3       1 PMN         0.0414
     11 C3         60.4030   31.3960    3.9380 C.3       1 PMN        -0.0249
     12 C4         60.2410   32.6630    3.0110 C.3       1 PMN         0.0462
     13 C5         60.5690   32.4310    1.4680 C.2       1 PMN         0.2145
     14 C6         61.4810   33.3830    0.9040 C.2       1 PMN         0.0526
     15 C7         62.0350   34.4100    1.5030 C.2       1 PMN        -0.0592
     16 C8         61.8060   34.8610    2.8500 C.3       1 PMN        -0.0372
     17 C9         61.3190   33.6250    3.6770 C.3       1 PMN        -0.0268
     18 C10        61.0930   34.0940    5.1120 C.3       1 PMN         0.0536
     19 C11        60.2820   35.4260    5.0910 C.3       1 PMN        -0.0228
     20 C12        61.2300   36.4410    4.4210 C.3       1 PMN        -0.0192
     21 C13        60.8980   36.1040    2.9440 C.3       1 PMN        -0.0711
     22 C14        63.0910   35.4260    3.4930 C.3       1 PMN        -0.0473
     23 C15        62.6190   35.8450    4.8640 C.3       1 PMN         0.0608
     24 C17        63.5290   36.6240    5.8230 C.3       1 PMN        -0.0365
     25 C18        58.7530   33.2200    2.8960 C.3       1 PMN        -0.0541
     26 C21        58.3150   26.8100    8.5490 C.2       1 PMN         0.0478
     27 C22        59.6750   27.0760    8.0950 C.ar      1 PMN         0.0152
     28 C23        59.9520   28.0190    7.1210 C.ar      1 PMN         0.1165
     29 C24        61.3050   28.2390    6.7560 C.ar      1 PMN         0.1294
     30 C25        62.3200   27.4990    7.3780 C.ar      1 PMN         0.1044
     31 C26        61.9610   26.5680    8.3280 C.ar      1 PMN        -0.0528
     32 C27        60.6790   26.3570    8.6860 C.ar      1 PMN        -0.0792
     33 H          64.1575   27.0447    7.6329 H         1 PMN         0.2437
     34 H          58.3998   28.1822    6.0256 H         1 PMN         0.2443
     35 H          61.8834   30.1159    6.1408 H         1 PMN         0.2183
     36 H          61.8356   30.4257    2.6813 H         1 PMN         0.0504
     37 H          62.5135   31.0882    4.0939 H         1 PMN         0.0504
     38 H          60.4562   31.7716    4.9599 H         1 PMN         0.0280
     39 H          59.5620   30.7417    3.7084 H         1 PMN         0.0280
     40 H          61.7443   33.2363   -0.1435 H         1 PMN         0.1458
     41 H          62.7488   34.9863    0.9144 H         1 PMN         0.0662
     42 H          62.1064   32.8713    3.6878 H         1 PMN         0.0204
     43 H          60.6246   33.2862    5.6743 H         1 PMN         0.0588
     44 H          59.9856   35.7409    6.0915 H         1 PMN         0.0293
     45 H          59.3415   35.3245    4.5494 H         1 PMN         0.0293
     46 H          61.1847   37.5112    4.6229 H         1 PMN         0.0320
     47 H          59.8451   35.9568    2.7033 H         1 PMN         0.0157
     48 H          61.0758   36.8929    2.2131 H         1 PMN         0.0157
     49 H          63.5259   36.2474    2.9235 H         1 PMN         0.0181
     50 H          63.9042   34.7009    3.5263 H         1 PMN         0.0181
     51 H          63.7887   37.5837    5.3763 H         1 PMN         0.0257
     52 H          63.0054   36.7899    6.7645 H         1 PMN         0.0257
     53 H          64.4370   36.0498    6.0071 H         1 PMN         0.0257
     54 H          58.1068   32.4443    2.4851 H         1 PMN         0.0220
     55 H          58.3959   33.5058    3.8854 H         1 PMN         0.0220
     56 H          58.7417   34.0897    2.2390 H         1 PMN         0.0220
     57 H          62.7432   25.9800    8.8081 H         1 PMN         0.0422
     58 H          60.4413   25.6133    9.4466 H         1 PMN         0.0471
@<TRIPOS>BOND
     1   18    1 1  
     2    1   23 1  
     3   13    2 2  
     4    9    3 2  
     5   30    4 1  
     6   28    5 1  
     7   26    6 ar 
     8   26    7 ar 
     9    8    9 am 
    10   29    8 1  
    11    9   10 1  
    12   10   11 1  
    13   11   12 1  
    14   12   13 1  
    15   12   17 1  
    16   12   25 1  
    17   13   14 1  
    18   14   15 2  
    19   16   15 1  
    20   17   16 1  
    21   16   21 1  
    22   16   22 1  
    23   17   18 1  
    24   18   19 1  
    25   19   20 1  
    26   21   20 1  
    27   20   23 1  
    28   22   23 1  
    29   23   24 1  
    30   27   26 1  
    31   28   27 ar 
    32   27   32 ar 
    33   29   28 ar 
    34   29   30 ar 
    35   30   31 ar 
    36   31   32 ar 
    37    4   33 1  
    38    5   34 1  
    39    8   35 1  
    40   10   36 1  
    41   10   37 1  
    42   11   38 1  
    43   11   39 1  
    44   14   40 1  
    45   15   41 1  
    46   17   42 1  
    47   18   43 1  
    48   19   44 1  
    49   19   45 1  
    50   20   46 1  
    51   21   47 1  
    52   21   48 1  
    53   22   49 1  
    54   22   50 1  
    55   24   51 1  
    56   24   52 1  
    57   24   53 1  
    58   25   54 1  
    59   25   55 1  
    60   25   56 1  
    61   31   57 1  
    62   32   58 1  
@<TRIPOS>SUBSTRUCTURE
     1 PMN         1

