### 
### Created by X-TOOL on Mon Sep 10 21:13:02 2018
### 

@<TRIPOS>MOLECULE
3ho2_ligand
   57    60     1     0     0
SMALL
GAST_HUCK


@<TRIPOS>ATOM
      1 C1         62.2730   36.1480   44.6140 C.3       1 N32        -0.0088
      2 O19        57.9300   36.8570   48.2350 O.2       1 N32        -0.2794
      3 O20        55.8590   38.5470   44.7990 O.2       1 N32        -0.3968
      4 N28        57.1360   39.1770   43.0560 N.am      1 N32        -0.2514
      5 C11        56.9580   38.7000   44.2560 C.2       1 N32         0.1800
      6 C2         58.1590   38.3330   45.0370 C.3       1 N32         0.0370
      7 C3         58.0990   36.8430   45.3160 C.3       1 N32        -0.0254
      8 C4         59.2370   36.5330   46.2810 C.3       1 N32         0.0443
      9 C5         59.0260   36.6600   47.7710 C.2       1 N32         0.2145
     10 C6         60.2240   36.5440   48.6600 C.2       1 N32         0.0528
     11 C7         61.4800   36.4300   48.1730 C.2       1 N32        -0.0571
     12 C8         61.7460   36.5660   46.7010 C.3       1 N32        -0.0305
     13 C9         60.5780   36.1460   45.7240 C.3       1 N32        -0.0487
     14 C10        60.8720   36.3440   44.2260 C.3       1 N32        -0.0445
     15 C14        63.0150   37.4450   46.2450 C.3       1 N32        -0.0413
     16 C15        63.1470   37.2530   44.7850 C.2       1 N32        -0.0800
     17 C17        63.4150   38.2130   43.9060 C.2       1 N32        -0.1297
     18 C18        58.8220   35.0580   46.3960 C.3       1 N32        -0.0542
     19 C28        62.4610   35.1040   46.5820 C.3       1 N32        -0.0722
     20 C29        62.8250   34.8350   45.0560 C.3       1 N32        -0.0468
     21 O30        56.9120   41.4410   41.7990 O.2       1 N32        -0.3817
     22 O31        55.2250   37.1780   42.1820 O.2       1 N32        -0.3895
     23 O32        53.3860   36.4490   40.4370 O.co2     1 N32        -0.5687
     24 O33        52.3660   38.0590   39.3550 O.co2     1 N32        -0.5687
     25 C21        53.2730   37.6800   40.1750 C.2       1 N32         0.0544
     26 C22        54.2230   38.6200   40.6790 C.2       1 N32         0.0613
     27 C23        55.1840   38.3440   41.6730 C.2       1 N32         0.1617
     28 C24        56.0970   39.3070   42.0730 C.3       1 N32         0.1872
     29 C25        56.0570   40.5690   41.4840 C.2       1 N32         0.1648
     30 C26        55.0850   40.8870   40.5120 C.3       1 N32         0.0690
     31 C27        54.1680   39.8990   40.1180 C.2       1 N32        -0.0221
     32 H1         62.5751   35.9871   43.5686 H         1 N32         0.0494
     33 H2         58.0574   39.4721   42.8030 H         1 N32         0.1910
     34 H3         58.1723   38.8901   45.9854 H         1 N32         0.0501
     35 H4         59.0657   38.5686   44.4605 H         1 N32         0.0501
     36 H5         58.2289   36.2767   44.3820 H         1 N32         0.0280
     37 H6         57.1330   36.5811   45.7722 H         1 N32         0.0280
     38 H7         60.0788   36.5517   49.7393 H         1 N32         0.1458
     39 H8         62.3071   36.2376   48.8548 H         1 N32         0.0664
     40 H9         60.5609   35.0491   45.8048 H         1 N32         0.0183
     41 H10        60.4570   35.5728   43.5604 H         1 N32         0.0286
     42 H11        60.6302   37.3406   43.8281 H         1 N32         0.0286
     43 H12        63.9236   37.0980   46.7588 H         1 N32         0.0348
     44 H13        62.8460   38.5071   46.4761 H         1 N32         0.0348
     45 H14        63.4934   37.9746   42.8463 H         1 N32         0.0075
     46 H15        63.5562   39.2381   44.2454 H         1 N32         0.0075
     47 H16        57.8033   34.9947   46.8063 H         1 N32         0.0220
     48 H17        59.5197   34.5318   47.0641 H         1 N32         0.0220
     49 H18        58.8458   34.5917   45.4000 H         1 N32         0.0220
     50 H19        61.7722   34.3250   46.9408 H         1 N32         0.0157
     51 H20        63.3783   35.0903   47.1890 H         1 N32         0.0157
     52 H21        63.9051   34.7314   44.8756 H         1 N32         0.0285
     53 H22        62.2969   33.9712   44.6260 H         1 N32         0.0285
     54 H23        55.3921   39.6146   42.8594 H         1 N32         0.1013
     55 H24        55.6250   41.2046   39.6078 H         1 N32         0.0742
     56 H25        54.4999   41.7314   40.9053 H         1 N32         0.0742
     57 H26        53.4099   40.1307   39.3713 H         1 N32         0.0972
@<TRIPOS>BOND
     1   14    1 1  
     2    1   16 1  
     3    1   20 1  
     4    9    2 2  
     5    5    3 2  
     6    4    5 am 
     7   28    4 1  
     8    5    6 1  
     9    6    7 1  
    10    7    8 1  
    11    8    9 1  
    12    8   13 1  
    13    8   18 1  
    14    9   10 1  
    15   10   11 2  
    16   12   11 1  
    17   13   12 1  
    18   12   15 1  
    19   12   19 1  
    20   13   14 1  
    21   15   16 1  
    22   16   17 2  
    23   19   20 1  
    24   29   21 2  
    25   27   22 2  
    26   25   23 ar 
    27   25   24 ar 
    28   26   25 1  
    29   27   26 1  
    30   26   31 2  
    31   28   27 1  
    32   28   29 1  
    33   29   30 1  
    34   30   31 1  
    35    1   32 1  
    36    4   33 1  
    37    6   34 1  
    38    6   35 1  
    39    7   36 1  
    40    7   37 1  
    41   10   38 1  
    42   11   39 1  
    43   13   40 1  
    44   14   41 1  
    45   14   42 1  
    46   15   43 1  
    47   15   44 1  
    48   17   45 1  
    49   17   46 1  
    50   18   47 1  
    51   18   48 1  
    52   18   49 1  
    53   19   50 1  
    54   19   51 1  
    55   20   52 1  
    56   20   53 1  
    57   28   54 1  
    58   30   55 1  
    59   30   56 1  
    60   31   57 1  
@<TRIPOS>SUBSTRUCTURE
     1 N32         1

