### 
### Created by X-TOOL on Mon Sep 10 21:13:02 2018
### 

@<TRIPOS>MOLECULE
3ho9_ligand
   58    61     1     0     0
SMALL
GAST_HUCK


@<TRIPOS>ATOM
      1 C1         -0.2040   72.3120   68.1690 C.3       1 N3A        -0.0066
      2 O19        -3.2700   68.6950   72.0700 O.2       1 N3A        -0.2794
      3 O20        -5.7480   67.6470   68.7260 O.2       1 N3A        -0.3879
      4 N28        -5.3830   69.0320   66.9890 N.am      1 N3A        -0.2402
      5 C11        -5.2450   68.6100   68.2340 C.2       1 N3A         0.1976
      6 C2         -4.3050   69.5090   69.1730 C.3       1 N3A         0.0414
      7 C3         -2.9340   68.7460   69.2490 C.3       1 N3A        -0.0250
      8 C4         -1.9240   69.4490   70.2530 C.3       1 N3A         0.0444
      9 C5         -2.4540   69.4790   71.7010 C.2       1 N3A         0.2145
     10 C6         -1.9090   70.5420   72.6470 C.2       1 N3A         0.0529
     11 C7         -1.1230   71.5710   72.1480 C.2       1 N3A        -0.0547
     12 C8         -0.7200   71.8110   70.6690 C.3       1 N3A        -0.0049
     13 C9         -1.6330   70.9090   69.7280 C.3       1 N3A        -0.0464
     14 C10        -1.0070   70.9560   68.3000 C.3       1 N3A        -0.0443
     15 C14        -1.1040   73.3250   70.3690 C.3       1 N3A        -0.0390
     16 C15        -1.0280   73.3880   68.8660 C.2       1 N3A        -0.0798
     17 C17        -1.7060   74.3230   68.2100 C.2       1 N3A        -0.1297
     18 C18        -0.6870   68.5050   70.3050 C.3       1 N3A        -0.0542
     19 C28         0.7890   71.5470   70.3840 C.3       1 N3A         0.0377
     20 C29         1.1410   72.0970   68.9750 C.3       1 N3A        -0.0209
     21 O30        -7.6060   70.1770   65.8680 O.3       1 N3A        -0.3408
     22 O31        -4.6410   66.4800   66.1570 O.3       1 N3A        -0.3391
     23 O32        -5.1060   64.5580   64.5560 O.co2     1 N3A        -0.5673
     24 O33        -6.8420   64.4740   63.2690 O.co2     1 N3A        -0.5673
     25 C21        -6.1530   65.0600   64.1210 C.2       1 N3A         0.0478
     26 C22        -6.5670   66.3650   64.5610 C.ar      1 N3A         0.0152
     27 C23        -5.7750   67.0590   65.5880 C.ar      1 N3A         0.1165
     28 C24        -6.2040   68.3080   65.9740 C.ar      1 N3A         0.1294
     29 C25        -7.3300   68.9340   65.4390 C.ar      1 N3A         0.1044
     30 C26        -8.1450   68.2710   64.4510 C.ar      1 N3A        -0.0528
     31 C27        -7.7100   66.9970   64.0600 C.ar      1 N3A        -0.0792
     32 O34         1.5080   72.2240   71.4400 O.3       1 N3A        -0.4015
     33 H1         -0.0089   72.5746   67.1188 H         1 N3A         0.0495
     34 H2         -4.9169   69.8733   66.7150 H         1 N3A         0.2183
     35 H3         -4.7457   69.6081   70.1759 H         1 N3A         0.0504
     36 H4         -4.1652   70.5077   68.7336 H         1 N3A         0.0504
     37 H5         -2.4823   68.7243   68.2463 H         1 N3A         0.0280
     38 H6         -3.1175   67.7167   69.5909 H         1 N3A         0.0280
     39 H7         -2.1356   70.4943   73.7111 H         1 N3A         0.1458
     40 H8         -0.7474   72.2896   72.8749 H         1 N3A         0.0664
     41 H9         -2.6146   71.4018   69.6690 H         1 N3A         0.0184
     42 H10        -0.3263   70.1031   68.1615 H         1 N3A         0.0287
     43 H11        -1.8025   70.9173   67.5412 H         1 N3A         0.0287
     44 H12        -0.3856   74.0169   70.8328 H         1 N3A         0.0349
     45 H13        -2.1185   73.5562   70.7259 H         1 N3A         0.0349
     46 H14        -1.6538   74.3720   67.1234 H         1 N3A         0.0075
     47 H15        -2.3141   75.0406   68.7588 H         1 N3A         0.0075
     48 H16        -0.9943   67.5184   70.6821 H         1 N3A         0.0220
     49 H17         0.0731   68.9331   70.9750 H         1 N3A         0.0220
     50 H18        -0.2659   68.3964   69.2946 H         1 N3A         0.0220
     51 H19         1.0060   70.4691   70.4159 H         1 N3A         0.0482
     52 H20         1.6721   73.0553   69.0729 H         1 N3A         0.0310
     53 H21         1.7803   71.3760   68.4444 H         1 N3A         0.0310
     54 H22        -8.3897   70.4937   65.4345 H         1 N3A         0.2437
     55 H23        -4.0020   66.3028   65.4766 H         1 N3A         0.2443
     56 H24        -9.0365   68.7283   64.0374 H         1 N3A         0.0422
     57 H25        -8.2984   66.4663   63.3203 H         1 N3A         0.0471
     58 H26         1.2931   73.1493   71.4252 H         1 N3A         0.2085
@<TRIPOS>BOND
     1   14    1 1  
     2    1   16 1  
     3    1   20 1  
     4    9    2 2  
     5    5    3 2  
     6    4    5 am 
     7   28    4 1  
     8    5    6 1  
     9    6    7 1  
    10    7    8 1  
    11    8    9 1  
    12    8   13 1  
    13    8   18 1  
    14    9   10 1  
    15   10   11 2  
    16   12   11 1  
    17   13   12 1  
    18   12   15 1  
    19   12   19 1  
    20   13   14 1  
    21   15   16 1  
    22   16   17 2  
    23   19   20 1  
    24   19   32 1  
    25   29   21 1  
    26   27   22 1  
    27   25   23 ar 
    28   25   24 ar 
    29   26   25 1  
    30   27   26 ar 
    31   26   31 ar 
    32   28   27 ar 
    33   28   29 ar 
    34   29   30 ar 
    35   30   31 ar 
    36    1   33 1  
    37    4   34 1  
    38    6   35 1  
    39    6   36 1  
    40    7   37 1  
    41    7   38 1  
    42   10   39 1  
    43   11   40 1  
    44   13   41 1  
    45   14   42 1  
    46   14   43 1  
    47   15   44 1  
    48   15   45 1  
    49   17   46 1  
    50   17   47 1  
    51   18   48 1  
    52   18   49 1  
    53   18   50 1  
    54   19   51 1  
    55   20   52 1  
    56   20   53 1  
    57   21   54 1  
    58   22   55 1  
    59   30   56 1  
    60   31   57 1  
    61   32   58 1  
@<TRIPOS>SUBSTRUCTURE
     1 N3A         1

