### 
### Created by X-TOOL on Mon Sep 10 21:13:01 2018
### 

@<TRIPOS>MOLECULE
3hp2_ligand
   39    41     1     0     0
SMALL
GAST_HUCK


@<TRIPOS>ATOM
      1 C1         35.8230   39.6150   27.0470 C.ar      1 P36        -0.0685
      2 C2         35.3090   39.0890   28.2130 C.ar      1 P36        -0.0687
      3 C3         34.0370   38.5680   28.2330 C.ar      1 P36        -0.0685
      4 C4         33.2770   38.5690   27.0820 C.ar      1 P36        -0.0575
      5 C5         33.7980   39.0990   25.9180 C.ar      1 P36        -0.0106
      6 C6         35.0710   39.6240   25.8930 C.ar      1 P36        -0.0575
      7 C7         32.9630   39.0940   24.6910 C.3       1 P36         0.1033
      8 N8         33.6830   38.7850   23.4800 N.am      1 P36        -0.1993
      9 C9         34.0710   39.8340   22.6800 C.2       1 P36         0.1894
     10 C10        34.7890   39.4750   21.4490 C.2       1 P36         0.0714
     11 C11        35.0460   38.1880   21.1710 C.2       1 P36         0.0895
     12 C12        34.6240   37.1310   22.0560 C.2       1 P36        -0.0017
     13 C13        33.9600   37.4670   23.1720 C.2       1 P36         0.0727
     14 O14        33.8830   41.0200   22.8870 O.2       1 P36        -0.4336
     15 O15        35.7250   37.9230   19.9940 O.3       1 P36        -0.3007
     16 C16        36.0620   36.5590   19.7320 C.3       1 P36         0.1087
     17 C17        36.7630   36.6510   18.4140 C.ar      1 P36        -0.0120
     18 C18        36.0950   36.3500   17.2490 C.ar      1 P36        -0.0577
     19 C19        36.7390   36.4400   16.0330 C.ar      1 P36        -0.0685
     20 C20        38.0530   36.8520   15.9760 C.ar      1 P36        -0.0687
     21 C21        38.7190   37.1630   17.1410 C.ar      1 P36        -0.0685
     22 C22        38.0800   37.0560   18.3540 C.ar      1 P36        -0.0577
     23 BR23       35.2510   40.9280   20.4020 Br        1 P36        -0.0934
     24 H1         36.8266   40.0246   27.0382 H         1 P36         0.0599
     25 H2         35.9090   39.0862   29.1158 H         1 P36         0.0559
     26 H3         33.6323   38.1574   29.1510 H         1 P36         0.0599
     27 H4         32.2750   38.1555   27.0910 H         1 P36         0.0558
     28 H5         35.4759   40.0389   24.9770 H         1 P36         0.0558
     29 H6         32.5121   40.0909   24.5779 H         1 P36         0.0807
     30 H7         32.1682   38.3444   24.8191 H         1 P36         0.0807
     31 H8         34.8384   36.0886   21.8248 H         1 P36         0.0370
     32 H9         33.6314   36.6821   23.8516 H         1 P36         0.1273
     33 H10        35.1606   35.9326   19.6608 H         1 P36         0.0789
     34 H11        36.7276   36.1567   20.5099 H         1 P36         0.0789
     35 H12        35.0568   36.0405   17.2875 H         1 P36         0.0557
     36 H13        36.2111   36.1864   15.1208 H         1 P36         0.0599
     37 H14        38.5591   36.9308   15.0206 H         1 P36         0.0559
     38 H15        39.7507   37.4933   17.1015 H         1 P36         0.0599
     39 H16        38.6141   37.2911   19.2675 H         1 P36         0.0557
@<TRIPOS>BOND
     1    1    2 ar 
     2    1    6 ar 
     3    2    3 ar 
     4    3    4 ar 
     5    4    5 ar 
     6    5    6 ar 
     7    5    7 1  
     8    7    8 1  
     9    8    9 am 
    10    8   13 1  
    11    9   10 1  
    12    9   14 2  
    13   10   11 2  
    14   10   23 1  
    15   11   12 1  
    16   11   15 1  
    17   12   13 2  
    18   15   16 1  
    19   16   17 1  
    20   17   18 ar 
    21   17   22 ar 
    22   18   19 ar 
    23   19   20 ar 
    24   20   21 ar 
    25   21   22 ar 
    26    1   24 1  
    27    2   25 1  
    28    3   26 1  
    29    4   27 1  
    30    6   28 1  
    31    7   29 1  
    32    7   30 1  
    33   12   31 1  
    34   13   32 1  
    35   16   33 1  
    36   16   34 1  
    37   18   35 1  
    38   19   36 1  
    39   20   37 1  
    40   21   38 1  
    41   22   39 1  
@<TRIPOS>SUBSTRUCTURE
     1 P36         1

