### 
### Created by X-TOOL on Mon Sep 10 21:13:01 2018
### 

@<TRIPOS>MOLECULE
3hp5_ligand
   39    42     1     0     0
SMALL
GAST_HUCK


@<TRIPOS>ATOM
      1 F1         38.5180   37.8990   14.5200 F         1 52P        -0.1901
      2 C2         37.9700   37.3140   15.6000 C.ar      1 52P         0.1234
      3 C3         36.8170   36.5950   15.4310 C.ar      1 52P        -0.0378
      4 C4         36.2370   35.9790   16.5130 C.ar      1 52P        -0.0506
      5 C5         36.7880   36.0740   17.7710 C.ar      1 52P         0.0629
      6 S6         35.9940   35.2390   19.1170 S.3       1 52P        -0.0228
      7 C7         35.4900   36.4970   20.2280 C.2       1 52P         0.1075
      8 C8         35.1310   36.0310   21.5810 C.2       1 52P        -0.0853
      9 C9         34.7530   37.0150   22.4030 C.2       1 52P        -0.0891
     10 C10        34.6980   38.3960   22.0050 C.2       1 52P         0.0957
     11 C11        34.3000   39.3610   22.8600 C.3       1 52P         0.1238
     12 C12        33.9020   39.0900   24.2470 C.ar      1 52P         0.0179
     13 C13        32.6630   38.5690   24.5800 C.ar      1 52P         0.0463
     14 CL14       31.4680   38.1760   23.3900 Cl        1 52P        -0.0764
     15 C15        32.3450   38.3360   25.9030 C.ar      1 52P        -0.0538
     16 C16        33.2470   38.6220   26.9050 C.ar      1 52P        -0.0673
     17 C17        34.4760   39.1450   26.5850 C.ar      1 52P        -0.0538
     18 C18        34.7900   39.3730   25.2660 C.ar      1 52P         0.0463
     19 CL19       36.3360   40.0270   24.9020 Cl        1 52P        -0.0764
     20 C20        34.2740   40.7490   22.3700 C.2       1 52P         0.1805
     21 O21        33.9380   41.7140   23.0310 O.2       1 52P        -0.3823
     22 N22        34.6720   40.9250   21.0340 N.2       1 52P        -0.2492
     23 C23        35.0270   39.9180   20.2890 C.2       1 52P         0.1505
     24 N24        35.0640   38.6650   20.6990 N.pl3     1 52P        -0.1264
     25 N25        35.4630   37.7050   19.7940 N.pl3     1 52P        -0.1859
     26 C26        37.9520   36.8010   17.9270 C.ar      1 52P         0.1445
     27 F27        38.5020   36.9010   19.1480 F         1 52P        -0.1887
     28 C28        38.5500   37.4260   16.8490 C.ar      1 52P        -0.0003
     29 H1         36.3647   36.5125   14.4493 H         1 52P         0.0553
     30 H2         35.3271   35.4065   16.3736 H         1 52P         0.0549
     31 H3         35.1702   34.9850   21.8814 H         1 52P         0.0110
     32 H4         34.4731   36.7585   23.4237 H         1 52P         0.0158
     33 H5         33.2585   39.2129   22.5387 H         1 52P         0.0860
     34 H6         31.3751   37.9235   26.1565 H         1 52P         0.0607
     35 H7         32.9877   38.4351   27.9408 H         1 52P         0.0562
     36 H8         35.1920   39.3760   27.3654 H         1 52P         0.0607
     37 H9         35.3125   40.1241   19.2585 H         1 52P         0.1598
     38 H10        35.7241   37.9428   18.8264 H         1 52P         0.2191
     39 H11        39.4621   37.9966   16.9817 H         1 52P         0.0573
@<TRIPOS>BOND
     1    1    2 1  
     2    2    3 ar 
     3    2   28 ar 
     4    3    4 ar 
     5    4    5 ar 
     6    5    6 1  
     7    5   26 ar 
     8    6    7 1  
     9    7    8 2  
    10    7   25 1  
    11    8    9 1  
    12    9   10 2  
    13   10   11 1  
    14   10   24 1  
    15   11   12 1  
    16   11   20 1  
    17   12   13 ar 
    18   12   18 ar 
    19   13   14 1  
    20   13   15 ar 
    21   15   16 ar 
    22   16   17 ar 
    23   17   18 ar 
    24   18   19 1  
    25   20   21 2  
    26   20   22 1  
    27   22   23 2  
    28   23   24 1  
    29   24   25 1  
    30   26   27 1  
    31   26   28 ar 
    32    3   29 1  
    33    4   30 1  
    34    8   31 1  
    35    9   32 1  
    36   11   33 1  
    37   15   34 1  
    38   16   35 1  
    39   17   36 1  
    40   23   37 1  
    41   25   38 1  
    42   28   39 1  
@<TRIPOS>SUBSTRUCTURE
     1 52P         1

