### 
### Created by X-TOOL on Mon Sep 10 21:13:03 2018
### 

@<TRIPOS>MOLECULE
3hp9_ligand
   33    34     1     0     0
SMALL
GAST_HUCK


@<TRIPOS>ATOM
      1 O23        36.0090    0.7760   52.1580 O.co2     1 CF1        -0.5647
      2 C23        35.6480   -0.3810   51.8600 C.2       1 CF1         0.0546
      3 O24        36.1170   -0.9500   50.8520 O.co2     1 CF1        -0.5647
      4 C21        34.6360   -1.0940   52.7300 C.ar      1 CF1         0.0239
      5 C5         34.2310   -2.3910   52.4010 C.ar      1 CF1        -0.0287
      6 C4         33.2980   -3.0590   53.2000 C.ar      1 CF1         0.0820
      7 O1         32.8960   -4.3360   52.8800 O.3       1 CF1        -0.3283
      8 C2         33.7800   -5.4530   53.0460 C.3       1 CF1         0.0568
      9 C3         32.7610   -2.4300   54.3220 C.ar      1 CF1        -0.0399
     10 C8         33.1620   -1.1380   54.6580 C.ar      1 CF1        -0.0436
     11 C7         34.0830   -0.4600   53.8540 C.ar      1 CF1         0.0630
     12 N1         34.4330    0.8240   54.1250 N.pl3     1 CF1        -0.2722
     13 C9         33.6120    1.8410   54.5250 C.ar      1 CF1         0.1008
     14 C10        34.2200    3.0370   54.8730 C.ar      1 CF1         0.0938
     15 CL1        35.9870    3.1570   54.7830 Cl        1 CF1        -0.0498
     16 C11        33.4820    4.1400   55.2820 C.ar      1 CF1        -0.0264
     17 C12        32.1030    4.0500   55.3560 C.ar      1 CF1        -0.0424
     18 C15        32.2160    1.7470   54.5840 C.ar      1 CF1        -0.0111
     19 C13        31.4670    2.8550   55.0010 C.ar      1 CF1         0.0355
     20 C14        29.9730    2.7990   55.0930 C.3       1 CF1         0.3721
     21 F1         29.6200    3.1560   56.3070 F         1 CF1        -0.2221
     22 F3         29.4610    3.6410   54.2250 F         1 CF1        -0.2221
     23 F2         29.5110    1.5880   54.8330 F         1 CF1        -0.2221
     24 H1         34.6411   -2.8798   51.5247 H         1 CF1         0.0545
     25 H2         33.2678   -6.3754   52.7348 H         1 CF1         0.0573
     26 H3         34.0727   -5.5350   54.1031 H         1 CF1         0.0573
     27 H4         34.6775   -5.3055   52.4274 H         1 CF1         0.0573
     28 H5         32.0305   -2.9464   54.9342 H         1 CF1         0.0537
     29 H6         32.7595   -0.6588   55.5431 H         1 CF1         0.0513
     30 H7         35.4302    1.0579   54.0168 H         1 CF1         0.2072
     31 H8         33.9829    5.0656   55.5416 H         1 CF1         0.0676
     32 H9         31.5185    4.9007   55.6872 H         1 CF1         0.0761
     33 H10        31.7187    0.8239   54.3091 H         1 CF1         0.0737
@<TRIPOS>BOND
     1    1    2 ar 
     2    2    3 ar 
     3    2    4 1  
     4    4    5 ar 
     5    4   11 ar 
     6    5    6 ar 
     7    6    7 1  
     8    6    9 ar 
     9    7    8 1  
    10    9   10 ar 
    11   10   11 ar 
    12   11   12 1  
    13   12   13 1  
    14   13   14 ar 
    15   13   18 ar 
    16   14   15 1  
    17   14   16 ar 
    18   16   17 ar 
    19   17   19 ar 
    20   18   19 ar 
    21   19   20 1  
    22   20   21 1  
    23   20   22 1  
    24   20   23 1  
    25    5   24 1  
    26    8   25 1  
    27    8   26 1  
    28    8   27 1  
    29    9   28 1  
    30   10   29 1  
    31   12   30 1  
    32   16   31 1  
    33   17   32 1  
    34   18   33 1  
@<TRIPOS>SUBSTRUCTURE
     1 CF1         1

