### 
### Created by X-TOOL on Mon Sep 10 21:13:00 2018
### 

@<TRIPOS>MOLECULE
3hpt_ligand
   61    64     1     0     0
SMALL
GAST_HUCK


@<TRIPOS>ATOM
      1 O31         4.0830   13.1300   28.3470 O.2       1 YET        -0.3946
      2 C11         4.6360   12.8850   29.4030 C.2       1 YET         0.2012
      3 N27         5.6120   13.6490   29.8930 N.am      1 YET        -0.2716
      4 C20         6.2800   13.3690   31.1610 C.3       1 YET         0.0340
      5 C16         7.3100   14.4820   31.3020 C.3       1 YET        -0.0307
      6 C19         6.0970   14.8420   29.2040 C.3       1 YET         0.0340
      7 C15         7.3380   15.2480   29.9920 C.3       1 YET        -0.0307
      8 C23         4.2180   11.6790   30.2210 C.3       1 YET         0.1229
      9 N26         3.1820   10.9110   29.5410 N.am      1 YET        -0.2525
     10 C10         3.5190    9.8300   28.8250 C.2       1 YET         0.2057
     11 O30         4.6790    9.4630   28.7100 O.2       1 YET        -0.3941
     12 C18         1.8160   11.4330   29.7220 C.3       1 YET         0.0365
     13 C14         1.0340   10.4120   30.5530 C.3       1 YET        -0.0321
     14 C13         0.4480    9.3300   29.6430 C.3       1 YET        -0.0470
     15 C17         1.5260    8.3640   29.1300 C.3       1 YET        -0.0129
     16 C21         2.4460    9.0470   28.1160 C.3       1 YET         0.1195
     17 N29         3.0790    8.0360   27.2680 N.pl3     1 YET        -0.3182
     18 C12         2.5220    7.4820   26.1850 C.cat     1 YET         0.1774
     19 N25         1.2760    7.8430   25.8330 N.pl3     1 YET        -0.1928
     20 C1          0.6940    7.3810   24.8730 C.1       1 YET         0.2092
     21 N24         0.1270    6.9000   23.9810 N.1       1 YET        -0.3408
     22 N28         3.2160    6.5740   25.4700 N.pl3     1 YET        -0.2924
     23 C7          4.5290    6.1910   25.8150 C.ar      1 YET         0.0808
     24 C2          4.8310    5.8870   27.1510 C.ar      1 YET        -0.0041
     25 C4          5.5300    6.1240   24.8350 C.ar      1 YET         0.0011
     26 C6          6.8190    5.7480   25.2200 C.ar      1 YET         0.0709
     27 C8          7.0730    5.4610   26.5400 C.ar      1 YET         0.1816
     28 C3          6.1150    5.5160   27.5320 C.ar      1 YET         0.0092
     29 O32         8.4240    5.1050   26.6950 O.3       1 YET        -0.1764
     30 C9          8.9490    5.2030   25.4390 C.2       1 YET         0.2118
     31 C22        10.3940    4.8980   25.1880 C.3       1 YET         0.0552
     32 C5          8.0380    5.5900   24.4440 C.2       1 YET         0.0706
     33 H1          6.7716   12.3854   31.1328 H         1 YET         0.0522
     34 H2          5.5616   13.3962   31.9935 H         1 YET         0.0522
     35 H3          8.3016   14.0521   31.5066 H         1 YET         0.0285
     36 H4          7.0253   15.1549   32.1242 H         1 YET         0.0285
     37 H5          5.3411   15.6408   29.2272 H         1 YET         0.0522
     38 H6          6.3555   14.6120   28.1598 H         1 YET         0.0522
     39 H7          8.2449   14.9913   29.4249 H         1 YET         0.0285
     40 H8          7.3222   16.3303   30.1881 H         1 YET         0.0285
     41 H9          3.8310   12.0213   31.1921 H         1 YET         0.0765
     42 H10         5.0944   11.0341   30.3822 H         1 YET         0.0765
     43 H11         1.3334   11.5674   28.7427 H         1 YET         0.0524
     44 H12         1.8504   12.3977   30.2494 H         1 YET         0.0524
     45 H13         0.2168   10.9235   31.0825 H         1 YET         0.0285
     46 H14         1.7094    9.9450   31.2849 H         1 YET         0.0285
     47 H15        -0.0345    9.8139   28.7810 H         1 YET         0.0268
     48 H16        -0.3015    8.7575   30.2091 H         1 YET         0.0268
     49 H17         1.0372    7.5043   28.6483 H         1 YET         0.0313
     50 H18         2.1281    8.0138   29.9814 H         1 YET         0.0313
     51 H19         1.8510    9.7291   27.4909 H         1 YET         0.0796
     52 H20         4.0273    7.7268   27.5250 H         1 YET         0.1710
     53 H21         0.7905    8.5472   26.4068 H         1 YET         0.2270
     54 H22         2.7729    6.1458   24.6446 H         1 YET         0.1952
     55 H23         4.0488    5.9425   27.8994 H         1 YET         0.0854
     56 H24         5.3080    6.3591   23.8003 H         1 YET         0.0756
     57 H25         6.3535    5.2802   28.5628 H         1 YET         0.0711
     58 H26        10.6175    5.0354   24.1197 H         1 YET         0.0686
     59 H27        10.6045    3.8574   25.4758 H         1 YET         0.0686
     60 H28        11.0211    5.5773   25.7841 H         1 YET         0.0686
     61 H29         8.2007    5.7334   23.3768 H         1 YET         0.1050
@<TRIPOS>BOND
     1    1    2 2  
     2    2    3 am 
     3    2    8 1  
     4    3    4 1  
     5    3    6 1  
     6    4    5 1  
     7    5    7 1  
     8    6    7 1  
     9    8    9 1  
    10    9   10 am 
    11    9   12 1  
    12   10   11 2  
    13   10   16 1  
    14   12   13 1  
    15   13   14 1  
    16   14   15 1  
    17   15   16 1  
    18   16   17 1  
    19   17   18 ar 
    20   18   19 ar 
    21   18   22 ar 
    22   19   20 1  
    23   20   21 3  
    24   22   23 1  
    25   23   24 ar 
    26   23   25 ar 
    27   24   28 ar 
    28   25   26 ar 
    29   26   27 ar 
    30   26   32 1  
    31   27   28 ar 
    32   27   29 1  
    33   29   30 1  
    34   30   31 1  
    35   30   32 2  
    36    4   33 1  
    37    4   34 1  
    38    5   35 1  
    39    5   36 1  
    40    6   37 1  
    41    6   38 1  
    42    7   39 1  
    43    7   40 1  
    44    8   41 1  
    45    8   42 1  
    46   12   43 1  
    47   12   44 1  
    48   13   45 1  
    49   13   46 1  
    50   14   47 1  
    51   14   48 1  
    52   15   49 1  
    53   15   50 1  
    54   16   51 1  
    55   17   52 1  
    56   19   53 1  
    57   22   54 1  
    58   24   55 1  
    59   25   56 1  
    60   28   57 1  
    61   31   58 1  
    62   31   59 1  
    63   31   60 1  
    64   32   61 1  
@<TRIPOS>SUBSTRUCTURE
     1 YET         1

