### 
### Created by X-TOOL on Mon Sep 10 21:13:03 2018
### 

@<TRIPOS>MOLECULE
3hq5_ligand
   47    49     1     0     0
SMALL
GAST_HUCK


@<TRIPOS>ATOM
      1 CL1        -1.8590  -11.0890   28.2970 Cl        1 GKK        -0.0625
      2 C1         -3.4660   -4.1970   21.6290 C.3       1 GKK        -0.0430
      3 C2         -3.1340   -4.1110   24.0250 C.3       1 GKK        -0.0297
      4 C3         -3.4470   -5.0640   25.1480 C.3       1 GKK         0.0156
      5 C4         -4.0930   -6.2970   24.5670 C.3       1 GKK         0.0877
      6 C5         -4.0830   -6.0750   23.0700 C.3       1 GKK        -0.0083
      7 C9         -3.6260  -10.7350   22.3250 C.ar      1 GKK        -0.0405
      8 C10        -2.7230  -10.8860   21.3260 C.ar      1 GKK        -0.0392
      9 C8         -3.4280   -9.7670   23.2620 C.ar      1 GKK        -0.0273
     10 C7         -2.3420   -8.9410   23.2320 C.ar      1 GKK         0.0132
     11 C6         -2.1760   -7.8980   24.2740 C.3       1 GKK         0.0785
     12 N1         -3.2040   -4.9400   22.8360 N.4       1 GKK         0.2348
     13 C12        -1.4130   -9.1110   22.2230 C.ar      1 GKK         0.0509
     14 C13        -0.1850   -8.2650   22.1000 C.3       1 GKK         0.3705
     15 C14        -3.5570   -8.1090   26.1970 C.ar      1 GKK         0.0545
     16 C15        -4.4960   -7.6820   27.0870 C.ar      1 GKK        -0.0317
     17 N2         -3.3960   -7.5220   24.9300 N.pl3     1 GKK        -0.2780
     18 C16        -4.6450   -8.2630   28.3070 C.ar      1 GKK        -0.0380
     19 C17        -3.8610   -9.3070   28.7030 C.ar      1 GKK         0.0950
     20 C18        -4.0740   -9.8230   29.9950 C.1       1 GKK         0.0862
     21 N3         -4.2480  -10.2450   31.0510 N.1       1 GKK        -0.3396
     22 C19        -2.8930   -9.7820   27.8470 C.ar      1 GKK         0.0648
     23 C20        -2.7680   -9.1680   26.6150 C.ar      1 GKK        -0.0179
     24 C11        -1.6290  -10.0860   21.2770 C.ar      1 GKK        -0.0379
     25 F1          0.4690   -8.0600   23.1780 F         1 GKK        -0.2263
     26 F2          0.7090   -8.7210   21.2870 F         1 GKK        -0.2263
     27 F3         -0.3950   -7.0810   21.6910 F         1 GKK        -0.2263
     28 H1         -2.7504   -3.3655   21.5477 H         1 GKK         0.0778
     29 H2         -4.4904   -3.7975   21.6594 H         1 GKK         0.0778
     30 H3         -3.3570   -4.8609   20.7588 H         1 GKK         0.0778
     31 H4         -2.1283   -3.6818   24.1444 H         1 GKK         0.0815
     32 H5         -3.8760   -3.3001   23.9812 H         1 GKK         0.0815
     33 H6         -4.1359   -4.5850   25.8593 H         1 GKK         0.0341
     34 H7         -2.5183   -5.3422   25.6677 H         1 GKK         0.0341
     35 H8         -5.1303   -6.3720   24.9252 H         1 GKK         0.0613
     36 H9         -5.0983   -5.8519   22.7104 H         1 GKK         0.0837
     37 H10        -3.6992   -6.9676   22.5543 H         1 GKK         0.0837
     38 H11        -4.4970  -11.3782   22.3777 H         1 GKK         0.0834
     39 H12        -2.8748  -11.6451   20.5672 H         1 GKK         0.0648
     40 H13        -4.1558   -9.6488   24.0566 H         1 GKK         0.0636
     41 H14        -1.7489   -7.0019   23.8001 H         1 GKK         0.0763
     42 H15        -1.4784   -8.2783   25.0347 H         1 GKK         0.0763
     43 H16        -2.2822   -5.3282   22.7107 H         1 GKK         0.2031
     44 H17        -5.1426   -6.8557   26.8147 H         1 GKK         0.0547
     45 H18        -5.4056   -7.8875   28.9819 H         1 GKK         0.0685
     46 H19        -2.0078   -9.5369   25.9360 H         1 GKK         0.0550
     47 H20        -0.9103  -10.2175   20.4762 H         1 GKK         0.0820
@<TRIPOS>BOND
     1   22    1 1  
     2   12    2 1  
     3    4    3 1  
     4   12    3 1  
     5    5    4 1  
     6    5    6 1  
     7   17    5 1  
     8    6   12 1  
     9    7    8 ar 
    10    9    7 ar 
    11   24    8 ar 
    12   10    9 ar 
    13   11   10 1  
    14   10   13 ar 
    15   17   11 1  
    16   13   14 1  
    17   13   24 ar 
    18   14   25 1  
    19   14   26 1  
    20   14   27 1  
    21   16   15 ar 
    22   15   17 1  
    23   15   23 ar 
    24   18   16 ar 
    25   19   18 ar 
    26   19   20 1  
    27   19   22 ar 
    28   20   21 3  
    29   22   23 ar 
    30    2   28 1  
    31    2   29 1  
    32    2   30 1  
    33    3   31 1  
    34    3   32 1  
    35    4   33 1  
    36    4   34 1  
    37    5   35 1  
    38    6   36 1  
    39    6   37 1  
    40    7   38 1  
    41    8   39 1  
    42    9   40 1  
    43   11   41 1  
    44   11   42 1  
    45   12   43 1  
    46   16   44 1  
    47   18   45 1  
    48   23   46 1  
    49   24   47 1  
@<TRIPOS>SUBSTRUCTURE
     1 GKK         1

