### 
### Created by X-TOOL on Mon Sep 10 21:13:02 2018
### 

@<TRIPOS>MOLECULE
3hqr_ligand
   13    12     1     0     0
SMALL
GAST_HUCK


@<TRIPOS>ATOM
      1 C1         20.1520   -6.2860   -6.8020 C.2       1 OGA         0.1433
      2 C2         20.1790   -6.2880   -5.3170 C.2       1 OGA         0.2452
      3 C4         19.0940   -6.1970   -3.1380 C.3       1 OGA         0.0841
      4 C5         17.7230   -6.1580   -2.5530 C.2       1 OGA         0.0572
      5 O1         19.1040   -6.2460   -7.4020 O.co2     1 OGA        -0.5457
      6 O2         21.3110   -6.3190   -7.4660 O.co2     1 OGA        -0.5457
      7 O2'        21.2530   -6.3300   -4.7520 O.2       1 OGA        -0.3655
      8 O3         17.5970   -6.1160   -1.2300 O.co2     1 OGA        -0.5669
      9 N1         19.0350   -6.2330   -4.6060 N.am      1 OGA        -0.2659
     10 O4         16.7360   -6.1690   -3.2600 O.co2     1 OGA        -0.5669
     11 H1         19.6150   -7.0957   -2.7761 H         1 OGA         0.0691
     12 H2         19.6467   -5.3002   -2.8214 H         1 OGA         0.0691
     13 H3         18.1517   -6.2168   -5.0746 H         1 OGA         0.1886
@<TRIPOS>BOND
     1    2    1 1  
     2    1    5 ar 
     3    1    6 ar 
     4    2    7 2  
     5    9    2 am 
     6    3    4 1  
     7    3    9 1  
     8    4    8 ar 
     9    4   10 ar 
    10    3   11 1  
    11    3   12 1  
    12    9   13 1  
@<TRIPOS>SUBSTRUCTURE
     1 OGA         1

