### 
### Created by X-TOOL on Mon Sep 10 21:12:59 2018
### 

@<TRIPOS>MOLECULE
3hqw_ligand
   44    47     1     0     0
SMALL
GAST_HUCK


@<TRIPOS>ATOM
      1 C7         10.7060   15.8140   40.8570 C.ar      1 PF4        -0.0673
      2 C9          9.0760   17.8030   37.4190 C.2       1 PF4         0.1399
      3 C13        13.4670   16.2080   40.9450 C.ar      1 PF4        -0.0355
      4 C20        12.6850   22.1920   40.0820 C.ar      1 PF4         0.0912
      5 C8         12.6750   16.9530   40.0640 C.ar      1 PF4        -0.0673
      6 C18         7.4250   18.2930   35.5620 C.2       1 PF4        -0.0613
      7 C16        12.1930   21.2420   40.9690 C.ar      1 PF4        -0.0327
      8 C26        13.7100   24.4030   39.9140 C.3       1 PF4         0.0597
      9 O24        13.3640   23.2420   40.6610 O.3       1 PF4        -0.3208
     10 C15        12.4860   22.0440   38.6940 C.ar      1 PF4        -0.0327
     11 C10        11.7770   20.9240   38.2080 C.ar      1 PF4        -0.0614
     12 C11        11.5060   20.1340   40.4950 C.ar      1 PF4        -0.0614
     13 C5         11.3140   19.9810   39.1270 C.ar      1 PF4        -0.0050
     14 C2         10.5460   18.8250   38.6480 C.2       1 PF4         0.0822
     15 N6          9.6040   18.9780   37.6330 N.pl3     1 PF4        -0.2565
     16 C14         8.0330   17.5000   36.4620 C.2       1 PF4         0.0772
     17 S19         7.2910   15.9310   36.3700 S.3       1 PF4        -0.0334
     18 C23         6.1640   16.3330   35.0890 C.2       1 PF4        -0.0030
     19 C22         6.3780   17.6130   34.7830 C.2       1 PF4        -0.0704
     20 N4          9.6090   16.8910   38.2660 N.2       1 PF4        -0.3178
     21 C1         10.5150   17.5340   39.0480 C.2       1 PF4         0.0272
     22 C3         11.3010   16.7710   40.0360 C.ar      1 PF4        -0.0344
     23 C12        11.4780   15.0640   41.7490 C.ar      1 PF4        -0.0355
     24 C17        12.8720   15.2670   41.8040 C.ar      1 PF4         0.0885
     25 O21        13.5960   14.5080   42.6830 O.3       1 PF4        -0.3225
     26 C25        15.0300   14.6370   42.7920 C.3       1 PF4         0.0591
     27 H1          9.6358   15.6502   40.8032 H         1 PF4         0.0562
     28 H2         14.5406   16.3565   40.9653 H         1 PF4         0.0538
     29 H3         13.1377   17.6751   39.4010 H         1 PF4         0.0562
     30 H4          7.6836   19.3416   35.4226 H         1 PF4         0.0474
     31 H5         12.3466   21.3672   42.0347 H         1 PF4         0.0545
     32 H6         14.2439   25.1116   40.5642 H         1 PF4         0.0578
     33 H7         12.7954   24.8769   39.5283 H         1 PF4         0.0578
     34 H8         14.3582   24.1178   39.0723 H         1 PF4         0.0578
     35 H9         12.8747   22.7850   38.0048 H         1 PF4         0.0545
     36 H10        11.5965   20.7994   37.1464 H         1 PF4         0.0585
     37 H11        11.1217   19.3929   41.1865 H         1 PF4         0.0585
     38 H12         9.3684   19.8531   37.1436 H         1 PF4         0.2334
     39 H13         5.4325   15.6678   34.6326 H         1 PF4         0.0770
     40 H14         5.8129   18.1237   34.0047 H         1 PF4         0.0433
     41 H15        11.0077   14.3309   42.3944 H         1 PF4         0.0538
     42 H16        15.4042   13.9372   43.5537 H         1 PF4         0.0577
     43 H17        15.2844   15.6667   43.0835 H         1 PF4         0.0577
     44 H18        15.4938   14.4053   41.8219 H         1 PF4         0.0577
@<TRIPOS>BOND
     1   22    1 ar 
     2    1   23 ar 
     3    2   15 1  
     4    2   16 1  
     5   20    2 2  
     6    5    3 ar 
     7    3   24 ar 
     8    7    4 ar 
     9    4    9 1  
    10   10    4 ar 
    11   22    5 ar 
    12   16    6 2  
    13    6   19 1  
    14   12    7 ar 
    15    9    8 1  
    16   11   10 ar 
    17   13   11 ar 
    18   13   12 ar 
    19   14   13 1  
    20   14   15 1  
    21   21   14 2  
    22   16   17 1  
    23   17   18 1  
    24   18   19 2  
    25   21   20 1  
    26   21   22 1  
    27   23   24 ar 
    28   24   25 1  
    29   25   26 1  
    30    1   27 1  
    31    3   28 1  
    32    5   29 1  
    33    6   30 1  
    34    7   31 1  
    35    8   32 1  
    36    8   33 1  
    37    8   34 1  
    38   10   35 1  
    39   11   36 1  
    40   12   37 1  
    41   15   38 1  
    42   18   39 1  
    43   19   40 1  
    44   23   41 1  
    45   26   42 1  
    46   26   43 1  
    47   26   44 1  
@<TRIPOS>SUBSTRUCTURE
     1 PF4         1

