### 
### Created by X-TOOL on Mon Sep 10 21:12:59 2018
### 

@<TRIPOS>MOLECULE
3hqy_ligand
   50    54     1     0     0
SMALL
GAST_HUCK


@<TRIPOS>ATOM
      1 C7         12.5890   16.9420   43.2430 C.ar      1 PF6        -0.0633
      2 C6         15.4610   15.3580   46.1300 C.2       1 PF6         0.0468
      3 C13        12.1960   18.6640   47.1970 C.ar      1 PF6        -0.0315
      4 C20        11.4100   17.1080   38.6340 C.3       1 PF6         0.1214
      5 C21        10.2600   17.5710   37.7520 C.ar      1 PF6         0.0573
      6 C8         14.0860   15.8910   41.7090 C.ar      1 PF6        -0.0633
      7 C16        10.9840   18.6680   47.8500 C.ar      1 PF6         0.0030
      8 C26         8.1790   18.2860   36.1310 C.ar      1 PF6         0.0021
      9 C29         6.5840   16.2100   35.1550 C.ar      1 PF6        -0.0585
     10 C30         6.3190   17.5380   34.8320 C.ar      1 PF6        -0.0581
     11 C28         7.0970   18.5580   35.2960 C.ar      1 PF6        -0.0488
     12 C25         9.0060   19.3080   36.6640 C.ar      1 PF6        -0.0375
     13 C23        10.0600   18.9320   37.4700 C.ar      1 PF6        -0.0251
     14 C24         8.4400   16.9290   36.4710 C.ar      1 PF6         0.0363
     15 C27         7.6270   15.9020   35.9620 C.ar      1 PF6        -0.0435
     16 N22         9.4780   16.6420   37.2540 N.ar      1 PF6        -0.2978
     17 O18        11.2360   17.5770   39.9720 O.3       1 PF6        -0.3015
     18 C15        12.1250   17.0710   40.8920 C.ar      1 PF6         0.0949
     19 C12        13.2920   16.3320   40.6460 C.ar      1 PF6        -0.0324
     20 C11        11.8200   17.3630   42.2000 C.ar      1 PF6        -0.0324
     21 C3         13.7350   16.2110   43.0210 C.ar      1 PF6        -0.0254
     22 C1         14.5150   15.7250   44.1660 C.2       1 PF6         0.0359
     23 C2         14.6530   16.2490   45.4260 C.2       1 PF6        -0.0118
     24 N9         15.7830   14.3500   45.3670 N.pl3     1 PF6        -0.2299
     25 N4         15.1800   14.5370   44.1350 N.2       1 PF6        -0.2214
     26 C5         14.1010   17.5500   46.0070 C.3       1 PF6         0.0083
     27 C10        12.7790   17.4750   46.7420 C.ar      1 PF6        -0.0177
     28 N19        10.3680   17.5240   48.1050 N.ar      1 PF6        -0.3068
     29 C17        10.8910   16.3610   47.7100 C.ar      1 PF6         0.0030
     30 C14        12.1090   16.2900   47.0240 C.ar      1 PF6        -0.0315
     31 H1         12.2958   17.1849   44.2580 H         1 PF6         0.0588
     32 H2         15.7770   15.4846   47.1644 H         1 PF6         0.0883
     33 H3         12.7110   19.6033   47.0312 H         1 PF6         0.0652
     34 H4         12.3552   17.5022   38.2326 H         1 PF6         0.0825
     35 H5         11.4433   16.0085   38.6375 H         1 PF6         0.0825
     36 H6         14.9740   15.3007   41.5139 H         1 PF6         0.0588
     37 H7         10.5347   19.6062   48.1549 H         1 PF6         0.0802
     38 H8          5.9543   15.4211   34.7598 H         1 PF6         0.0645
     39 H9          5.4723   17.7675   34.1952 H         1 PF6         0.0622
     40 H10         6.8734   19.5808   35.0150 H         1 PF6         0.0649
     41 H11         8.8153   20.3523   36.4445 H         1 PF6         0.0764
     42 H12        10.7277   19.6800   37.8819 H         1 PF6         0.0661
     43 H13         7.8337   14.8682   36.2141 H         1 PF6         0.0623
     44 H14        13.5795   16.1018   39.6265 H         1 PF6         0.0545
     45 H15        10.9337   17.9508   42.4098 H         1 PF6         0.0545
     46 H16        16.3807   13.5549   45.6342 H         1 PF6         0.2537
     47 H17        13.9765   18.2576   45.1741 H         1 PF6         0.0542
     48 H18        14.8494   17.9412   46.7118 H         1 PF6         0.0542
     49 H19        10.3560   15.4436   47.9272 H         1 PF6         0.0802
     50 H20        12.5199   15.3341   46.7200 H         1 PF6         0.0652
@<TRIPOS>BOND
     1    1   20 ar 
     2   21    1 ar 
     3   23    2 2  
     4    2   24 1  
     5    3    7 ar 
     6   27    3 ar 
     7    4    5 1  
     8   17    4 1  
     9    5   13 ar 
    10    5   16 ar 
    11    6   19 ar 
    12   21    6 ar 
    13    7   28 ar 
    14    8   11 ar 
    15   12    8 ar 
    16   14    8 ar 
    17    9   10 ar 
    18   15    9 ar 
    19   11   10 ar 
    20   13   12 ar 
    21   14   15 ar 
    22   16   14 ar 
    23   18   17 1  
    24   19   18 ar 
    25   20   18 ar 
    26   22   21 1  
    27   23   22 1  
    28   22   25 2  
    29   26   23 1  
    30   25   24 1  
    31   26   27 1  
    32   27   30 ar 
    33   28   29 ar 
    34   29   30 ar 
    35    1   31 1  
    36    2   32 1  
    37    3   33 1  
    38    4   34 1  
    39    4   35 1  
    40    6   36 1  
    41    7   37 1  
    42    9   38 1  
    43   10   39 1  
    44   11   40 1  
    45   12   41 1  
    46   13   42 1  
    47   15   43 1  
    48   19   44 1  
    49   20   45 1  
    50   24   46 1  
    51   26   47 1  
    52   26   48 1  
    53   29   49 1  
    54   30   50 1  
@<TRIPOS>SUBSTRUCTURE
     1 PF6         1

