### 
### Created by X-TOOL on Mon Sep 10 21:13:01 2018
### 

@<TRIPOS>MOLECULE
3hqz_ligand
   47    51     1     0     0
SMALL
GAST_HUCK


@<TRIPOS>ATOM
      1 C7         12.4910   18.4590   43.1850 C.ar      1 PF8        -0.0565
      2 C6         14.1330   16.7540   47.1670 C.2       1 PF8         0.0096
      3 C13        11.1530   16.2240   42.1140 C.ar      1 PF8        -0.0289
      4 C20         9.6420   18.5580   38.2220 C.ar      1 PF8         0.0574
      5 C8         11.7410   16.1760   43.3920 C.ar      1 PF8        -0.0565
      6 C16        11.2260   17.4100   41.3740 C.ar      1 PF8         0.0984
      7 C19        10.7240   18.6460   39.2810 C.3       1 PF8         0.1222
      8 C26         7.5620   15.9460   36.7660 C.ar      1 PF8        -0.0435
      9 C29         6.0990   16.9220   35.1120 C.ar      1 PF8        -0.0581
     10 C28         6.5670   15.8080   35.8040 C.ar      1 PF8        -0.0585
     11 C23         8.1110   17.2100   37.0140 C.ar      1 PF8         0.0363
     12 N21         9.0980   17.3460   37.9460 N.ar      1 PF8        -0.2978
     13 C27         6.6490   18.1860   35.3570 C.ar      1 PF8        -0.0488
     14 C25         7.6500   18.3350   36.3140 C.ar      1 PF8         0.0021
     15 C24         8.2020   19.5970   36.5870 C.ar      1 PF8        -0.0375
     16 C22         9.2080   19.7040   37.5530 C.ar      1 PF8        -0.0251
     17 O18        10.6520   17.4780   40.1210 O.3       1 PF8        -0.2992
     18 C12        11.8980   18.5180   41.9170 C.ar      1 PF8        -0.0289
     19 C3         12.4110   17.2880   43.9340 C.ar      1 PF8         0.0063
     20 C1         13.0490   17.2210   45.2890 C.2       1 PF8         0.0990
     21 C2         13.8360   16.2590   45.9090 C.2       1 PF8         0.0155
     22 N9         13.5460   17.9760   47.2840 N.2       1 PF8        -0.2153
     23 N4         12.8600   18.2710   46.0990 N.pl3     1 PF8        -0.2114
     24 C5         14.2750   14.9530   45.3350 C.ar      1 PF8        -0.0169
     25 C11        14.5610   14.8480   43.9700 C.ar      1 PF8        -0.0366
     26 C15        14.9620   13.6200   43.4520 C.ar      1 PF8         0.0024
     27 N17        15.0790   12.5580   44.2660 N.ar      1 PF8        -0.3073
     28 C14        14.8090   12.6220   45.5910 C.ar      1 PF8         0.0024
     29 C10        14.3960   13.8330   46.1560 C.ar      1 PF8        -0.0366
     30 H1         13.0110   19.3233   43.5821 H         1 PF8         0.0615
     31 H2         14.7304   16.2542   47.9281 H         1 PF8         0.0690
     32 H3         10.6501   15.3537   41.7081 H         1 PF8         0.0554
     33 H4         11.6761   15.2621   43.9713 H         1 PF8         0.0615
     34 H5         10.5714   19.5489   39.8905 H         1 PF8         0.0826
     35 H6         11.7109   18.6925   38.7974 H         1 PF8         0.0826
     36 H7          7.9099   15.0814   37.3197 H         1 PF8         0.0623
     37 H8          5.3062   16.8102   34.3812 H         1 PF8         0.0622
     38 H9          6.1539   14.8285   35.5919 H         1 PF8         0.0645
     39 H10         6.2961   19.0479   34.8024 H         1 PF8         0.0649
     40 H11         7.8535   20.4758   36.0567 H         1 PF8         0.0764
     41 H12         9.6470   20.6687   37.7803 H         1 PF8         0.0661
     42 H13        11.9588   19.4361   41.3439 H         1 PF8         0.0554
     43 H14        12.3195   19.1231   45.8922 H         1 PF8         0.2557
     44 H15        14.4714   15.7131   43.3229 H         1 PF8         0.0658
     45 H16        15.1793   13.5209   42.3946 H         1 PF8         0.0799
     46 H17        14.9124   11.7389   46.2111 H         1 PF8         0.0799
     47 H18        14.1737   13.8995   47.2149 H         1 PF8         0.0658
@<TRIPOS>BOND
     1    1   18 ar 
     2   19    1 ar 
     3   21    2 1  
     4    2   22 2  
     5    5    3 ar 
     6    3    6 ar 
     7    7    4 1  
     8    4   12 ar 
     9    4   16 ar 
    10   19    5 ar 
    11    6   17 1  
    12   18    6 ar 
    13   17    7 1  
    14    8   10 ar 
    15   11    8 ar 
    16   10    9 ar 
    17   13    9 ar 
    18   12   11 ar 
    19   11   14 ar 
    20   14   13 ar 
    21   15   14 ar 
    22   16   15 ar 
    23   20   19 1  
    24   20   21 2  
    25   20   23 1  
    26   21   24 1  
    27   22   23 1  
    28   24   25 ar 
    29   24   29 ar 
    30   25   26 ar 
    31   26   27 ar 
    32   27   28 ar 
    33   28   29 ar 
    34    1   30 1  
    35    2   31 1  
    36    3   32 1  
    37    5   33 1  
    38    7   34 1  
    39    7   35 1  
    40    8   36 1  
    41    9   37 1  
    42   10   38 1  
    43   13   39 1  
    44   15   40 1  
    45   16   41 1  
    46   18   42 1  
    47   23   43 1  
    48   25   44 1  
    49   26   45 1  
    50   28   46 1  
    51   29   47 1  
@<TRIPOS>SUBSTRUCTURE
     1 PF8         1

