### 
### Created by X-TOOL on Mon Sep 10 21:13:00 2018
### 

@<TRIPOS>MOLECULE
3hr1_ligand
   50    54     1     0     0
SMALL
GAST_HUCK


@<TRIPOS>ATOM
      1 C4         12.4000   18.3090   42.6760 C.ar      1 PF9        -0.0620
      2 C7         10.9900   16.0890   41.6810 C.ar      1 PF9        -0.0315
      3 C6         14.3300   13.8060   45.6820 C.ar      1 PF9        -0.0361
      4 C9         14.8660   13.4860   42.9860 C.ar      1 PF9         0.0029
      5 C20         7.6050   18.2670   35.8770 C.ar      1 PF9         0.0021
      6 C21         7.4610   15.8700   36.2800 C.ar      1 PF9        -0.0435
      7 C8         11.8110   18.3630   41.4170 C.ar      1 PF9        -0.0315
      8 C18         8.0390   17.1080   36.5520 C.ar      1 PF9         0.0363
      9 C19         8.1950   19.5110   36.1570 C.ar      1 PF9        -0.0375
     10 C26        13.7230   16.1940   45.3910 C.2       1 PF9         0.0176
     11 C30        13.3950   18.8980   47.8480 C.3       1 PF9         0.0622
     12 N28        13.4610   17.8650   46.7770 N.pl3     1 PF9        -0.2040
     13 C27        14.0530   16.6660   46.6610 C.2       1 PF9         0.0695
     14 C2         14.1770   14.8950   44.8280 C.ar      1 PF9        -0.0162
     15 C10        14.7520   12.5790   45.1570 C.ar      1 PF9         0.0029
     16 N12        15.0060   12.4530   43.8370 N.ar      1 PF9        -0.3066
     17 C5         14.4480   14.7330   43.4690 C.ar      1 PF9        -0.0361
     18 N29        12.7430   18.1890   45.6330 N.2       1 PF9        -0.2089
     19 C25        12.9120   17.1570   44.7850 C.2       1 PF9         0.0450
     20 C1         12.2860   17.1460   43.4370 C.ar      1 PF9        -0.0218
     21 C11        11.1090   17.2590   40.9180 C.ar      1 PF9         0.0958
     22 C3         11.5750   16.0440   42.9520 C.ar      1 PF9        -0.0620
     23 O13        10.5300   17.3160   39.6790 O.3       1 PF9        -0.3009
     24 C14        10.6930   18.4410   38.8160 C.3       1 PF9         0.1216
     25 C15         9.6050   18.3970   37.7690 C.ar      1 PF9         0.0573
     26 C17         9.2020   19.5750   37.1280 C.ar      1 PF9        -0.0251
     27 C22         6.5860   18.1520   34.9260 C.ar      1 PF9        -0.0488
     28 C24         6.0000   16.9060   34.6700 C.ar      1 PF9        -0.0581
     29 C23         6.4480   15.7620   35.3360 C.ar      1 PF9        -0.0585
     30 N16         9.0340   17.1940   37.4770 N.ar      1 PF9        -0.2978
     31 H1         12.9431   19.1639   43.0624 H         1 PF9         0.0595
     32 H2         10.4527   15.2315   41.2924 H         1 PF9         0.0547
     33 H3         14.1246   13.9073   46.7415 H         1 PF9         0.0661
     34 H4         15.0758   13.3538   41.9307 H         1 PF9         0.0801
     35 H5          7.8034   14.9871   36.8075 H         1 PF9         0.0623
     36 H6         11.8958   19.2636   40.8196 H         1 PF9         0.0547
     37 H7          7.8768   20.4041   35.6315 H         1 PF9         0.0764
     38 H8         13.9863   18.5663   48.7142 H         1 PF9         0.0610
     39 H9         12.3482   19.0438   48.1529 H         1 PF9         0.0610
     40 H10        13.8018   19.8467   47.4680 H         1 PF9         0.0610
     41 H11        14.6666   16.1636   47.4074 H         1 PF9         0.1080
     42 H12        14.8755   11.7254   45.8137 H         1 PF9         0.0801
     43 H13        14.3355   15.5695   42.7888 H         1 PF9         0.0661
     44 H14        11.4766   15.1530   43.5615 H         1 PF9         0.0595
     45 H15        11.6788   18.3973   38.3300 H         1 PF9         0.0825
     46 H16        10.6119   19.3710   39.3978 H         1 PF9         0.0825
     47 H17         9.6631   20.5232   37.3799 H         1 PF9         0.0661
     48 H18         6.2490   19.0293   34.3858 H         1 PF9         0.0649
     49 H19         5.1932   16.8284   33.9502 H         1 PF9         0.0622
     50 H20         6.0075   14.7960   35.1171 H         1 PF9         0.0645
@<TRIPOS>BOND
     1    7    1 ar 
     2    1   20 ar 
     3   21    2 ar 
     4    2   22 ar 
     5   14    3 ar 
     6    3   15 ar 
     7    4   16 ar 
     8   17    4 ar 
     9    5    8 ar 
    10    9    5 ar 
    11    5   27 ar 
    12    8    6 ar 
    13    6   29 ar 
    14   21    7 ar 
    15    8   30 ar 
    16   26    9 ar 
    17   10   13 2  
    18   10   14 1  
    19   19   10 1  
    20   12   11 1  
    21   12   13 1  
    22   18   12 1  
    23   14   17 ar 
    24   15   16 ar 
    25   19   18 2  
    26   20   19 1  
    27   22   20 ar 
    28   23   21 1  
    29   24   23 1  
    30   25   24 1  
    31   25   26 ar 
    32   25   30 ar 
    33   27   28 ar 
    34   28   29 ar 
    35    1   31 1  
    36    2   32 1  
    37    3   33 1  
    38    4   34 1  
    39    6   35 1  
    40    7   36 1  
    41    9   37 1  
    42   11   38 1  
    43   11   39 1  
    44   11   40 1  
    45   13   41 1  
    46   15   42 1  
    47   17   43 1  
    48   22   44 1  
    49   24   45 1  
    50   24   46 1  
    51   26   47 1  
    52   27   48 1  
    53   28   49 1  
    54   29   50 1  
@<TRIPOS>SUBSTRUCTURE
     1 PF9         1

