### 
### Created by X-TOOL on Mon Sep 10 21:13:01 2018
### 

@<TRIPOS>MOLECULE
3hrb_ligand
   40    42     1     0     0
SMALL
GAST_HUCK


@<TRIPOS>ATOM
      1 O10         2.2140   29.7770   31.6700 O.2       1 I39        -0.3757
      2 C9          2.7160   30.8430   31.3370 C.2       1 I39         0.1641
      3 C4          4.1970   30.9400   31.1040 C.ar      1 I39         0.0628
      4 C3          4.9840   31.6400   32.0030 C.ar      1 I39         0.1502
      5 F8          4.4390   32.2310   33.0770 F         1 I39        -0.1783
      6 C2          6.3560   31.7360   31.8160 C.ar      1 I39         0.0115
      7 C5          4.7900   30.3370   30.0050 C.ar      1 I39        -0.0469
      8 C6          6.1660   30.4330   29.8100 C.ar      1 I39        -0.0262
      9 C1          6.9490   31.1350   30.7200 C.ar      1 I39         0.1360
     10 F7          8.2770   31.2680   30.5650 F         1 I39        -0.1803
     11 C11         1.8410   32.0540   31.1620 C.ar      1 I39         0.1110
     12 C16         2.3570   33.1390   30.4880 C.ar      1 I39         0.0054
     13 C15         1.5810   34.2710   30.3030 C.ar      1 I39         0.0571
     14 N14         0.3430   34.3180   30.7390 N.ar      1 I39        -0.1936
     15 O23        -0.3950   35.5130   30.4990 O.3       1 I39        -0.2640
     16 C13        -0.2170   33.2800   31.3820 C.ar      1 I39         0.1761
     17 C12         0.5170   32.1250   31.6190 C.ar      1 I39         0.1656
     18 N24        -0.0600   31.0810   32.2760 N.pl3     1 I39        -0.2860
     19 C17        -1.6250   33.3650   31.8760 C.ar      1 I39         0.0759
     20 C22        -2.7070   32.9420   31.1000 C.ar      1 I39         0.0174
     21 C25        -2.5250   32.3920   29.7060 C.3       1 I39        -0.0083
     22 C21        -3.9990   33.0260   31.6120 C.ar      1 I39        -0.0192
     23 C20        -4.2110   33.5160   32.8980 C.ar      1 I39        -0.0320
     24 C19        -3.1300   33.9380   33.6760 C.ar      1 I39        -0.0307
     25 C18        -1.8390   33.8600   33.1590 C.ar      1 I39        -0.0143
     26 H1          6.9631   32.2821   32.5290 H         1 I39         0.0602
     27 H2          4.1808   29.7891   29.2953 H         1 I39         0.0649
     28 H3          6.6261   29.9608   28.9495 H         1 I39         0.0583
     29 H4          3.3697   33.1067   30.1027 H         1 I39         0.0946
     30 H5          2.0009   35.1296   29.7916 H         1 I39         0.0924
     31 H6          0.0458   36.2449   30.9144 H         1 I39         0.2696
     32 H7          0.4805   30.2225   32.4540 H         1 I39         0.2137
     33 H8         -1.0369   31.1499   32.5950 H         1 I39         0.2137
     34 H9         -3.5060   32.1242   29.2865 H         1 I39         0.0500
     35 H10        -1.8865   31.4972   29.7453 H         1 I39         0.0500
     36 H11        -2.0500   33.1538   29.0703 H         1 I39         0.0500
     37 H12        -4.8417   32.7093   31.0082 H         1 I39         0.0654
     38 H13        -5.2176   33.5702   33.2966 H         1 I39         0.0891
     39 H14        -3.2949   34.3236   34.6756 H         1 I39         0.0724
     40 H15        -0.9971   34.1864   33.7587 H         1 I39         0.0780
@<TRIPOS>BOND
     1    1    2 2  
     2    2    3 1  
     3    2   11 1  
     4    3    4 ar 
     5    3    7 ar 
     6    4    5 1  
     7    4    6 ar 
     8    6    9 ar 
     9    7    8 ar 
    10    8    9 ar 
    11    9   10 1  
    12   11   12 ar 
    13   11   17 ar 
    14   12   13 ar 
    15   13   14 ar 
    16   14   15 1  
    17   14   16 ar 
    18   16   17 ar 
    19   16   19 1  
    20   17   18 1  
    21   19   20 ar 
    22   19   25 ar 
    23   20   21 1  
    24   20   22 ar 
    25   22   23 ar 
    26   23   24 ar 
    27   24   25 ar 
    28    6   26 1  
    29    7   27 1  
    30    8   28 1  
    31   12   29 1  
    32   13   30 1  
    33   15   31 1  
    34   18   32 1  
    35   18   33 1  
    36   21   34 1  
    37   21   35 1  
    38   21   36 1  
    39   22   37 1  
    40   23   38 1  
    41   24   39 1  
    42   25   40 1  
@<TRIPOS>SUBSTRUCTURE
     1 I39         1

