### 
### Created by X-TOOL on Mon Sep 10 21:12:59 2018
### 

@<TRIPOS>MOLECULE
3hrf_ligand
   34    35     1     0     0
SMALL
GAST_HUCK


@<TRIPOS>ATOM
      1 OAA        11.8540   -7.6140  -15.4780 O.co2     1 P47        -0.5702
      2 CAP        11.4760   -7.0630  -14.4060 C.2       1 P47         0.0374
      3 OAB        10.3800   -7.3030  -13.8390 O.co2     1 P47        -0.5702
      4 CAD        12.3550   -6.0770  -13.7470 C.2       1 P47        -0.0373
      5 CAQ        13.6440   -6.2800  -13.4440 C.2       1 P47        -0.0271
      6 CAT        14.3420   -7.5800  -13.7330 C.ar      1 P47        -0.0105
      7 CAK        15.4060   -7.6310  -14.6360 C.ar      1 P47        -0.0501
      8 CAG        16.0470   -8.8390  -14.9020 C.ar      1 P47        -0.0586
      9 CAE        15.6030  -10.0010  -14.2720 C.ar      1 P47        -0.0595
     10 CAF        14.5390   -9.9630  -13.3770 C.ar      1 P47        -0.0586
     11 CAJ        13.9060   -8.7550  -13.1060 C.ar      1 P47        -0.0501
     12 CAN        14.3370   -5.1290  -12.7450 C.3       1 P47        -0.0046
     13 CAO        15.5420   -4.5170  -13.4540 C.3       1 P47        -0.0076
     14 CAS        16.6200   -4.4000  -12.3960 C.ar      1 P47        -0.0405
     15 CAL        17.9230   -4.7950  -12.7050 C.ar      1 P47        -0.0595
     16 CAM        16.3040   -3.9190  -11.1170 C.ar      1 P47        -0.0595
     17 CAI        17.3020   -3.8290  -10.1470 C.ar      1 P47        -0.0546
     18 CAR        18.6030   -4.2290  -10.4720 C.ar      1 P47         0.0330
     19 CLAC       19.8920   -4.1250   -9.2390 Cl        1 P47        -0.0771
     20 CAH        18.9210   -4.7140  -11.7420 C.ar      1 P47        -0.0546
     21 H1         11.9229   -5.1116  -13.4876 H         1 P47         0.0441
     22 H2         15.7351   -6.7255  -15.1328 H         1 P47         0.0647
     23 H3         16.8825   -8.8752  -15.5918 H         1 P47         0.0624
     24 H4         16.0928  -10.9449  -14.4822 H         1 P47         0.0636
     25 H5         14.2041  -10.8728  -12.8920 H         1 P47         0.0624
     26 H6         13.0756   -8.7222  -12.4100 H         1 P47         0.0647
     27 H7         14.6775   -5.4921  -11.7641 H         1 P47         0.0475
     28 H8         13.5940   -4.3304  -12.6027 H         1 P47         0.0475
     29 H9         15.2884   -3.5247  -13.8553 H         1 P47         0.0452
     30 H10        15.8775   -5.1693  -14.2737 H         1 P47         0.0452
     31 H11        18.1560   -5.1651  -13.6969 H         1 P47         0.0557
     32 H12        15.2889   -3.6186  -10.8835 H         1 P47         0.0557
     33 H13        17.0732   -3.4546   -9.1557 H         1 P47         0.0606
     34 H14        19.9337   -5.0234  -11.9737 H         1 P47         0.0606
@<TRIPOS>BOND
     1    1    2 ar 
     2    2    3 ar 
     3    2    4 1  
     4    4    5 2  
     5    5    6 1  
     6    5   12 1  
     7    6    7 ar 
     8    6   11 ar 
     9    7    8 ar 
    10    8    9 ar 
    11    9   10 ar 
    12   10   11 ar 
    13   12   13 1  
    14   13   14 1  
    15   14   15 ar 
    16   14   16 ar 
    17   15   20 ar 
    18   16   17 ar 
    19   17   18 ar 
    20   18   19 1  
    21   18   20 ar 
    22    4   21 1  
    23    7   22 1  
    24    8   23 1  
    25    9   24 1  
    26   10   25 1  
    27   11   26 1  
    28   12   27 1  
    29   12   28 1  
    30   13   29 1  
    31   13   30 1  
    32   15   31 1  
    33   16   32 1  
    34   17   33 1  
    35   20   34 1  
@<TRIPOS>SUBSTRUCTURE
     1 P47         1

