### 
### Created by X-TOOL on Mon Sep 10 21:12:59 2018
### 

@<TRIPOS>MOLECULE
3hs4_ligand
   19    19     1     0     0
SMALL
GAST_HUCK


@<TRIPOS>ATOM
      1 C1         -5.0950    2.0810   15.8000 C.2       1 AZM         0.2562
      2 C2         -4.6920    3.9590   14.3420 C.2       1 AZM         0.2252
      3 C3         -5.8420    5.6620   13.1470 C.2       1 AZM         0.2120
      4 C4         -5.6970    6.7650   12.1200 C.3       1 AZM         0.0337
      5 N1         -5.4240   -0.5550   16.1880 N.am      1 AZM        -0.2565
      6 N2         -3.5970    3.3260   14.7090 N.2       1 AZM        -0.2573
      7 N3         -3.8200    2.1850   15.5420 N.2       1 AZM        -0.2476
      8 N4         -4.6850    5.0760   13.5080 N.am      1 AZM        -0.1925
      9 O1         -5.3270    1.0560   18.0820 O.2       1 AZM        -0.1452
     10 O2         -7.2460    1.0490   16.5670 O.2       1 AZM        -0.1452
     11 O3         -6.9360    5.2920   13.5500 O.2       1 AZM        -0.3804
     12 S1         -5.8540    0.8210   16.7930 S.o2      1 AZM         0.0991
     13 S2         -6.0730    3.3040   15.0330 S.3       1 AZM         0.0874
     14 H1         -6.6879    7.1824   11.8878 H         1 AZM         0.0474
     15 H2         -5.2476    6.3557   11.2032 H         1 AZM         0.0474
     16 H3         -5.0502    7.5584   12.5228 H         1 AZM         0.0474
     17 H4         -5.7459   -1.4061   16.6028 H         1 AZM         0.1638
     18 H5         -4.8270   -0.5840   15.3863 H         1 AZM         0.1638
     19 H6         -3.8163    5.4438   13.1763 H         1 AZM         0.2411
@<TRIPOS>BOND
     1    1    7 2  
     2    1   12 1  
     3   13    1 1  
     4    2    6 2  
     5    8    2 1  
     6    2   13 1  
     7    3    4 1  
     8    3    8 am 
     9    3   11 2  
    10   12    5 am 
    11    6    7 1  
    12   12    9 2  
    13   12   10 2  
    14    4   14 1  
    15    4   15 1  
    16    4   16 1  
    17    5   17 1  
    18    5   18 1  
    19    8   19 1  
@<TRIPOS>SUBSTRUCTURE
     1 AZM         1

