### 
### Created by X-TOOL on Mon Sep 10 21:13:04 2018
### 

@<TRIPOS>MOLECULE
3hub_ligand
   67    70     1     0     0
SMALL
GAST_HUCK


@<TRIPOS>ATOM
      1 CAC        23.3340    7.5090  -27.9140 C.3       1 469         0.0231
      2 NBG        22.7820    8.6990  -27.1480 N.am      1 469        -0.2697
      3 CAD        23.3850   10.0280  -27.3800 C.3       1 469         0.0231
      4 CAV        21.7490    8.5850  -26.2310 C.2       1 469         0.2628
      5 OAG        21.3040    9.5420  -25.5950 O.2       1 469        -0.3616
      6 CAU        21.1240    7.1880  -25.8850 C.2       1 469         0.2134
      7 OAF        21.5210    6.2570  -26.5740 O.2       1 469        -0.3592
      8 CBB        19.9110    6.9160  -24.9880 C.2       1 469         0.0506
      9 CBC        19.4060    5.6500  -24.7460 C.ar      1 469        -0.0014
     10 CAP        19.8400    4.3680  -25.0650 C.ar      1 469        -0.0513
     11 CAQ        19.0510    7.8340  -24.5030 C.2       1 469         0.0539
     12 NBJ        18.0400    7.1880  -23.9040 N.pl3     1 469        -0.2557
     13 CAE        16.9630    7.8460  -23.1960 C.3       1 469         0.0448
     14 CBD        18.2150    5.8560  -24.0230 C.ar      1 469         0.0766
     15 CAO        17.4620    4.7540  -23.6110 C.ar      1 469        -0.0227
     16 CAY        17.9070    3.4740  -23.9050 C.ar      1 469         0.0459
     17 CLA        16.9030    2.1580  -23.3790 Cl        1 469        -0.0745
     18 CBA        19.0930    3.2870  -24.6360 C.ar      1 469         0.0474
     19 CAW        19.6330    1.8900  -24.9520 C.2       1 469         0.2001
     20 OAH        19.8200    1.5200  -26.0970 O.2       1 469        -0.3887
     21 NBI        19.9810    1.1290  -23.8830 N.am      1 469        -0.2606
     22 CBF        20.5040   -0.2380  -23.9710 C.3       1 469         0.0815
     23 CAS        21.6810   -0.2880  -23.0430 C.3       1 469        -0.0068
     24 CAB        19.4290   -1.2350  -23.4520 C.3       1 469        -0.0369
     25 CAT        19.7190    1.6610  -22.4870 C.3       1 469         0.0762
     26 CBE        20.8870    1.5350  -21.5500 C.3       1 469        -0.0016
     27 CAA        21.9300    2.5430  -22.0670 C.3       1 469        -0.0197
     28 NBH        21.2560    0.1040  -21.6760 N.4       1 469         0.2516
     29 CAR        22.2790   -0.3190  -20.7460 C.3       1 469         0.0006
     30 CAZ        22.7890   -1.7770  -20.8740 C.ar      1 469        -0.0024
     31 CAM        24.0910   -2.0300  -21.3830 C.ar      1 469        -0.0570
     32 CAK        24.5500   -3.3550  -21.4390 C.ar      1 469        -0.0347
     33 CAX        23.7280   -4.4150  -20.9840 C.ar      1 469         0.1248
     34 FAI        24.1680   -5.7040  -21.0340 F         1 469        -0.1893
     35 CAL        22.4350   -4.1580  -20.4980 C.ar      1 469        -0.0347
     36 CAN        21.9670   -2.8330  -20.4280 C.ar      1 469        -0.0570
     37 H1         24.1438    7.8444  -28.5786 H         1 469         0.0488
     38 H2         22.5316    7.0550  -28.5140 H         1 469         0.0488
     39 H3         23.7263    6.7660  -27.2041 H         1 469         0.0488
     40 H4         22.8761   10.7758  -26.7541 H         1 469         0.0488
     41 H5         23.2747   10.3007  -28.4399 H         1 469         0.0488
     42 H6         24.4530    9.9968  -27.1186 H         1 469         0.0488
     43 H7         20.7472    4.2192  -25.6394 H         1 469         0.0603
     44 H8         19.1588    8.9146  -24.5838 H         1 469         0.1082
     45 H9         17.0859    8.9364  -23.2730 H         1 469         0.0574
     46 H10        16.9846    7.5485  -22.1372 H         1 469         0.0574
     47 H11        15.9999    7.5534  -23.6396 H         1 469         0.0574
     48 H12        16.5365    4.8984  -23.0654 H         1 469         0.0565
     49 H13        20.7965   -0.4852  -25.0022 H         1 469         0.0608
     50 H14        22.4566    0.4064  -23.3981 H         1 469         0.0837
     51 H15        22.0863   -1.3103  -23.0210 H         1 469         0.0837
     52 H16        19.8191   -2.2614  -23.5170 H         1 469         0.0254
     53 H17        18.5211   -1.1482  -24.0669 H         1 469         0.0254
     54 H18        19.1866   -1.0006  -22.4050 H         1 469         0.0254
     55 H19        18.8721    1.1045  -22.0591 H         1 469         0.0578
     56 H20        19.4549    2.7258  -22.5676 H         1 469         0.0578
     57 H21        20.6212    1.7716  -20.5092 H         1 469         0.0869
     58 H22        22.8228    2.5084  -21.4253 H         1 469         0.0285
     59 H23        21.5025    3.5563  -22.0460 H         1 469         0.0285
     60 H24        22.2099    2.2843  -23.0989 H         1 469         0.0285
     61 H25        20.4222   -0.4201  -21.4611 H         1 469         0.2052
     62 H26        21.8746   -0.1972  -19.7303 H         1 469         0.0972
     63 H27        23.1439    0.3476  -20.8787 H         1 469         0.0972
     64 H28        24.7188   -1.2140  -21.7221 H         1 469         0.0549
     65 H29        25.5375   -3.5681  -21.8320 H         1 469         0.0587
     66 H30        21.8008   -4.9770  -20.1784 H         1 469         0.0587
     67 H31        20.9792   -2.6246  -20.0331 H         1 469         0.0549
@<TRIPOS>BOND
     1    1    2 1  
     2    2    3 1  
     3    2    4 am 
     4    4    5 2  
     5    4    6 1  
     6    6    7 2  
     7    6    8 1  
     8    8    9 1  
     9    8   11 2  
    10    9   10 ar 
    11    9   14 ar 
    12   10   18 ar 
    13   11   12 1  
    14   12   13 1  
    15   12   14 1  
    16   14   15 ar 
    17   15   16 ar 
    18   16   17 1  
    19   16   18 ar 
    20   18   19 1  
    21   19   20 2  
    22   19   21 am 
    23   21   22 1  
    24   21   25 1  
    25   22   23 1  
    26   22   24 1  
    27   23   28 1  
    28   25   26 1  
    29   26   27 1  
    30   26   28 1  
    31   28   29 1  
    32   29   30 1  
    33   30   31 ar 
    34   30   36 ar 
    35   31   32 ar 
    36   32   33 ar 
    37   33   34 1  
    38   33   35 ar 
    39   35   36 ar 
    40    1   37 1  
    41    1   38 1  
    42    1   39 1  
    43    3   40 1  
    44    3   41 1  
    45    3   42 1  
    46   10   43 1  
    47   11   44 1  
    48   13   45 1  
    49   13   46 1  
    50   13   47 1  
    51   15   48 1  
    52   22   49 1  
    53   23   50 1  
    54   23   51 1  
    55   24   52 1  
    56   24   53 1  
    57   24   54 1  
    58   25   55 1  
    59   25   56 1  
    60   26   57 1  
    61   27   58 1  
    62   27   59 1  
    63   27   60 1  
    64   28   61 1  
    65   29   62 1  
    66   29   63 1  
    67   31   64 1  
    68   32   65 1  
    69   35   66 1  
    70   36   67 1  
@<TRIPOS>SUBSTRUCTURE
     1 469         1

