### 
### Created by X-TOOL on Mon Sep 10 21:13:03 2018
### 

@<TRIPOS>MOLECULE
3huc_ligand
   43    46     1     0     0
SMALL
GAST_HUCK


@<TRIPOS>ATOM
      1 CAH        24.7520   -1.9090  -20.8760 C.ar      1 G97        -0.0465
      2 CAE        25.3510   -2.9980  -21.5080 C.ar      1 G97        -0.0569
      3 CAD        24.8970   -4.2750  -21.2010 C.ar      1 G97        -0.0580
      4 CAF        23.8760   -4.4740  -20.2690 C.ar      1 G97        -0.0569
      5 CAI        23.2760   -3.3800  -19.6380 C.ar      1 G97        -0.0465
      6 CAW        23.7150   -2.0910  -19.9500 C.ar      1 G97         0.0141
      7 C2         23.1530   -0.9930  -19.3060 C.ar      1 G97         0.0921
      8 N1         23.0020    0.1980  -19.9310 N.ar      1 G97        -0.2553
      9 N3         22.7970   -1.1460  -18.0150 N.ar      1 G97        -0.3009
     10 C4         22.2710   -0.1250  -17.3250 C.ar      1 G97         0.0255
     11 CAM        21.9000   -0.3240  -15.9950 C.ar      1 G97        -0.0253
     12 CAU        21.3380    0.7140  -15.2550 C.ar      1 G97         0.0730
     13 NAQ        21.0190    0.4530  -13.9710 N.am      1 G97        -0.2295
     14 CAT        20.1930    1.1450  -13.1760 C.2       1 G97         0.2258
     15 OAB        19.5700    2.1540  -13.5240 O.2       1 G97        -0.3745
     16 CAC        20.0260    0.6750  -11.8710 C.2       1 G97         0.0150
     17 CAA        19.1830    1.3240  -10.9700 C.2       1 G97        -0.0781
     18 CAK        21.1580    1.9670  -15.8690 C.ar      1 G97        -0.0283
     19 CAL        21.5350    2.1660  -17.2050 C.ar      1 G97        -0.0465
     20 C5         22.0950    1.1170  -17.9450 C.ar      1 G97         0.0455
     21 C6         22.4780    1.2630  -19.2890 C.ar      1 G97         0.1561
     22 NAR        22.3330    2.4370  -19.9390 N.pl3     1 G97        -0.2206
     23 CAV        22.4610    2.5860  -21.2810 C.2       1 G97         0.1818
     24 CAJ        22.5710    3.7560  -21.9050 C.2       1 G97        -0.0280
     25 CAG        22.6670    3.4550  -23.2030 C.2       1 G97        -0.0243
     26 NAS        22.6040    2.1190  -23.3250 N.2       1 G97        -0.2412
     27 NAN        22.4840    1.6090  -22.2000 N.pl3     1 G97        -0.2006
     28 H1         25.0934   -0.9058  -21.1042 H         1 G97         0.0660
     29 H2         26.1528   -2.8518  -22.2227 H         1 G97         0.0628
     30 H3         25.3430   -5.1315  -21.6934 H         1 G97         0.0649
     31 H4         23.5476   -5.4800  -20.0340 H         1 G97         0.0628
     32 H5         22.4810   -3.5300  -18.9165 H         1 G97         0.0660
     33 H6         22.0501   -1.2935  -15.5339 H         1 G97         0.0447
     34 H7         21.4502   -0.3525  -13.5645 H         1 G97         0.2290
     35 H8         20.5648   -0.2157  -11.5513 H         1 G97         0.0698
     36 H9         19.0684    0.9394   -9.9576 H         1 G97         0.0686
     37 H10        18.6391    2.2156  -11.2786 H         1 G97         0.0686
     38 H11        20.7245    2.7850  -15.3050 H         1 G97         0.0570
     39 H12        21.3923    3.1362  -17.6671 H         1 G97         0.0666
     40 H13        22.1109    3.2732  -19.3801 H         1 G97         0.2279
     41 H14        22.5807    4.7472  -21.4540 H         1 G97         0.0216
     42 H15        22.7770    4.1678  -24.0189 H         1 G97         0.0607
     43 H16        22.4136    0.6003  -22.0039 H         1 G97         0.2521
@<TRIPOS>BOND
     1    1    2 ar 
     2    1    6 ar 
     3    2    3 ar 
     4    3    4 ar 
     5    4    5 ar 
     6    5    6 ar 
     7    6    7 1  
     8    7    8 ar 
     9    7    9 ar 
    10    8   21 ar 
    11    9   10 ar 
    12   10   11 ar 
    13   10   20 ar 
    14   11   12 ar 
    15   12   13 1  
    16   12   18 ar 
    17   13   14 am 
    18   14   15 2  
    19   14   16 1  
    20   16   17 2  
    21   18   19 ar 
    22   19   20 ar 
    23   20   21 ar 
    24   21   22 1  
    25   22   23 1  
    26   23   24 2  
    27   23   27 1  
    28   24   25 1  
    29   25   26 2  
    30   26   27 1  
    31    1   28 1  
    32    2   29 1  
    33    3   30 1  
    34    4   31 1  
    35    5   32 1  
    36   11   33 1  
    37   13   34 1  
    38   16   35 1  
    39   17   36 1  
    40   17   37 1  
    41   18   38 1  
    42   19   39 1  
    43   22   40 1  
    44   24   41 1  
    45   25   42 1  
    46   27   43 1  
@<TRIPOS>SUBSTRUCTURE
     1 G97         1

