### 
### Created by X-TOOL on Mon Sep 10 21:13:02 2018
### 

@<TRIPOS>MOLECULE
3hv3_ligand
   69    73     1     0     0
SMALL
GAST_HUCK


@<TRIPOS>ATOM
      1 CAA        -1.3720   -9.2630  -14.9900 C.3       1 R49        -0.0321
      2 CBA        -0.8240   -8.5270  -13.7970 C.ar      1 R49        -0.0475
      3 CAR        -0.2530   -7.2530  -13.9610 C.ar      1 R49        -0.0201
      4 CAI        -0.9280   -9.1350  -12.5380 C.ar      1 R49        -0.0649
      5 CAG        -0.4180   -8.4730  -11.4230 C.ar      1 R49        -0.0696
      6 CAJ         0.1300   -7.1870  -11.5820 C.ar      1 R49        -0.0276
      7 CBE         0.2230   -6.5620  -12.8270 C.ar      1 R49         0.1219
      8 NBK         0.8130   -5.3420  -12.8930 N.pl3     1 R49        -0.1049
      9 NAV         1.8900   -5.0520  -12.3070 N.2       1 R49        -0.1654
     10 CBG         2.2050   -3.7500  -12.5710 C.2       1 R49        -0.0024
     11 CBL         3.4570   -3.0030  -12.0130 C.3       1 R49        -0.0451
     12 CAC         4.4680   -3.9750  -11.3900 C.3       1 R49        -0.0851
     13 CAD         4.1840   -2.1340  -13.0660 C.3       1 R49        -0.0851
     14 CAB         2.9620   -2.0730  -10.8860 C.3       1 R49        -0.0851
     15 CAS         1.2300   -3.2410  -13.3600 C.2       1 R49        -0.0188
     16 CBH         0.3300   -4.2660  -13.5560 C.2       1 R49         0.2196
     17 NAX        -0.8250   -4.2850  -14.3110 N.am      1 R49        -0.1797
     18 CAZ        -1.0730   -3.5830  -15.4760 C.2       1 R49         0.3205
     19 OAF        -0.2320   -2.8430  -15.9750 O.2       1 R49        -0.3798
     20 NAW        -2.2930   -3.6750  -16.0410 N.am      1 R49        -0.2196
     21 CBC        -2.7290   -3.2280  -17.2380 C.ar      1 R49         0.0569
     22 CAM        -1.8360   -3.2950  -18.3230 C.ar      1 R49        -0.0495
     23 CAO        -2.2080   -2.9410  -19.6470 C.ar      1 R49        -0.0504
     24 CAL        -4.0440   -2.8750  -17.5060 C.ar      1 R49        -0.0495
     25 CAN        -4.4340   -2.5410  -18.8350 C.ar      1 R49        -0.0504
     26 CBD        -3.5370   -2.5600  -19.9070 C.ar      1 R49         0.0495
     27 NAY        -3.9430   -2.2400  -21.1870 N.pl3     1 R49        -0.2714
     28 CBF        -3.9750   -1.0100  -21.7130 C.ar      1 R49         0.0814
     29 CBJ        -4.1680   -0.8320  -23.0880 C.ar      1 R49         0.0206
     30 CAT        -4.3520   -1.9320  -23.9470 C.ar      1 R49        -0.0333
     31 CBB        -4.5560   -1.6980  -25.3140 C.ar      1 R49         0.0387
     32 NAE        -4.7240   -2.7260  -26.1680 N.pl3     1 R49        -0.3368
     33 CAP        -4.5770   -0.3950  -25.7990 C.ar      1 R49        -0.0368
     34 CAQ        -4.4150    0.6950  -24.9490 C.ar      1 R49        -0.0502
     35 CBI        -4.2020    0.4840  -23.5910 C.ar      1 R49         0.0231
     36 NAU        -4.0510    1.5620  -22.7920 N.ar      1 R49        -0.3267
     37 CAH        -3.8540    1.4130  -21.4880 C.ar      1 R49        -0.0147
     38 CAK        -3.8200    0.1360  -20.9250 C.ar      1 R49        -0.0188
     39 H          -2.1671   -8.6728  -15.4456 H         1 R49         0.0390
     40 H          -0.5741   -9.4215  -15.7155 H         1 R49         0.0390
     41 H          -1.7703  -10.2258  -14.6698 H         1 R49         0.0390
     42 H          -0.1790   -6.8047  -14.9518 H         1 R49         0.0543
     43 H          -1.4010  -10.1114  -12.4329 H         1 R49         0.0520
     44 H          -0.4433   -8.9451  -10.4409 H         1 R49         0.0590
     45 H           0.4953   -6.6593  -10.7010 H         1 R49         0.0552
     46 H           3.9945   -4.5126  -10.5685 H         1 R49         0.0133
     47 H           4.8009   -4.6853  -12.1467 H         1 R49         0.0133
     48 H           5.3241   -3.4150  -11.0138 H         1 R49         0.0133
     49 H           4.5222   -2.7668  -13.8866 H         1 R49         0.0133
     50 H           3.4979   -1.3779  -13.4476 H         1 R49         0.0133
     51 H           5.0425   -1.6471  -12.6033 H         1 R49         0.0133
     52 H           2.2395   -1.3650  -11.2920 H         1 R49         0.0133
     53 H           2.4892   -2.6695  -10.1058 H         1 R49         0.0133
     54 H           3.8089   -1.5297  -10.4668 H         1 R49         0.0133
     55 H           1.1692   -2.2283  -13.7585 H         1 R49         0.0222
     56 H          -1.5788   -4.8828  -13.9722 H         1 R49         0.2344
     57 H          -2.9945   -4.1561  -15.4780 H         1 R49         0.2229
     58 H          -0.8160   -3.6327  -18.1398 H         1 R49         0.0478
     59 H          -1.4731   -2.9642  -20.4516 H         1 R49         0.0503
     60 H          -4.7779   -2.8533  -16.7004 H         1 R49         0.0478
     61 H          -5.4703   -2.2602  -19.0229 H         1 R49         0.0503
     62 H          -4.2454   -3.0092  -21.7847 H         1 R49         0.2123
     63 H          -4.3361   -2.9492  -23.5555 H         1 R49         0.0500
     64 H          -4.7034   -3.6852  -25.8218 H         1 R49         0.1719
     65 H          -4.8718   -2.5452  -27.1609 H         1 R49         0.1719
     66 H          -4.7232   -0.2240  -26.8655 H         1 R49         0.0594
     67 H          -4.4549    1.7094  -25.3458 H         1 R49         0.0604
     68 H          -3.7184    2.2899  -20.8550 H         1 R49         0.0767
     69 H          -3.6698    0.0295  -19.8507 H         1 R49         0.0536
@<TRIPOS>BOND
     1    1    2 1  
     2    2    3 ar 
     3    2    4 ar 
     4    3    7 ar 
     5    4    5 ar 
     6    5    6 ar 
     7    6    7 ar 
     8    7    8 1  
     9    8    9 1  
    10    8   16 1  
    11    9   10 2  
    12   10   11 1  
    13   10   15 1  
    14   11   12 1  
    15   11   13 1  
    16   11   14 1  
    17   15   16 2  
    18   16   17 1  
    19   17   18 am 
    20   18   19 2  
    21   18   20 am 
    22   20   21 1  
    23   21   22 ar 
    24   21   24 ar 
    25   22   23 ar 
    26   23   26 ar 
    27   24   25 ar 
    28   25   26 ar 
    29   26   27 1  
    30   27   28 1  
    31   28   29 ar 
    32   28   38 ar 
    33   29   30 ar 
    34   29   35 ar 
    35   30   31 ar 
    36   31   32 1  
    37   31   33 ar 
    38   33   34 ar 
    39   34   35 ar 
    40   35   36 ar 
    41   36   37 ar 
    42   37   38 ar 
    43    1   39 1  
    44    1   40 1  
    45    1   41 1  
    46    3   42 1  
    47    4   43 1  
    48    5   44 1  
    49    6   45 1  
    50   12   46 1  
    51   12   47 1  
    52   12   48 1  
    53   13   49 1  
    54   13   50 1  
    55   13   51 1  
    56   14   52 1  
    57   14   53 1  
    58   14   54 1  
    59   15   55 1  
    60   17   56 1  
    61   20   57 1  
    62   22   58 1  
    63   23   59 1  
    64   24   60 1  
    65   25   61 1  
    66   27   62 1  
    67   30   63 1  
    68   32   64 1  
    69   32   65 1  
    70   33   66 1  
    71   34   67 1  
    72   37   68 1  
    73   38   69 1  
@<TRIPOS>SUBSTRUCTURE
     1 R49         1

