### 
### Created by X-TOOL on Mon Sep 10 21:13:00 2018
### 

@<TRIPOS>MOLECULE
3hv4_ligand
   69    73     1     0     0
SMALL
GAST_HUCK


@<TRIPOS>ATOM
      1 CBJ        12.5160    1.5600    3.5570 C.ar      1 L51         0.0214
      2 CAT        12.2680    2.4550    2.4860 C.ar      1 L51        -0.0331
      3 CBB        12.0630    3.8360    2.7440 C.ar      1 L51         0.0389
      4 NAE        11.8030    4.7160    1.7560 N.pl3     1 L51        -0.3367
      5 CAN        12.1080    4.3060    4.0650 C.ar      1 L51        -0.0366
      6 CAQ        12.3580    3.4230    5.1230 C.ar      1 L51        -0.0499
      7 CBI        12.5490    2.0520    4.8820 C.ar      1 L51         0.0239
      8 NAU        12.7920    1.2160    5.9200 N.ar      1 L51        -0.3257
      9 CAH        13.0050   -0.0850    5.7340 C.ar      1 L51        -0.0137
     10 CAM        12.9740   -0.6410    4.4660 C.ar      1 L51        -0.0177
     11 CBF        12.7340    0.1820    3.3610 C.ar      1 L51         0.0840
     12 NAY        12.7100   -0.3340    2.1300 N.pl3     1 L51        -0.2669
     13 CBD        12.4260   -1.6330    1.8680 C.ar      1 L51         0.0493
     14 CAR        13.3610   -2.4430    1.1570 C.ar      1 L51        -0.0195
     15 CAJ        11.2030   -2.1640    2.3000 C.ar      1 L51        -0.0536
     16 CAG        10.9270   -3.4880    2.0130 C.ar      1 L51        -0.0845
     17 CAI        11.8300   -4.2660    1.3030 C.ar      1 L51        -0.0528
     18 CBC        13.0510   -3.7730    0.8690 C.ar      1 L51         0.0572
     19 NAW        13.8390   -4.6250    0.1940 N.am      1 L51        -0.2161
     20 CAZ        15.1110   -4.9330    0.3930 C.2       1 L51         0.3230
     21 OAF        15.7980   -4.4190    1.2780 O.2       1 L51        -0.3787
     22 NAX        15.5990   -5.8020   -0.4970 N.am      1 L51        -0.1795
     23 CBH        16.8520   -6.3750   -0.4960 C.2       1 L51         0.2188
     24 CAS        17.5880   -6.5910    0.5940 C.2       1 L51        -0.0194
     25 CBG        18.6660   -7.2440    0.1560 C.2       1 L51        -0.0041
     26 CBL        19.8480   -7.7200    1.0350 C.3       1 L51        -0.0463
     27 CAC        20.4050   -6.5600    1.8640 C.3       1 L51        -0.0859
     28 CAD        19.3720   -8.8130    1.9860 C.3       1 L51        -0.0859
     29 CAB        20.9030   -8.3130    0.1320 C.3       1 L51        -0.0859
     30 NAV        18.5750   -7.4670   -1.1470 N.2       1 L51        -0.1672
     31 NBK        17.5060   -6.9650   -1.5260 N.pl3     1 L51        -0.1067
     32 CBE        17.0690   -7.0600   -2.7960 C.ar      1 L51         0.1228
     33 CAO        17.2170   -8.3040   -3.4260 C.ar      1 L51        -0.0265
     34 CAK        16.7910   -8.5140   -4.7480 C.ar      1 L51        -0.0608
     35 CBA        16.1830   -7.4500   -5.4000 C.ar      1 L51        -0.0493
     36 CAA        15.7090   -7.6360   -6.8290 C.3       1 L51        -0.0327
     37 CAL        16.0090   -6.2120   -4.7690 C.ar      1 L51        -0.0608
     38 CAP        16.4590   -6.0070   -3.4730 C.ar      1 L51        -0.0265
     39 H          12.2346    2.0822    1.4623 H         1 L51         0.0500
     40 H          11.6443    5.6990    1.9773 H         1 L51         0.1719
     41 H          11.7650    4.3987    0.7874 H         1 L51         0.1719
     42 H          11.9475    5.3646    4.2692 H         1 L51         0.0595
     43 H          12.4049    3.8031    6.1435 H         1 L51         0.0605
     44 H          13.2072   -0.7232    6.5942 H         1 L51         0.0770
     45 H          13.1352   -1.7105    4.3304 H         1 L51         0.0542
     46 H          12.9166    0.2827    1.3442 H         1 L51         0.2155
     47 H          14.3157   -2.0238    0.8393 H         1 L51         0.0411
     48 H          10.4885   -1.5495    2.8477 H         1 L51         0.0413
     49 H           9.9874   -3.9265    2.3491 H         1 L51         0.0550
     50 H          11.5705   -5.3006    1.0786 H         1 L51         0.0410
     51 H          13.3920   -5.1055   -0.5868 H         1 L51         0.2260
     52 H          14.9767   -6.0701   -1.2594 H         1 L51         0.2343
     53 H          17.3594   -6.2983    1.6188 H         1 L51         0.0221
     54 H          20.7556   -5.7732    1.1960 H         1 L51         0.0131
     55 H          19.6199   -6.1669    2.5100 H         1 L51         0.0131
     56 H          21.2347   -6.9168    2.4742 H         1 L51         0.0131
     57 H          18.5815   -8.4184    2.6244 H         1 L51         0.0131
     58 H          18.9884   -9.6539    1.4082 H         1 L51         0.0131
     59 H          20.2071   -9.1452    2.6028 H         1 L51         0.0131
     60 H          20.4798   -9.1560   -0.4142 H         1 L51         0.0131
     61 H          21.2432   -7.5551   -0.5737 H         1 L51         0.0131
     62 H          21.7449   -8.6544    0.7343 H         1 L51         0.0131
     63 H          17.6734   -9.1276   -2.8769 H         1 L51         0.0595
     64 H          16.9324   -9.4750   -5.2426 H         1 L51         0.0550
     65 H          16.5582   -7.8953   -7.4613 H         1 L51         0.0385
     66 H          14.9703   -8.4367   -6.8641 H         1 L51         0.0385
     67 H          15.2591   -6.7091   -7.1848 H         1 L51         0.0385
     68 H          15.5143   -5.4002   -5.3023 H         1 L51         0.0550
     69 H          16.3370   -5.0366   -2.9919 H         1 L51         0.0595
@<TRIPOS>BOND
     1    1    2 ar 
     2    1    7 ar 
     3    1   11 ar 
     4    2    3 ar 
     5    3    4 1  
     6    3    5 ar 
     7    5    6 ar 
     8    6    7 ar 
     9    7    8 ar 
    10    8    9 ar 
    11    9   10 ar 
    12   10   11 ar 
    13   11   12 1  
    14   12   13 1  
    15   13   14 ar 
    16   13   15 ar 
    17   14   18 ar 
    18   15   16 ar 
    19   16   17 ar 
    20   17   18 ar 
    21   18   19 1  
    22   19   20 am 
    23   20   21 2  
    24   20   22 am 
    25   22   23 1  
    26   23   24 2  
    27   23   31 1  
    28   24   25 1  
    29   25   26 1  
    30   25   30 2  
    31   26   27 1  
    32   26   28 1  
    33   26   29 1  
    34   30   31 1  
    35   31   32 1  
    36   32   33 ar 
    37   32   38 ar 
    38   33   34 ar 
    39   34   35 ar 
    40   35   36 1  
    41   35   37 ar 
    42   37   38 ar 
    43    2   39 1  
    44    4   40 1  
    45    4   41 1  
    46    5   42 1  
    47    6   43 1  
    48    9   44 1  
    49   10   45 1  
    50   12   46 1  
    51   14   47 1  
    52   15   48 1  
    53   16   49 1  
    54   17   50 1  
    55   19   51 1  
    56   22   52 1  
    57   24   53 1  
    58   27   54 1  
    59   27   55 1  
    60   27   56 1  
    61   28   57 1  
    62   28   58 1  
    63   28   59 1  
    64   29   60 1  
    65   29   61 1  
    66   29   62 1  
    67   33   63 1  
    68   34   64 1  
    69   36   65 1  
    70   36   66 1  
    71   36   67 1  
    72   37   68 1  
    73   38   69 1  
@<TRIPOS>SUBSTRUCTURE
     1 L51         1

