### 
### Created by X-TOOL on Mon Sep 10 21:13:00 2018
### 

@<TRIPOS>MOLECULE
3hv5_ligand
   69    73     1     0     0
SMALL
GAST_HUCK


@<TRIPOS>ATOM
      1 C1         11.8370    3.7140    2.1510 C.ar      1 R24         0.0872
      2 C2         11.7470    4.2910    3.4190 C.ar      1 R24        -0.0275
      3 C3         11.8230    3.4910    4.5500 C.ar      1 R24        -0.0398
      4 C4         12.0450    2.3280    2.0140 C.ar      1 R24        -0.0108
      5 C5         12.1270    1.5230    3.1500 C.ar      1 R24         0.0447
      6 C6         12.0060    2.1140    4.4190 C.ar      1 R24         0.0373
      7 C8         12.2810    0.1230    3.0480 C.ar      1 R24         0.0958
      8 C10        12.3850   -0.5940    4.2410 C.ar      1 R24        -0.0097
      9 C11        12.2760    0.0660    5.4690 C.ar      1 R24        -0.0063
     10 C12        12.2260   -1.8000    1.5690 C.ar      1 R24         0.0549
     11 C13        13.2190   -2.4970    0.8330 C.ar      1 R24        -0.0156
     12 C14        13.0390   -3.8530    0.5450 C.ar      1 R24         0.0666
     13 C15        11.8880   -4.5210    1.0080 C.ar      1 R24        -0.0473
     14 N38        11.7400    4.5620    1.0920 N.2       1 R24        -0.2177
     15 O40        11.5060    5.8800    1.3500 O.2       1 R24        -0.4901
     16 O39        11.8470    4.1800   -0.2120 O.2       1 R24        -0.4901
     17 N7         12.0880    1.3800    5.5290 N.ar      1 R24        -0.3158
     18 N9         12.3830   -0.4740    1.8230 N.pl3     1 R24        -0.2615
     19 C17        11.0890   -2.4850    2.0200 C.ar      1 R24        -0.0486
     20 C16        10.9260   -3.8480    1.7580 C.ar      1 R24        -0.0795
     21 N18        13.8790   -4.6330   -0.1550 N.am      1 R24        -0.1859
     22 C19        15.1410   -4.9080    0.0910 C.2       1 R24         0.4519
     23 O20        15.7510   -4.4190    1.0370 O.2       1 R24        -0.3191
     24 N21        15.6800   -5.7480   -0.7960 N.am      1 R24        -0.0370
     25 C22        16.9110   -6.3110   -0.7910 C.2       1 R24         0.4810
     26 C26        17.7020   -6.5180    0.2840 C.2       1 R24         0.2150
     27 C25        18.7590   -7.2240   -0.1750 C.2       1 R24         0.2047
     28 C27        20.0070   -7.6850    0.6290 C.3       1 R24         0.0059
     29 C29        19.5130   -8.8420    1.4710 C.3       1 R24        -0.0761
     30 C30        20.5810   -6.5510    1.4890 C.3       1 R24        -0.0761
     31 C28        21.1690   -8.2160   -0.2190 C.3       1 R24        -0.0761
     32 N24        18.5780   -7.4530   -1.4640 N.2       1 R24         0.0246
     33 N23        17.4850   -6.9690   -1.8120 N.pl3     1 R24         0.0543
     34 C31        17.0400   -7.0990   -3.0650 C.ar      1 R24         0.1641
     35 C32        16.5300   -6.0280   -3.8010 C.ar      1 R24        -0.0192
     36 C33        16.1000   -6.2260   -5.1210 C.ar      1 R24        -0.0571
     37 C34        16.1760   -7.4790   -5.7040 C.ar      1 R24        -0.0456
     38 C37        15.7030   -7.6640   -7.1520 C.3       1 R24        -0.0309
     39 C35        16.6930   -8.5590   -4.9900 C.ar      1 R24        -0.0571
     40 C36        17.1210   -8.3840   -3.6540 C.ar      1 R24        -0.0192
     41 H1         11.6179    5.3626    3.5198 H         1 R24         0.0698
     42 H2         11.7402    3.9356    5.5351 H         1 R24         0.0624
     43 H3         12.1411    1.8878    1.0281 H         1 R24         0.0755
     44 H4         12.5507   -1.6650    4.2155 H         1 R24         0.0572
     45 H5         12.3461   -0.5044    6.3881 H         1 R24         0.0820
     46 H6         14.1111   -1.9814    0.4964 H         1 R24         0.0421
     47 H7         11.7494   -5.5712    0.7779 H         1 R24         0.0447
     48 H8         12.5980    0.1351    1.0207 H         1 R24         0.2189
     49 H9         10.3280   -1.9516    2.5780 H         1 R24         0.0451
     50 H10        10.0583   -4.3771    2.1352 H         1 R24         0.0563
     51 H11        13.4932   -5.0616   -0.9720 H         1 R24         0.2341
     52 H12        15.0950   -5.9946   -1.5687 H         1 R24         0.3994
     53 H13        17.5252   -6.1858    1.3059 H         1 R24         0.1937
     54 H14        20.3421   -9.2334    2.0788 H         1 R24         0.0152
     55 H15        19.1328   -9.6378    0.8137 H         1 R24         0.0152
     56 H16        18.7052   -8.4956    2.1324 H         1 R24         0.0152
     57 H17        20.9262   -5.7351    0.8370 H         1 R24         0.0152
     58 H18        21.4273   -6.9312    2.0799 H         1 R24         0.0152
     59 H19        19.8009   -6.1737    2.1665 H         1 R24         0.0152
     60 H20        20.8111   -9.0361   -0.8588 H         1 R24         0.0152
     61 H21        21.9656   -8.5877    0.4422 H         1 R24         0.0152
     62 H22        21.5638   -7.4052   -0.8488 H         1 R24         0.0152
     63 H23        16.4664   -5.0433   -3.3522 H         1 R24         0.0617
     64 H24        15.7051   -5.3914   -5.6890 H         1 R24         0.0562
     65 H25        15.8348   -8.7148   -7.4493 H         1 R24         0.0394
     66 H26        16.2952   -7.0178   -7.8166 H         1 R24         0.0394
     67 H27        14.6399   -7.3921   -7.2281 H         1 R24         0.0394
     68 H28        16.7669   -9.5333   -5.4594 H         1 R24         0.0562
     69 H29        17.5066   -9.2237   -3.0872 H         1 R24         0.0617
@<TRIPOS>BOND
     1    1    2 ar 
     2    4    1 ar 
     3    1   14 1  
     4    3    2 ar 
     5    6    3 ar 
     6    5    4 ar 
     7    5    6 ar 
     8    7    5 ar 
     9    6   17 ar 
    10    7    8 ar 
    11   18    7 1  
    12    8    9 ar 
    13    9   17 ar 
    14   10   11 ar 
    15   10   18 1  
    16   10   19 ar 
    17   11   12 ar 
    18   12   13 ar 
    19   12   21 1  
    20   13   20 ar 
    21   14   15 2  
    22   14   16 2  
    23   19   20 ar 
    24   21   22 am 
    25   22   23 2  
    26   22   24 am 
    27   24   25 1  
    28   25   26 2  
    29   25   33 1  
    30   26   27 1  
    31   27   28 1  
    32   27   32 2  
    33   28   29 1  
    34   28   30 1  
    35   28   31 1  
    36   32   33 1  
    37   33   34 1  
    38   34   35 ar 
    39   34   40 ar 
    40   35   36 ar 
    41   36   37 ar 
    42   37   38 1  
    43   37   39 ar 
    44   39   40 ar 
    45    2   41 1  
    46    3   42 1  
    47    4   43 1  
    48    8   44 1  
    49    9   45 1  
    50   11   46 1  
    51   13   47 1  
    52   18   48 1  
    53   19   49 1  
    54   20   50 1  
    55   21   51 1  
    56   24   52 1  
    57   26   53 1  
    58   29   54 1  
    59   29   55 1  
    60   29   56 1  
    61   30   57 1  
    62   30   58 1  
    63   30   59 1  
    64   31   60 1  
    65   31   61 1  
    66   31   62 1  
    67   35   63 1  
    68   36   64 1  
    69   38   65 1  
    70   38   66 1  
    71   38   67 1  
    72   39   68 1  
    73   40   69 1  
@<TRIPOS>SUBSTRUCTURE
     1 R24         1

