### 
### Created by X-TOOL on Mon Sep 10 21:13:01 2018
### 

@<TRIPOS>MOLECULE
3hv7_ligand
   55    58     1     0     0
SMALL
GAST_HUCK


@<TRIPOS>ATOM
      1 CBB        -3.7950   -2.0250  -17.2150 C.ar      1 1AU         0.0113
      2 CAO        -4.4310   -1.8120  -15.9790 C.ar      1 1AU        -0.0551
      3 CAG        -5.5240   -0.9700  -15.9320 C.ar      1 1AU        -0.0647
      4 CAF        -6.0270   -0.3810  -17.1030 C.ar      1 1AU        -0.0656
      5 CAM        -5.4080   -0.5830  -18.3090 C.ar      1 1AU        -0.0608
      6 CBA        -4.2820   -1.4030  -18.3790 C.ar      1 1AU        -0.0315
      7 CAN        -3.6660   -1.5850  -19.6070 C.ar      1 1AU        -0.0747
      8 CAI        -2.5350   -2.4050  -19.6630 C.ar      1 1AU        -0.0815
      9 CAL        -2.0350   -3.0080  -18.5050 C.ar      1 1AU        -0.0435
     10 CAX        -2.6680   -2.8250  -17.2650 C.ar      1 1AU         0.0821
     11 NAS        -2.2000   -3.4440  -16.1520 N.am      1 1AU        -0.2077
     12 CAU        -0.9550   -3.3050  -15.7190 C.2       1 1AU         0.3276
     13 OAE        -0.1350   -2.5600  -16.2810 O.2       1 1AU        -0.3767
     14 NAT        -0.6520   -4.0450  -14.6440 N.am      1 1AU        -0.1784
     15 CAZ         0.5220   -4.0250  -13.9850 C.2       1 1AU         0.2196
     16 CAQ         1.3380   -2.9740  -13.7940 C.2       1 1AU        -0.0187
     17 CAY         2.3360   -3.4650  -12.9980 C.2       1 1AU        -0.0024
     18 CBD         3.5940   -2.7060  -12.4840 C.3       1 1AU        -0.0451
     19 CAB         3.1400   -1.7040  -11.3760 C.3       1 1AU        -0.0852
     20 CAC         4.7110   -3.6360  -11.9670 C.3       1 1AU        -0.0852
     21 CAA         4.2600   -1.9790  -13.6320 C.3       1 1AU        -0.0852
     22 NAR         2.0940   -4.7520  -12.7310 N.2       1 1AU        -0.1655
     23 NBC         1.0090   -5.0680  -13.2880 N.pl3     1 1AU        -0.1064
     24 CAW         0.4680   -6.3200  -13.2110 C.ar      1 1AU         0.1170
     25 CAP         0.0370   -7.0650  -14.3420 C.ar      1 1AU        -0.0048
     26 CAK         0.4130   -6.9230  -11.9520 C.ar      1 1AU        -0.0339
     27 CAH        -0.1030   -8.2120  -11.7860 C.ar      1 1AU        -0.0744
     28 CAJ        -0.5300   -8.9420  -12.9030 C.ar      1 1AU        -0.0489
     29 CAV        -0.4730   -8.3730  -14.1700 C.ar      1 1AU         0.0335
     30 NAD        -0.9270   -9.0970  -15.1870 N.pl3     1 1AU        -0.3378
     31 H          -4.0680   -2.3022  -15.0756 H         1 1AU         0.0629
     32 H          -6.0018   -0.7601  -14.9751 H         1 1AU         0.0578
     33 H          -6.9190    0.2434  -17.0525 H         1 1AU         0.0611
     34 H          -5.7940   -0.1050  -19.2093 H         1 1AU         0.0587
     35 H          -4.0526   -1.1021  -20.5045 H         1 1AU         0.0439
     36 H          -2.0385   -2.5757  -20.6182 H         1 1AU         0.0565
     37 H          -1.1412   -3.6289  -18.5656 H         1 1AU         0.0440
     38 H          -2.8349   -4.0434  -15.6247 H         1 1AU         0.2319
     39 H          -1.3721   -4.6775  -14.2950 H         1 1AU         0.2346
     40 H           1.2292   -1.9621  -14.1842 H         1 1AU         0.0222
     41 H           2.4226   -0.9995  -11.7968 H         1 1AU         0.0133
     42 H           2.6740   -2.2546  -10.5588 H         1 1AU         0.0133
     43 H           4.0076   -1.1608  -11.0015 H         1 1AU         0.0133
     44 H           4.3303   -4.2331  -11.1384 H         1 1AU         0.0133
     45 H           5.0353   -4.2949  -12.7725 H         1 1AU         0.0133
     46 H           5.5539   -3.0348  -11.6261 H         1 1AU         0.0133
     47 H           4.5596   -2.7004  -14.3922 H         1 1AU         0.0133
     48 H           3.5590   -1.2645  -14.0635 H         1 1AU         0.0133
     49 H           5.1394   -1.4503  -13.2643 H         1 1AU         0.0133
     50 H           0.0993   -6.6295  -15.3393 H         1 1AU         0.0498
     51 H           0.7795   -6.3780  -11.0821 H         1 1AU         0.0500
     52 H          -0.1729   -8.6480  -10.7895 H         1 1AU         0.0574
     53 H          -0.9072   -9.9570  -12.7784 H         1 1AU         0.0481
     54 H          -1.2988  -10.0323  -15.0214 H         1 1AU         0.1717
     55 H          -0.9038   -8.7177  -16.1336 H         1 1AU         0.1717
@<TRIPOS>BOND
     1    1    2 ar 
     2    1    6 ar 
     3    1   10 ar 
     4    2    3 ar 
     5    3    4 ar 
     6    4    5 ar 
     7    5    6 ar 
     8    6    7 ar 
     9    7    8 ar 
    10    8    9 ar 
    11    9   10 ar 
    12   10   11 1  
    13   11   12 am 
    14   12   13 2  
    15   12   14 am 
    16   14   15 1  
    17   15   16 2  
    18   15   23 1  
    19   16   17 1  
    20   17   18 1  
    21   17   22 2  
    22   18   19 1  
    23   18   20 1  
    24   18   21 1  
    25   22   23 1  
    26   23   24 1  
    27   24   25 ar 
    28   24   26 ar 
    29   25   29 ar 
    30   26   27 ar 
    31   27   28 ar 
    32   28   29 ar 
    33   29   30 1  
    34    2   31 1  
    35    3   32 1  
    36    4   33 1  
    37    5   34 1  
    38    7   35 1  
    39    8   36 1  
    40    9   37 1  
    41   11   38 1  
    42   14   39 1  
    43   16   40 1  
    44   19   41 1  
    45   19   42 1  
    46   19   43 1  
    47   20   44 1  
    48   20   45 1  
    49   20   46 1  
    50   21   47 1  
    51   21   48 1  
    52   21   49 1  
    53   25   50 1  
    54   26   51 1  
    55   27   52 1  
    56   28   53 1  
    57   30   54 1  
    58   30   55 1  
@<TRIPOS>SUBSTRUCTURE
     1 1AU         1

