### 
### Created by X-TOOL on Mon Sep 10 21:13:01 2018
### 

@<TRIPOS>MOLECULE
3hvc_ligand
   28    30     1     0     0
SMALL
GAST_HUCK


@<TRIPOS>ATOM
      1 C1         -3.3020   40.0520   15.6620 C.ar      1 GG5         0.0029
      2 N2         -3.1500   41.0850   16.5710 N.ar      1 GG5        -0.3067
      3 C3         -2.8580   40.7750   17.8920 C.ar      1 GG5         0.0029
      4 C4         -2.7000   39.3370   18.3600 C.ar      1 GG5        -0.0359
      5 C5         -2.8680   38.2750   17.3730 C.ar      1 GG5        -0.0154
      6 C6         -3.1750   38.6660   16.0010 C.ar      1 GG5        -0.0359
      7 C7         -2.7270   36.8210   17.7660 C.2       1 GG5         0.0179
      8 C8         -2.0110   35.8860   17.0070 C.2       1 GG5         0.0118
      9 N9         -2.1050   34.7180   17.6560 N.2       1 GG5        -0.2128
     10 N11        -2.8270   34.8180   18.7800 N.pl3     1 GG5        -0.2096
     11 C12        -3.2260   36.0750   18.8900 C.2       1 GG5         0.1032
     12 C13        -4.0780   36.5300   20.0860 C.ar      1 GG5         0.0120
     13 C14        -3.5970   36.2530   21.4130 C.ar      1 GG5        -0.0510
     14 C15        -4.3370   36.6620   22.5630 C.ar      1 GG5        -0.0257
     15 C16        -5.5830   37.3620   22.3940 C.ar      1 GG5         0.1346
     16 C17        -6.0850   37.6450   21.0910 C.ar      1 GG5        -0.0257
     17 C18        -5.3420   37.2350   19.9410 C.ar      1 GG5        -0.0510
     18 F19        -6.2570   37.7450   23.4600 F         1 GG5        -0.1816
     19 H1         -3.5305   40.3069   14.6335 H         1 GG5         0.0800
     20 H2         -2.7395   41.5793   18.6090 H         1 GG5         0.0800
     21 H3         -2.4698   39.1078   19.3942 H         1 GG5         0.0662
     22 H4         -3.3070   37.9073   15.2381 H         1 GG5         0.0662
     23 H5         -1.4822   36.0722   16.0734 H         1 GG5         0.0696
     24 H6         -3.0342   34.0544   19.4395 H         1 GG5         0.2566
     25 H7         -2.6586   35.7258   21.5416 H         1 GG5         0.0627
     26 H8         -3.9628   36.4467   23.5573 H         1 GG5         0.0610
     27 H9         -7.0265   38.1691   20.9724 H         1 GG5         0.0610
     28 H10        -5.7245   37.4517   18.9502 H         1 GG5         0.0627
@<TRIPOS>BOND
     1    1    2 ar 
     2    1    6 ar 
     3    2    3 ar 
     4    3    4 ar 
     5    4    5 ar 
     6    5    6 ar 
     7    5    7 1  
     8    7    8 1  
     9    7   11 2  
    10    8    9 2  
    11    9   10 1  
    12   10   11 1  
    13   11   12 1  
    14   12   13 ar 
    15   12   17 ar 
    16   13   14 ar 
    17   14   15 ar 
    18   15   16 ar 
    19   15   18 1  
    20   16   17 ar 
    21    1   19 1  
    22    3   20 1  
    23    4   21 1  
    24    6   22 1  
    25    8   23 1  
    26   10   24 1  
    27   13   25 1  
    28   14   26 1  
    29   16   27 1  
    30   17   28 1  
@<TRIPOS>SUBSTRUCTURE
     1 GG5         1

