### 
### Created by X-TOOL on Mon Sep 10 21:13:01 2018
### 

@<TRIPOS>MOLECULE
3hvg_ligand
   23    23     1     0     0
SMALL
GAST_HUCK


@<TRIPOS>ATOM
      1 O11       -59.0730  -40.8190   39.7120 O.2       1 EV0        -0.3302
      2 C3        -59.9320  -40.1200   39.2270 C.2       1 EV0         0.2840
      3 C1        -61.3210  -40.5920   39.1410 C.2       1 EV0         0.1722
      4 N5        -59.6120  -38.8610   38.7460 N.am      1 EV0        -0.2409
      5 C6        -60.5830  -38.0420   38.1870 C.cat     1 EV0         0.2074
      6 N7        -60.2320  -36.7970   37.7220 N.pl3     1 EV0        -0.3316
      7 N4        -61.8220  -38.4400   38.0980 N.pl3     1 EV0        -0.2021
      8 C2        -62.2310  -39.7750   38.5890 C.2       1 EV0         0.2070
      9 C8        -63.6800  -40.1870   38.4620 C.3       1 EV0         0.0730
     10 C9        -64.3250  -40.3480   39.8400 C.3       1 EV0        -0.0241
     11 C10       -65.7920  -40.7540   39.6750 C.3       1 EV0        -0.0603
     12 H1        -61.6033  -41.5754   39.5141 H         1 EV0         0.1667
     13 H2        -58.6675  -38.5375   38.8024 H         1 EV0         0.1820
     14 H3        -60.9462  -36.1826   37.3056 H         1 EV0         0.1780
     15 H4        -59.2548  -36.4785   37.7899 H         1 EV0         0.1780
     16 H5        -62.5264  -37.8157   37.6797 H         1 EV0         0.2558
     17 H6        -63.7362  -41.1448   37.9241 H         1 EV0         0.0753
     18 H7        -64.2252  -39.4166   37.8971 H         1 EV0         0.0753
     19 H8        -64.2681  -39.3941   40.3848 H         1 EV0         0.0323
     20 H9        -63.7912  -41.1258   40.4057 H         1 EV0         0.0323
     21 H10       -66.2542  -40.8693   40.6665 H         1 EV0         0.0234
     22 H11       -65.8494  -41.7080   39.1305 H         1 EV0         0.0234
     23 H12       -66.3263  -39.9763   39.1096 H         1 EV0         0.0234
@<TRIPOS>BOND
     1    1    2 2  
     2    2    3 1  
     3    2    4 am 
     4    3    8 2  
     5    4    5 ar 
     6    5    6 ar 
     7    5    7 ar 
     8    7    8 1  
     9    8    9 1  
    10    9   10 1  
    11   10   11 1  
    12    3   12 1  
    13    4   13 1  
    14    6   14 1  
    15    6   15 1  
    16    7   16 1  
    17    9   17 1  
    18    9   18 1  
    19   10   19 1  
    20   10   20 1  
    21   11   21 1  
    22   11   22 1  
    23   11   23 1  
@<TRIPOS>SUBSTRUCTURE
     1 EV0         1

