### 
### Created by X-TOOL on Fri Sep 26 17:34:43 2014
### 

@<TRIPOS>MOLECULE
3hvh_ligand
   64    68     1     0     0
SMALL
GAST_HUCK


@<TRIPOS>ATOM
      1 F30         0.4200    7.1920   17.8970 F         1 MOL        -0.1840
      2 C29         0.4370    8.3950   17.2250 C.ar      1 MOL         0.1316
      3 C26        -0.4320    9.3530   17.6260 C.ar      1 MOL        -0.0288
      4 C25        -0.4210   10.5620   16.9540 C.ar      1 MOL        -0.0581
      5 C28         1.3680    8.5560   16.2460 C.ar      1 MOL        -0.0288
      6 C27         1.3730    9.8150   15.5940 C.ar      1 MOL        -0.0581
      7 C24         0.5040   10.8360   15.9690 C.ar      1 MOL        -0.0299
      8 C22         0.5080   12.1470   15.3060 C.ar      1 MOL        -0.0339
      9 C21        -0.7000   12.8170   15.0070 C.ar      1 MOL        -0.0533
     10 C23         1.7410   12.6700   14.8020 C.ar      1 MOL        -0.0299
     11 C33         1.7470   13.9030   14.1440 C.ar      1 MOL         0.1232
     12 O34         2.9330   14.4370   13.6730 O.3       1 MOL        -0.3356
     13 C31         0.5420   14.5840   13.8960 C.ar      1 MOL         0.1393
     14 O32         0.6520   15.7280   13.1470 O.3       1 MOL        -0.3302
     15 C20        -0.7000   14.0760   14.3560 C.ar      1 MOL         0.0720
     16 C18        -1.9750   14.7040   14.1600 C.2       1 MOL         0.1986
     17 O19        -3.0450   14.1430   14.3680 O.2       1 MOL        -0.3908
     18 N17        -1.9440   16.0300   13.8330 N.am      1 MOL        -0.2802
     19 C16        -3.1650   16.7910   13.7320 C.3       1 MOL         0.0471
     20 C15        -2.8120   18.2320   13.8430 C.2       1 MOL        -0.0744
     21 C14        -3.6030   19.1310   14.3940 C.2       1 MOL        -0.0658
     22 C6         -3.2560   20.5670   14.5080 C.3       1 MOL         0.1082
     23 C4         -3.8830   21.1510   15.7700 C.3       1 MOL         0.1189
     24 O5         -3.1280   22.2950   16.2230 O.3       1 MOL        -0.3846
     25 C2         -5.2430   21.5670   15.2120 C.3       1 MOL         0.1402
     26 O3         -5.9560   22.5370   15.9990 O.3       1 MOL        -0.3834
     27 O13        -3.7730   21.3600   13.4000 O.3       1 MOL        -0.3296
     28 C1         -4.9240   22.1330   13.8660 C.3       1 MOL         0.2028
     29 N10        -5.9530   21.9470   12.8430 N.pl3     1 MOL        -0.1918
     30 C9         -6.5730   20.7570   12.4980 C.2       1 MOL         0.1123
     31 C11        -6.3580   22.8760   11.9140 C.ar      1 MOL         0.1613
     32 N40        -6.0040   24.1750   11.8440 N.ar      1 MOL        -0.2714
     33 C39        -6.5530   24.8070   10.8150 C.ar      1 MOL         0.0533
     34 N38        -7.4130   24.2760    9.9260 N.ar      1 MOL        -0.2697
     35 C35        -7.7600   23.0150   10.0500 C.ar      1 MOL         0.1321
     36 C12        -7.2250   22.2190   11.0710 C.ar      1 MOL         0.1047
     37 N8         -7.3260   20.8860   11.4400 N.2       1 MOL        -0.2957
     38 N7         -8.6530   22.5580    9.0920 N.pl3     1 MOL        -0.3042
     39 C36        -9.1370   21.1810    9.0910 C.3       1 MOL         0.0184
     40 H1         -1.1156    9.1777   18.4488 H         1 MOL         0.0602
     41 H2         -1.1592   11.3139   17.2085 H         1 MOL         0.0601
     42 H3          2.0643    7.7688   15.9804 H         1 MOL         0.0602
     43 H4          2.0712    9.9870   14.7829 H         1 MOL         0.0601
     44 H5         -1.6439   12.3595   15.2806 H         1 MOL         0.0555
     45 H6          2.6629   12.1143   14.9296 H         1 MOL         0.0543
     46 H7          2.7591   15.2723   13.2552 H         1 MOL         0.2443
     47 H8          1.2210   16.3440   13.5934 H         1 MOL         0.2479
     48 H9         -1.0662   16.4774   13.6620 H         1 MOL         0.1864
     49 H10        -3.8499   16.5096   14.5455 H         1 MOL         0.0643
     50 H11        -3.6477   16.5974   12.7627 H         1 MOL         0.0643
     51 H12        -1.8514   18.5607   13.4491 H         1 MOL         0.0470
     52 H13        -4.5635   18.8005   14.7867 H         1 MOL         0.0477
     53 H14        -2.1611   20.6642   14.5499 H         1 MOL         0.0749
     54 H15        -3.9720   20.4101   16.5782 H         1 MOL         0.0667
     55 H16        -3.5298   22.6474   17.0084 H         1 MOL         0.2102
     56 H17        -5.8802   20.6762   15.1096 H         1 MOL         0.0678
     57 H18        -5.4372   23.3297   16.0686 H         1 MOL         0.2101
     58 H19        -4.6869   23.2030   13.9604 H         1 MOL         0.0998
     59 H20        -6.4468   19.8240   13.0452 H         1 MOL         0.1349
     60 H21        -6.2840   25.8480   10.6772 H         1 MOL         0.0996
     61 H22        -8.9828   23.2067    8.3630 H         1 MOL         0.1852
     62 H23        -9.8309   21.0369    8.2497 H         1 MOL         0.0489
     63 H24        -9.6597   20.9753   10.0368 H         1 MOL         0.0489
     64 H25        -8.2852   20.4930    8.9856 H         1 MOL         0.0489
@<TRIPOS>BOND
     1    1    2 1  
     2    2    3 ar 
     3    2    5 ar 
     4    3    4 ar 
     5    4    7 ar 
     6    5    6 ar 
     7    6    7 ar 
     8    7    8 1  
     9    8    9 ar 
    10    8   10 ar 
    11    9   15 ar 
    12   10   11 ar 
    13   11   12 1  
    14   11   13 ar 
    15   13   14 1  
    16   13   15 ar 
    17   15   16 1  
    18   16   17 2  
    19   16   18 am 
    20   18   19 1  
    21   19   20 1  
    22   20   21 2  
    23   21   22 1  
    24   22   23 1  
    25   22   27 1  
    26   23   24 1  
    27   23   25 1  
    28   25   26 1  
    29   25   28 1  
    30   27   28 1  
    31   28   29 1  
    32   29   30 1  
    33   29   31 1  
    34   30   37 2  
    35   31   32 ar 
    36   31   36 ar 
    37   32   33 ar 
    38   33   34 ar 
    39   34   35 ar 
    40   35   36 ar 
    41   35   38 1  
    42   36   37 1  
    43   38   39 1  
    44    3   40 1  
    45    4   41 1  
    46    5   42 1  
    47    6   43 1  
    48    9   44 1  
    49   10   45 1  
    50   12   46 1  
    51   14   47 1  
    52   18   48 1  
    53   19   49 1  
    54   19   50 1  
    55   20   51 1  
    56   21   52 1  
    57   22   53 1  
    58   23   54 1  
    59   24   55 1  
    60   25   56 1  
    61   26   57 1  
    62   28   58 1  
    63   30   59 1  
    64   33   60 1  
    65   38   61 1  
    66   39   62 1  
    67   39   63 1  
    68   39   64 1  
@<TRIPOS>SUBSTRUCTURE
     1 MOL         1

