### 
### Created by X-TOOL on Mon Sep 10 21:13:00 2018
### 

@<TRIPOS>MOLECULE
3hvj_ligand
   70    74     1     0     0
SMALL
GAST_HUCK


@<TRIPOS>ATOM
      1 F30        -3.1930   12.2160  -37.1560 F         1 705        -0.1840
      2 C29        -4.2890   11.9670  -36.4110 C.ar      1 705         0.1316
      3 C26        -5.5420   12.2800  -36.9540 C.ar      1 705        -0.0288
      4 C25        -6.7220   12.0200  -36.2060 C.ar      1 705        -0.0581
      5 C28        -4.1200   11.4120  -35.1380 C.ar      1 705        -0.0288
      6 C27        -5.2800   11.1820  -34.4010 C.ar      1 705        -0.0581
      7 C24        -6.5850   11.4800  -34.9120 C.ar      1 705        -0.0299
      8 C22        -7.7440   11.1680  -34.0810 C.ar      1 705        -0.0339
      9 C21        -8.8520   12.0190  -34.0520 C.ar      1 705        -0.0533
     10 C23        -7.7340    9.9820  -33.2790 C.ar      1 705        -0.0299
     11 C33        -8.8440    9.7040  -32.4760 C.ar      1 705         0.1232
     12 O34        -8.8940    8.5470  -31.7090 O.3       1 705        -0.3356
     13 C31        -9.9390   10.5770  -32.4620 C.ar      1 705         0.1393
     14 O32       -10.9680   10.2610  -31.6370 O.3       1 705        -0.3302
     15 C20        -9.9360   11.7510  -33.2260 C.ar      1 705         0.0720
     16 C18       -11.0430   12.7150  -33.2990 C.2       1 705         0.1986
     17 O19       -10.9420   13.8490  -33.7980 O.2       1 705        -0.3908
     18 N17       -12.2630   12.3460  -32.8470 N.am      1 705        -0.2802
     19 C16       -13.4190   13.2690  -32.8910 C.3       1 705         0.0471
     20 C15       -14.6310   12.3950  -32.7800 C.2       1 705        -0.0744
     21 C14       -15.8180   12.7370  -33.3040 C.2       1 705        -0.0658
     22 C6        -17.0090   11.8370  -33.2080 C.3       1 705         0.1082
     23 C4        -17.7770   11.9090  -34.5350 C.3       1 705         0.1189
     24 O5        -18.6050   10.7430  -34.6530 O.3       1 705        -0.3846
     25 C2        -18.5530   13.2320  -34.3330 C.3       1 705         0.1402
     26 O3        -19.7300   13.2620  -35.0950 O.3       1 705        -0.3834
     27 O13       -17.8930   12.3770  -32.2250 O.3       1 705        -0.3296
     28 C1        -18.9550   13.1150  -32.8890 C.3       1 705         0.2028
     29 N10       -19.0650   14.3670  -32.1380 N.pl3     1 705        -0.1918
     30 C9        -18.1100   15.3980  -32.0640 C.2       1 705         0.1123
     31 C11       -20.0580   14.7340  -31.2310 C.ar      1 705         0.1613
     32 N40       -21.1920   14.0570  -30.9220 N.ar      1 705        -0.2714
     33 C39       -21.9820   14.6420  -30.0200 C.ar      1 705         0.0533
     34 N38       -21.7040   15.8230  -29.4320 N.ar      1 705        -0.2696
     35 C35       -20.5760   16.4760  -29.7420 C.ar      1 705         0.1323
     36 C12       -19.6870   15.9360  -30.7070 C.ar      1 705         0.1047
     37 N8        -18.4960   16.3330  -31.2320 N.2       1 705        -0.2957
     38 N7        -20.4080   17.6870  -29.1050 N.pl3     1 705        -0.3012
     39 C36       -19.3090   18.5880  -29.4830 C.3       1 705         0.0295
     40 C37       -19.9650   19.4490  -30.5890 C.3       1 705        -0.0352
     41 C41       -19.2310   20.8090  -30.6630 C.3       1 705        -0.0634
     42 H1         -5.6112   12.7195  -37.9425 H         1 705         0.0602
     43 H2         -7.7013   12.2315  -36.6200 H         1 705         0.0601
     44 H3         -3.1381   11.1734  -34.7455 H         1 705         0.0602
     45 H4         -5.1919   10.7626  -33.4053 H         1 705         0.0601
     46 H5         -8.8657   12.9004  -34.6828 H         1 705         0.0555
     47 H6         -6.8818    9.3123  -33.2942 H         1 705         0.0543
     48 H7         -9.7141    8.5210  -31.2302 H         1 705         0.2443
     49 H8        -10.6552   10.2285  -30.7406 H         1 705         0.2479
     50 H9        -12.3871   11.4266  -32.4738 H         1 705         0.1864
     51 H10       -13.4314   13.8252  -33.8399 H         1 705         0.0643
     52 H11       -13.3776   13.9779  -32.0509 H         1 705         0.0643
     53 H12       -14.5452   11.4455  -32.2537 H         1 705         0.0470
     54 H13       -15.9169   13.6949  -33.8125 H         1 705         0.0477
     55 H14       -16.7104   10.8063  -32.9660 H         1 705         0.0749
     56 H15       -17.1059   11.9720  -35.4042 H         1 705         0.0667
     57 H16       -19.2170   10.7158  -33.9270 H         1 705         0.2102
     58 H17       -17.9294   14.1149  -34.5371 H         1 705         0.0678
     59 H18       -20.2923   12.5414  -34.8357 H         1 705         0.2101
     60 H19       -19.9114   12.5748  -32.8302 H         1 705         0.0998
     61 H20       -17.1757   15.4160  -32.6233 H         1 705         0.1349
     62 H21       -22.9012   14.1383  -29.7437 H         1 705         0.0996
     63 H22       -21.0591   17.9636  -28.3564 H         1 705         0.1856
     64 H23       -18.4473   18.0260  -29.8724 H         1 705         0.0525
     65 H24       -18.9888   19.2069  -28.6319 H         1 705         0.0525
     66 H25       -21.0257   19.6140  -30.3488 H         1 705         0.0282
     67 H26       -19.8842   18.9322  -31.5566 H         1 705         0.0282
     68 H27       -19.6889   21.4306  -31.4466 H         1 705         0.0230
     69 H28       -18.1704   20.6408  -30.9015 H         1 705         0.0230
     70 H29       -19.3119   21.3226  -29.6936 H         1 705         0.0230
@<TRIPOS>BOND
     1    1    2 1  
     2    2    3 ar 
     3    2    5 ar 
     4    3    4 ar 
     5    4    7 ar 
     6    5    6 ar 
     7    6    7 ar 
     8    7    8 1  
     9    8    9 ar 
    10    8   10 ar 
    11    9   15 ar 
    12   10   11 ar 
    13   11   12 1  
    14   11   13 ar 
    15   13   14 1  
    16   13   15 ar 
    17   15   16 1  
    18   16   17 2  
    19   16   18 am 
    20   18   19 1  
    21   19   20 1  
    22   20   21 2  
    23   21   22 1  
    24   22   23 1  
    25   22   27 1  
    26   23   24 1  
    27   23   25 1  
    28   25   26 1  
    29   25   28 1  
    30   27   28 1  
    31   28   29 1  
    32   29   30 1  
    33   29   31 1  
    34   30   37 2  
    35   31   32 ar 
    36   31   36 ar 
    37   32   33 ar 
    38   33   34 ar 
    39   34   35 ar 
    40   35   36 ar 
    41   35   38 1  
    42   36   37 1  
    43   38   39 1  
    44   39   40 1  
    45   40   41 1  
    46    3   42 1  
    47    4   43 1  
    48    5   44 1  
    49    6   45 1  
    50    9   46 1  
    51   10   47 1  
    52   12   48 1  
    53   14   49 1  
    54   18   50 1  
    55   19   51 1  
    56   19   52 1  
    57   20   53 1  
    58   21   54 1  
    59   22   55 1  
    60   23   56 1  
    61   24   57 1  
    62   25   58 1  
    63   26   59 1  
    64   28   60 1  
    65   30   61 1  
    66   33   62 1  
    67   38   63 1  
    68   39   64 1  
    69   39   65 1  
    70   40   66 1  
    71   40   67 1  
    72   41   68 1  
    73   41   69 1  
    74   41   70 1  
@<TRIPOS>SUBSTRUCTURE
     1 705         1

