### 
### Created by X-TOOL on Fri Sep 26 17:34:43 2014
### 

@<TRIPOS>MOLECULE
3hvk_ligand
   66    70     1     0     0
SMALL
GAST_HUCK


@<TRIPOS>ATOM
      1 N1         -5.7990   21.6500   12.8170 N.pl3     1 MOL        -0.1918
      2 C2         -4.7620   21.8080   13.8170 C.3       1 MOL         0.2028
      3 C3         -6.1870   22.5890   11.8910 C.ar      1 MOL         0.1613
      4 C4         -7.0560   21.9490   11.0440 C.ar      1 MOL         0.1047
      5 N5         -7.2440   20.6490   11.4360 N.2       1 MOL        -0.2957
      6 C6         -5.1190   21.2230   15.1750 C.3       1 MOL         0.1402
      7 C7         -0.4730   13.9040   14.3510 C.2       1 MOL         0.1209
      8 C8         -6.4750   20.4790   12.4790 C.2       1 MOL         0.1123
      9 O9         -3.6530   21.0220   13.3530 O.3       1 MOL        -0.3296
     10 C10        -3.7400   20.8630   15.7380 C.3       1 MOL         0.1189
     11 C11         0.7520   14.4490   13.8250 C.2       1 MOL         0.2319
     12 C12        -0.4610   12.7300   15.0470 C.2       1 MOL        -0.0087
     13 C13        -3.1320   20.2690   14.4850 C.3       1 MOL         0.1082
     14 C14        -1.7510   14.5650   14.1870 C.2       1 MOL         0.2124
     15 N15        -5.7790   23.8410   11.7910 N.ar      1 MOL        -0.2714
     16 C16         0.7400   12.0060   15.3010 C.2       1 MOL         0.0107
     17 C17         1.9770   13.7300   14.0990 C.2       1 MOL         0.2186
     18 C18         1.9380   12.5040   14.8410 C.2       1 MOL         0.0202
     19 C19        -7.5590   22.7350   10.0010 C.ar      1 MOL         0.1324
     20 N20        -7.1620   23.9880    9.8710 N.ar      1 MOL        -0.2696
     21 C21        -6.2880   24.5100   10.7730 C.ar      1 MOL         0.0533
     22 C22         0.6970   10.7710   16.0690 C.ar      1 MOL        -0.0101
     23 C23        -3.5080   18.8290   14.3730 C.2       1 MOL        -0.0658
     24 O24        -2.8190   13.9860   14.4690 O.2       1 MOL        -0.3873
     25 O25        -5.8510   22.1920   15.9300 O.3       1 MOL        -0.3834
     26 N26        -1.8060   15.8040   13.6620 N.am      1 MOL        -0.2791
     27 C27        -2.7610   17.9590   13.7490 C.2       1 MOL        -0.0745
     28 C28         1.5330    9.6890   15.7390 C.ar      1 MOL        -0.0515
     29 C29        -0.2330   10.6430   17.1200 C.ar      1 MOL        -0.0515
     30 O30        -2.9660   21.9620   16.1770 O.3       1 MOL        -0.3846
     31 O31         0.8430   15.4950   13.0890 O.2       1 MOL        -0.3378
     32 O32         3.0620   14.2400   13.6320 O.2       1 MOL        -0.3387
     33 C33         0.5820    8.4480   17.4990 C.ar      1 MOL         0.1361
     34 C34         1.5060    8.5270   16.4960 C.ar      1 MOL        -0.0243
     35 C35        -0.2680    9.4690   17.8630 C.ar      1 MOL        -0.0243
     36 F36         0.6080    7.2940   18.2360 F         1 MOL        -0.1803
     37 C37        -3.0820   16.5250   13.6010 C.3       1 MOL         0.0471
     38 N38        -8.4850   22.3070    9.0560 N.pl3     1 MOL        -0.2990
     39 C39        -9.1510   21.0030    9.0860 C.3       1 MOL         0.0528
     40 CA        -10.1970   20.9310   10.1770 C.3       1 MOL         0.0647
     41 OB        -11.3510   21.6530    9.8050 O.3       1 MOL        -0.3930
     42 H1         -4.4966   22.8705   13.9199 H         1 MOL         0.0998
     43 H2         -5.7344   20.3171   15.0722 H         1 MOL         0.0678
     44 H3         -6.3748   19.5379   13.0178 H         1 MOL         0.1349
     45 H4         -3.8202   20.1296   16.5539 H         1 MOL         0.0667
     46 H5         -1.4030   12.3322   15.4217 H         1 MOL         0.0855
     47 H6         -2.0362   20.3577   14.5202 H         1 MOL         0.0749
     48 H7          2.8617   11.9634   15.0419 H         1 MOL         0.0734
     49 H8         -5.9894   25.5445   10.6476 H         1 MOL         0.0996
     50 H9         -4.4383   18.4921   14.8279 H         1 MOL         0.0477
     51 H10        -6.6878   22.3527   15.5101 H         1 MOL         0.2101
     52 H11        -0.9737   16.2342   13.3124 H         1 MOL         0.1862
     53 H12        -1.8332   18.3168   13.3051 H         1 MOL         0.0470
     54 H13         2.2016    9.7636   14.8890 H         1 MOL         0.0637
     55 H14        -0.9157   11.4538   17.3471 H         1 MOL         0.0637
     56 H15        -3.3547   22.3279   16.9629 H         1 MOL         0.2102
     57 H16         2.1927    7.7117   16.2990 H         1 MOL         0.0614
     58 H17        -0.9438    9.3601   18.7036 H         1 MOL         0.0614
     59 H18        -3.7430   16.1974   14.4170 H         1 MOL         0.0643
     60 H19        -3.5750   16.3438   12.6345 H         1 MOL         0.0643
     61 H20        -8.7176   22.9488    8.2847 H         1 MOL         0.1857
     62 H21        -8.3970   20.2221    9.2637 H         1 MOL         0.0548
     63 H22        -9.6372   20.8291    8.1147 H         1 MOL         0.0548
     64 H23        -9.7848   21.3596   11.1024 H         1 MOL         0.0578
     65 H24       -10.4683   19.8790   10.3493 H         1 MOL         0.0578
     66 H25       -11.9960   21.5971   10.5003 H         1 MOL         0.2095
@<TRIPOS>BOND
     1    2    1 1  
     2    1    3 1  
     3    1    8 1  
     4    6    2 1  
     5    9    2 1  
     6    3    4 ar 
     7    3   15 ar 
     8    5    4 1  
     9    4   19 ar 
    10    8    5 2  
    11   10    6 1  
    12    6   25 1  
    13    7   11 1  
    14    7   12 2  
    15   14    7 1  
    16   13    9 1  
    17   13   10 1  
    18   10   30 1  
    19   11   17 1  
    20   11   31 2  
    21   12   16 1  
    22   23   13 1  
    23   14   24 2  
    24   26   14 am 
    25   15   21 ar 
    26   16   18 2  
    27   16   22 1  
    28   17   18 1  
    29   17   32 2  
    30   19   20 ar 
    31   19   38 1  
    32   21   20 ar 
    33   22   28 ar 
    34   22   29 ar 
    35   27   23 2  
    36   37   26 1  
    37   27   37 1  
    38   28   34 ar 
    39   29   35 ar 
    40   34   33 ar 
    41   33   35 ar 
    42   33   36 1  
    43   38   39 1  
    44   39   40 1  
    45   40   41 1  
    46    2   42 1  
    47    6   43 1  
    48    8   44 1  
    49   10   45 1  
    50   12   46 1  
    51   13   47 1  
    52   18   48 1  
    53   21   49 1  
    54   23   50 1  
    55   25   51 1  
    56   26   52 1  
    57   27   53 1  
    58   28   54 1  
    59   29   55 1  
    60   30   56 1  
    61   34   57 1  
    62   35   58 1  
    63   37   59 1  
    64   37   60 1  
    65   38   61 1  
    66   39   62 1  
    67   39   63 1  
    68   40   64 1  
    69   40   65 1  
    70   41   66 1  
@<TRIPOS>SUBSTRUCTURE
     1 MOL         1

