### 
### Created by X-TOOL on Mon Sep 10 21:13:01 2018
### 

@<TRIPOS>MOLECULE
3hw1_ligand
   30    32     1     0     0
SMALL
GAST_HUCK


@<TRIPOS>ATOM
      1 N12       -19.6390  -92.7290   10.6900 N.pl3     1 EV2        -0.3129
      2 C10       -18.5200  -92.6780   11.5250 C.ar      1 EV2         0.1687
      3 N8        -17.8170  -91.4930   11.4830 N.ar      1 EV2        -0.2736
      4 C6        -16.7000  -91.3200   12.2620 C.ar      1 EV2         0.0421
      5 C4        -16.0200  -90.1190   12.1940 C.ar      1 EV2        -0.0463
      6 C2        -14.8900  -89.9270   12.9690 C.ar      1 EV2        -0.0614
      7 C9        -18.1230  -93.7270   12.3570 C.ar      1 EV2         0.1733
      8 N7        -16.9860  -93.5480   13.1450 N.ar      1 EV2        -0.2733
      9 C5        -16.2740  -92.3510   13.0960 C.ar      1 EV2         0.0421
     10 C3        -15.1400  -92.1540   13.8760 C.ar      1 EV2        -0.0463
     11 C1        -14.4530  -90.9420   13.8070 C.ar      1 EV2        -0.0614
     12 N11       -18.8410  -94.9560   12.4300 N.pl3     1 EV2        -0.2850
     13 C16       -20.3000  -95.0270   12.6800 C.3       1 EV2         0.0318
     14 C14       -20.5420  -96.0200   13.8000 C.3       1 EV2        -0.0305
     15 C13       -19.1930  -96.5850   14.1440 C.3       1 EV2        -0.0305
     16 C15       -18.3000  -96.2260   12.9630 C.3       1 EV2         0.0318
     17 H1        -20.2210  -93.5783   10.6601 H         1 EV2         0.1802
     18 H2        -19.8820  -91.9173   10.1043 H         1 EV2         0.1802
     19 H3        -16.3701  -89.3312   11.5368 H         1 EV2         0.0616
     20 H4        -14.3494  -88.9886   12.9215 H         1 EV2         0.0617
     21 H5        -14.7908  -92.9400   14.5358 H         1 EV2         0.0616
     22 H6        -13.5681  -90.7918   14.4149 H         1 EV2         0.0617
     23 H7        -20.8180  -95.3604   11.7687 H         1 EV2         0.0525
     24 H8        -20.6760  -94.0359   12.9737 H         1 EV2         0.0525
     25 H9        -21.2179  -96.8199   13.4634 H         1 EV2         0.0286
     26 H10       -20.9793  -95.5137   14.6732 H         1 EV2         0.0286
     27 H11       -19.2512  -97.6766   14.2664 H         1 EV2         0.0286
     28 H12       -18.8092  -96.1321   15.0701 H         1 EV2         0.0286
     29 H13       -17.2598  -96.0917   13.2945 H         1 EV2         0.0525
     30 H14       -18.3417  -97.0135   12.1962 H         1 EV2         0.0525
@<TRIPOS>BOND
     1    1    2 1  
     2    2    3 ar 
     3    2    7 ar 
     4    3    4 ar 
     5    4    5 ar 
     6    4    9 ar 
     7    5    6 ar 
     8    6   11 ar 
     9    7    8 ar 
    10    7   12 1  
    11    8    9 ar 
    12    9   10 ar 
    13   10   11 ar 
    14   12   13 1  
    15   12   16 1  
    16   13   14 1  
    17   14   15 1  
    18   15   16 1  
    19    1   17 1  
    20    1   18 1  
    21    5   19 1  
    22    6   20 1  
    23   10   21 1  
    24   11   22 1  
    25   13   23 1  
    26   13   24 1  
    27   14   25 1  
    28   14   26 1  
    29   15   27 1  
    30   15   28 1  
    31   16   29 1  
    32   16   30 1  
@<TRIPOS>SUBSTRUCTURE
     1 EV2         1

