### 
### Created by X-TOOL on Mon Sep 10 21:13:01 2018
### 

@<TRIPOS>MOLECULE
3hww_ligand
   14    13     1     0     0
SMALL
GAST_HUCK


@<TRIPOS>ATOM
      1 C1        -42.7770    3.0060   10.4000 C.2       1 AKG         0.1249
      2 O1        -42.3110    1.9630    9.9750 O.co2     1 AKG        -0.5464
      3 O2        -43.2280    3.9740    9.6790 O.co2     1 AKG        -0.5464
      4 C2        -42.9000    3.3130   11.7530 C.2       1 AKG         0.1731
      5 O5        -42.9340    4.4170   12.4520 O.2       1 AKG        -0.3576
      6 C3        -42.7950    2.6900   12.9590 C.3       1 AKG         0.0423
      7 C4        -44.1440    2.3660   13.5110 C.3       1 AKG         0.0164
      8 C5        -43.8340    1.5140   14.7050 C.2       1 AKG         0.0371
      9 O3        -43.9490    2.0130   15.8380 O.co2     1 AKG        -0.5688
     10 O4        -43.4570    0.3410   14.5400 O.co2     1 AKG        -0.5688
     11 H1        -42.2680    3.3522   13.6617 H         1 AKG         0.0516
     12 H2        -42.2237    1.7583   12.8345 H         1 AKG         0.0516
     13 H3        -44.7469    1.8111   12.7772 H         1 AKG         0.0456
     14 H4        -44.6781    3.2806   13.8079 H         1 AKG         0.0456
@<TRIPOS>BOND
     1    1    2 ar 
     2    1    3 ar 
     3    1    4 1  
     4    4    5 2  
     5    4    6 1  
     6    6    7 1  
     7    7    8 1  
     8    8    9 ar 
     9    8   10 ar 
    10    6   11 1  
    11    6   12 1  
    12    7   13 1  
    13    7   14 1  
@<TRIPOS>SUBSTRUCTURE
     1 AKG         1

