### 
### Created by X-TOOL on Fri Sep 26 17:34:43 2014
### 

@<TRIPOS>MOLECULE
3hx3_ligand
   49    49     1     0     0
SMALL
GAST_HUCK


@<TRIPOS>ATOM
      1 C1          5.0550    7.8800   12.2630 C.3       1 RET        -0.0838
      2 C2          5.3860    9.1320   11.4850 C.3       1 RET        -0.0968
      3 C3          6.6590    9.6150   12.1620 C.3       1 RET        -0.0374
      4 C4          7.7560    8.5460   12.1040 C.3       1 RET         0.0375
      5 C5          7.2980    7.0920   12.0190 C.2       1 RET         0.0263
      6 C6          6.0090    6.7310   12.0610 C.2       1 RET        -0.0410
      7 C7          5.6480    5.2870   11.9920 C.2       1 RET        -0.0562
      8 C8          4.7620    4.7110   12.8010 C.2       1 RET        -0.0473
      9 C9          4.4140    3.2710   12.7440 C.2       1 RET        -0.0377
     10 C10         3.2770    2.8240   13.3080 C.2       1 RET        -0.0567
     11 C11         2.9840    1.3960   13.2360 C.2       1 RET        -0.0678
     12 C12         1.8980    0.8250   13.7650 C.2       1 RET        -0.0606
     13 C13         0.8320    1.5810   14.4480 C.2       1 RET        -0.0512
     14 C14         1.1340    2.4390   15.4270 C.2       1 RET        -0.0346
     15 C15         0.0760    3.1750   16.1140 C.2       1 RET         0.0844
     16 O1          0.3870    4.0610   16.8960 O.2       1 RET        -0.3920
     17 C16         3.8590    7.7860   13.2050 C.3       1 RET        -0.1136
     18 C17         4.1540    7.4260   11.1140 C.3       1 RET        -0.1136
     19 C18         8.3410    6.0290   11.8460 C.3       1 RET         0.0278
     20 C19         5.3220    2.2700   12.0840 C.3       1 RET        -0.0248
     21 C20        -0.6010    1.3440   14.0750 C.3       1 RET        -0.0289
     22 H1          4.5823    9.8779   11.5720 H         1 RET         0.0082
     23 H2          5.5623    8.9050   10.4232 H         1 RET         0.0082
     24 H3          6.4398    9.8477   13.2145 H         1 RET         0.0310
     25 H4          7.0147   10.5225   11.6522 H         1 RET         0.0310
     26 H5          8.3691    8.6490   13.0115 H         1 RET         0.0731
     27 H6          8.3747    8.7521   11.2181 H         1 RET         0.0731
     28 H7          6.1355    4.6696   11.2389 H         1 RET         0.0724
     29 H8          4.2655    5.3314   13.5456 H         1 RET         0.0588
     30 H9          2.5930    3.5101   13.8054 H         1 RET         0.0496
     31 H10         3.6959    0.7550   12.7181 H         1 RET         0.0675
     32 H11         1.7946   -0.2563   13.6876 H         1 RET         0.0492
     33 H12         2.1736    2.5901   15.7138 H         1 RET         0.0356
     34 H13        -0.9714    2.9384   15.9326 H         1 RET         0.1212
     35 H14         3.8243    6.7826   13.6545 H         1 RET         0.0042
     36 H15         2.9325    7.9670   12.6405 H         1 RET         0.0042
     37 H16         3.9577    8.5404   13.9994 H         1 RET         0.0042
     38 H17         4.7413    7.3761   10.1853 H         1 RET         0.0042
     39 H18         3.3300    8.1438   10.9885 H         1 RET         0.0042
     40 H19         3.7426    6.4315   11.3415 H         1 RET         0.0042
     41 H20         7.8557    5.0428   11.8024 H         1 RET         0.0697
     42 H21         9.0380    6.0573   12.6965 H         1 RET         0.0697
     43 H22         8.8945    6.2068   10.9122 H         1 RET         0.0697
     44 H23         6.2018    2.7875   11.6741 H         1 RET         0.0431
     45 H24         4.7812    1.7653   11.2699 H         1 RET         0.0431
     46 H25         5.6471    1.5252   12.8253 H         1 RET         0.0431
     47 H26        -0.6503    0.6119   13.2555 H         1 RET         0.0419
     48 H27        -1.0564    2.2907   13.7488 H         1 RET         0.0419
     49 H28        -1.1475    0.9555   14.9470 H         1 RET         0.0419
@<TRIPOS>BOND
     1    1    2 1  
     2    1    6 1  
     3    1   17 1  
     4    1   18 1  
     5    2    3 1  
     6    3    4 1  
     7    4    5 1  
     8    5    6 2  
     9    5   19 1  
    10    6    7 1  
    11    7    8 2  
    12    8    9 1  
    13    9   10 2  
    14    9   20 1  
    15   10   11 1  
    16   11   12 2  
    17   12   13 1  
    18   13   14 2  
    19   13   21 1  
    20   14   15 1  
    21   15   16 2  
    22    2   22 1  
    23    2   23 1  
    24    3   24 1  
    25    3   25 1  
    26    4   26 1  
    27    4   27 1  
    28    7   28 1  
    29    8   29 1  
    30   10   30 1  
    31   11   31 1  
    32   12   32 1  
    33   14   33 1  
    34   15   34 1  
    35   17   35 1  
    36   17   36 1  
    37   17   37 1  
    38   18   38 1  
    39   18   39 1  
    40   18   40 1  
    41   19   41 1  
    42   19   42 1  
    43   19   43 1  
    44   20   44 1  
    45   20   45 1  
    46   20   46 1  
    47   21   47 1  
    48   21   48 1  
    49   21   49 1  
@<TRIPOS>SUBSTRUCTURE
     1 RET         1

