### 
### Created by X-TOOL on Mon Sep 10 21:13:01 2018
### 

@<TRIPOS>MOLECULE
3hxb_ligand
   80    83     1     0     0
SMALL
GAST_HUCK


@<TRIPOS>ATOM
      1 C43         5.8440   18.8800   27.3910 C.ar      1 BD5        -0.0686
      2 C42         5.3500   20.1850   27.3650 C.ar      1 BD5        -0.0398
      3 C41         3.9850   20.4190   27.2060 C.ar      1 BD5         0.0805
      4 O44         3.5070   21.6930   27.1790 O.3       1 BD5        -0.3376
      5 C40         3.1140   19.3400   27.0740 C.ar      1 BD5        -0.0398
      6 C39         3.6000   18.0320   27.1010 C.ar      1 BD5        -0.0686
      7 C38         4.9690   17.7970   27.2510 C.ar      1 BD5        -0.0499
      8 C37         5.4970   16.3530   27.2920 C.3       1 BD5         0.0108
      9 C35         5.8820   15.6930   25.9360 C.3       1 BD5         0.1025
     10 C36         4.9030   14.5580   25.5460 C.2       1 BD5         0.0619
     11 O45         4.3140   14.6490   24.4380 O.co2     1 BD5        -0.5665
     12 O46         4.7770   13.6110   26.3510 O.co2     1 BD5        -0.5665
     13 N33         5.9310   16.5960   24.7690 N.am      1 BD5        -0.2678
     14 C32         7.0500   16.8510   24.0990 C.2       1 BD5         0.2055
     15 O34         8.1470   16.3680   24.3780 O.2       1 BD5        -0.3942
     16 C24         6.8340   17.7590   22.8680 C.3       1 BD5         0.1404
     17 C25         7.6600   17.2060   21.6390 C.3       1 BD5         0.0214
     18 C26         7.9100   18.2140   20.4910 C.ar      1 BD5        -0.0386
     19 C31         9.0910   18.1580   19.7700 C.ar      1 BD5        -0.0601
     20 C30         9.3110   19.0790   18.7560 C.ar      1 BD5        -0.0686
     21 C29         8.3840   20.0590   18.4330 C.ar      1 BD5        -0.0687
     22 C28         7.1990   20.1250   19.1360 C.ar      1 BD5        -0.0686
     23 C27         6.9860   19.2000   20.1470 C.ar      1 BD5        -0.0601
     24 N22         6.8770   19.2400   23.0430 N.am      1 BD5        -0.2618
     25 C21         5.8170   19.9180   23.5320 C.2       1 BD5         0.2058
     26 O23         4.7650   19.3780   23.9000 O.2       1 BD5        -0.3942
     27 C12         5.8900   21.4810   23.5400 C.3       1 BD5         0.1409
     28 C13         5.8220   22.2450   24.9140 C.3       1 BD5         0.0163
     29 C14         6.2430   23.7240   24.7350 C.ar      1 BD5        -0.0493
     30 C19         7.1330   24.2750   25.6670 C.ar      1 BD5        -0.0685
     31 C18         7.5480   25.5970   25.5250 C.ar      1 BD5        -0.0398
     32 C17         7.0950   26.3670   24.4510 C.ar      1 BD5         0.0805
     33 O20         7.5250   27.6350   24.3460 O.3       1 BD5        -0.3376
     34 C16         6.2270   25.8350   23.4990 C.ar      1 BD5        -0.0398
     35 C15         5.8010   24.5100   23.6470 C.ar      1 BD5        -0.0685
     36 N10         6.8200   22.0390   22.4720 N.am      1 BD5        -0.2395
     37 C9          8.1370   22.3610   22.4730 C.2       1 BD5         0.3240
     38 O11         8.9520   22.2170   23.3840 O.2       1 BD5        -0.3773
     39 O8          8.6060   22.8660   21.2840 O.3       1 BD5        -0.2505
     40 C7          8.5880   24.2820   21.0430 C.3       1 BD5         0.1113
     41 C3          7.7360   24.8560   20.1190 C.ar      1 BD5        -0.0130
     42 C2          6.7380   24.0740   19.5180 C.ar      1 BD5        -0.0578
     43 C1          5.8540   24.6200   18.5860 C.ar      1 BD5        -0.0685
     44 C6          5.9860   25.9710   18.2730 C.ar      1 BD5        -0.0687
     45 C5          6.9850   26.7490   18.8800 C.ar      1 BD5        -0.0685
     46 C4          7.8800   26.2120   19.8100 C.ar      1 BD5        -0.0578
     47 H1          6.9061   18.7052   27.5197 H         1 BD5         0.0530
     48 H2          6.0316   21.0214   27.4690 H         1 BD5         0.0525
     49 H3          2.5641   21.6739   27.0648 H         1 BD5         0.2458
     50 H4          2.0519   19.5174   26.9495 H         1 BD5         0.0525
     51 H5          2.9146   17.1976   27.0055 H         1 BD5         0.0530
     52 H6          4.7169   15.7293   27.7529 H         1 BD5         0.0446
     53 H7          6.3943   16.3476   27.9282 H         1 BD5         0.0446
     54 H8          6.8849   15.2615   26.0698 H         1 BD5         0.0747
     55 H9          5.0842   17.0354   24.4693 H         1 BD5         0.1877
     56 H10         5.7837   17.5793   22.5950 H         1 BD5         0.0823
     57 H11         7.1123   16.3479   21.2222 H         1 BD5         0.0474
     58 H12         8.6384   16.8700   22.0129 H         1 BD5         0.0474
     59 H13         9.8354   17.4029   19.9954 H         1 BD5         0.0557
     60 H14        10.2387   19.0311   18.1973 H         1 BD5         0.0599
     61 H15         8.5886   20.7654   17.6367 H         1 BD5         0.0559
     62 H16         6.4551   20.8788   18.9047 H         1 BD5         0.0599
     63 H17         6.0536   19.2458   20.6980 H         1 BD5         0.0557
     64 H18         7.7064   19.7397   22.7934 H         1 BD5         0.1885
     65 H19         4.9045   21.7394   23.1252 H         1 BD5         0.0820
     66 H20         6.5003   21.7602   25.6315 H         1 BD5         0.0452
     67 H21         4.7923   22.2061   25.2990 H         1 BD5         0.0452
     68 H22         7.4964   23.6756   26.4939 H         1 BD5         0.0530
     69 H23         8.2258   26.0305   26.2514 H         1 BD5         0.0525
     70 H24         7.2664   28.1210   25.1202 H         1 BD5         0.2458
     71 H25         5.8890   26.4348   22.6617 H         1 BD5         0.0525
     72 H26         5.1233   24.0812   22.9176 H         1 BD5         0.0530
     73 H27         6.3695   22.2004   21.5939 H         1 BD5         0.1901
     74 H28         9.6075   24.5547   20.7329 H         1 BD5         0.0776
     75 H29         8.3593   24.7560   22.0089 H         1 BD5         0.0776
     76 H30         6.6519   23.0263   19.7824 H         1 BD5         0.0557
     77 H31         5.0878   24.0111   18.1198 H         1 BD5         0.0599
     78 H32         5.3124   26.4252   17.5554 H         1 BD5         0.0559
     79 H33         7.0647   27.7982   18.6195 H         1 BD5         0.0599
     80 H34         8.6507   26.8193   20.2707 H         1 BD5         0.0557
@<TRIPOS>BOND
     1    1    2 ar 
     2    1    7 ar 
     3    2    3 ar 
     4    3    4 1  
     5    3    5 ar 
     6    5    6 ar 
     7    6    7 ar 
     8    7    8 1  
     9    8    9 1  
    10    9   10 1  
    11    9   13 1  
    12   10   11 ar 
    13   10   12 ar 
    14   13   14 am 
    15   14   15 2  
    16   14   16 1  
    17   16   17 1  
    18   16   24 1  
    19   17   18 1  
    20   18   19 ar 
    21   18   23 ar 
    22   19   20 ar 
    23   20   21 ar 
    24   21   22 ar 
    25   22   23 ar 
    26   24   25 am 
    27   25   26 2  
    28   25   27 1  
    29   27   28 1  
    30   27   36 1  
    31   28   29 1  
    32   29   30 ar 
    33   29   35 ar 
    34   30   31 ar 
    35   31   32 ar 
    36   32   33 1  
    37   32   34 ar 
    38   34   35 ar 
    39   36   37 am 
    40   37   38 2  
    41   37   39 1  
    42   39   40 1  
    43   40   41 1  
    44   41   42 ar 
    45   41   46 ar 
    46   42   43 ar 
    47   43   44 ar 
    48   44   45 ar 
    49   45   46 ar 
    50    1   47 1  
    51    2   48 1  
    52    4   49 1  
    53    5   50 1  
    54    6   51 1  
    55    8   52 1  
    56    8   53 1  
    57    9   54 1  
    58   13   55 1  
    59   16   56 1  
    60   17   57 1  
    61   17   58 1  
    62   19   59 1  
    63   20   60 1  
    64   21   61 1  
    65   22   62 1  
    66   23   63 1  
    67   24   64 1  
    68   27   65 1  
    69   28   66 1  
    70   28   67 1  
    71   30   68 1  
    72   31   69 1  
    73   33   70 1  
    74   34   71 1  
    75   35   72 1  
    76   36   73 1  
    77   40   74 1  
    78   40   75 1  
    79   42   76 1  
    80   43   77 1  
    81   44   78 1  
    82   45   79 1  
    83   46   80 1  
@<TRIPOS>SUBSTRUCTURE
     1 BD5         1

