### 
### Created by X-TOOL on Mon Sep 10 21:12:59 2018
### 

@<TRIPOS>MOLECULE
3hxc_ligand
   85    89     1     0     0
SMALL
GAST_HUCK


@<TRIPOS>ATOM
      1 CD2         6.6300   25.4020   19.6280 C.ar      1 BD6        -0.0214
      2 CE3         5.2980   25.7610   19.4510 C.ar      1 BD6        -0.0747
      3 CZ3         4.9520   26.7920   18.5930 C.ar      1 BD6        -0.0792
      4 CH2         5.9480   27.4610   17.9000 C.ar      1 BD6        -0.0768
      5 CZ2         7.2810   27.0980   18.0730 C.ar      1 BD6        -0.0443
      6 CE2         7.6260   26.0700   18.9380 C.ar      1 BD6         0.0603
      7 NE1         8.7890   25.5310   19.2860 N.pl3     1 BD6        -0.2890
      8 CD1         8.5660   24.5530   20.1690 C.2       1 BD6         0.0167
      9 CG          7.2600   24.4520   20.4080 C.2       1 BD6        -0.0418
     10 CB          6.5630   23.4590   21.3480 C.3       1 BD6         0.0042
     11 CA          6.2560   24.0400   22.7400 C.3       1 BD6         0.1367
     12 C           5.2200   25.1800   22.6530 C.2       1 BD6         0.2257
     13 O           4.0300   24.9760   22.3930 O.2       1 BD6        -0.3943
     14 NBC         5.7290   26.3860   22.8760 N.am      1 BD6        -0.1622
     15 OAF         4.9520   27.5060   22.8400 O.3       1 BD6        -0.2717
     16 N           5.7270   22.9670   23.6190 N.am      1 BD6        -0.2625
     17 CBK         5.6260   23.0660   24.9530 C.2       1 BD6         0.2062
     18 OAD         5.9710   24.0530   25.6030 O.2       1 BD6        -0.3942
     19 CBU         5.0400   21.8250   25.6540 C.3       1 BD6         0.1429
     20 CAZ         4.2310   22.2710   26.8890 C.3       1 BD6         0.0216
     21 CBN         3.6480   21.1100   27.6980 C.ar      1 BD6        -0.0385
     22 CAQ         4.3820   20.5570   28.7430 C.ar      1 BD6        -0.0601
     23 CAK         3.8580   19.5060   29.4880 C.ar      1 BD6        -0.0686
     24 CAH         2.5940   19.0020   29.1840 C.ar      1 BD6        -0.0687
     25 CAL         1.8580   19.5540   28.1350 C.ar      1 BD6        -0.0686
     26 CAR         2.3870   20.6110   27.3970 C.ar      1 BD6        -0.0601
     27 NBV         6.1420   20.9010   26.0420 N.am      1 BD6        -0.2510
     28 CAA         7.4480   21.3800   26.5610 C.3       1 BD6         0.0256
     29 CBL         6.0360   19.5580   25.9620 C.2       1 BD6         0.2077
     30 OAE         6.9580   18.7990   26.2650 O.2       1 BD6        -0.3941
     31 CBT         4.7310   18.9590   25.4100 C.3       1 BD6         0.1389
     32 CAY         4.1720   17.8580   26.3090 C.3       1 BD6         0.0145
     33 CBO         2.8170   17.3110   25.8220 C.2       1 BD6        -0.0027
     34 CAV         2.1650   17.5990   24.6920 C.2       1 BD6         0.0291
     35 NBF         1.0330   16.9000   24.6740 N.pl3     1 BD6        -0.2752
     36 CAS         0.9720   16.1810   25.7880 C.2       1 BD6         0.0907
     37 NBB         2.0710   16.4340   26.4950 N.2       1 BD6        -0.3252
     38 NBD         5.1950   18.3990   24.1570 N.am      1 BD6        -0.2398
     39 CBI         5.1290   19.1150   23.0560 C.2       1 BD6         0.3240
     40 OAB         4.6240   20.2390   23.0150 O.2       1 BD6        -0.3773
     41 OBH         5.6300   18.5710   21.9160 O.3       1 BD6        -0.2505
     42 CAX         6.0110   19.6720   21.0140 C.3       1 BD6         0.1113
     43 CBM         7.0700   19.6450   20.1500 C.ar      1 BD6        -0.0130
     44 CAO         7.9490   18.5640   20.1550 C.ar      1 BD6        -0.0578
     45 CAI         9.0140   18.5660   19.2800 C.ar      1 BD6        -0.0685
     46 CAG         9.1780   19.6520   18.4280 C.ar      1 BD6        -0.0687
     47 CAJ         8.3000   20.7260   18.4290 C.ar      1 BD6        -0.0685
     48 CAP         7.2330   20.7360   19.2980 C.ar      1 BD6        -0.0578
     49 H1          4.5227   25.2286   19.9900 H         1 BD6         0.0540
     50 H2          3.9128   27.0725   18.4651 H         1 BD6         0.0510
     51 H3          5.6894   28.2671   17.2230 H         1 BD6         0.0530
     52 H4          8.0561   27.6234   17.5269 H         1 BD6         0.0541
     53 H5          9.7124   25.8198   18.9328 H         1 BD6         0.2216
     54 H6          9.3362   23.9323   20.6244 H         1 BD6         0.0795
     55 H7          7.2153   22.5822   21.4733 H         1 BD6         0.0396
     56 H8          5.6153   23.1478   20.8844 H         1 BD6         0.0396
     57 H9          7.1865   24.4366   23.1722 H         1 BD6         0.0814
     58 H10         6.7050   26.4749   23.0750 H         1 BD6         0.2217
     59 H11         5.4886   28.2683   23.0228 H         1 BD6         0.2490
     60 H12         5.4266   22.1156   23.1890 H         1 BD6         0.1884
     61 H13         4.3675   21.3019   24.9583 H         1 BD6         0.0825
     62 H14         3.4010   22.9076   26.5485 H         1 BD6         0.0474
     63 H15         4.8939   22.8531   27.5461 H         1 BD6         0.0474
     64 H16         5.3660   20.9469   28.9772 H         1 BD6         0.0557
     65 H17         4.4311   19.0795   30.3033 H         1 BD6         0.0599
     66 H18         2.1835   18.1820   29.7621 H         1 BD6         0.0559
     67 H19         0.8766   19.1614   27.8946 H         1 BD6         0.0599
     68 H20         1.8132   21.0449   26.5861 H         1 BD6         0.0557
     69 H21         8.0954   20.5173   26.7769 H         1 BD6         0.0488
     70 H22         7.2866   21.9572   27.4834 H         1 BD6         0.0488
     71 H23         7.9296   22.0202   25.8073 H         1 BD6         0.0488
     72 H24         3.9659   19.7339   25.2549 H         1 BD6         0.0816
     73 H25         4.0412   18.2658   27.3222 H         1 BD6         0.0420
     74 H26         4.8943   17.0289   26.3378 H         1 BD6         0.0420
     75 H27         2.5021   18.2875   23.9186 H         1 BD6         0.0729
     76 H28         0.3261   16.9144   23.9250 H         1 BD6         0.2361
     77 H29         0.1669   15.5051   26.0726 H         1 BD6         0.1199
     78 H30         5.5646   17.4702   24.1295 H         1 BD6         0.1900
     79 H31         6.1872   20.5393   21.6673 H         1 BD6         0.0776
     80 H32         5.1260   19.8583   20.3879 H         1 BD6         0.0776
     81 H33         7.7977   17.7345   20.8363 H         1 BD6         0.0557
     82 H34         9.7108   17.7360   19.2567 H         1 BD6         0.0599
     83 H35        10.0173   19.6599   17.7421 H         1 BD6         0.0559
     84 H36         8.4539   21.5547   17.7474 H         1 BD6         0.0599
     85 H37         6.5391   21.5686   19.3193 H         1 BD6         0.0557
@<TRIPOS>BOND
     1    1    2 ar 
     2    1    6 ar 
     3    1    9 1  
     4    2    3 ar 
     5    3    4 ar 
     6    4    5 ar 
     7    5    6 ar 
     8    6    7 1  
     9    7    8 1  
    10    8    9 2  
    11    9   10 1  
    12   10   11 1  
    13   11   12 1  
    14   11   16 1  
    15   12   13 2  
    16   12   14 am 
    17   14   15 1  
    18   16   17 am 
    19   17   18 2  
    20   17   19 1  
    21   19   20 1  
    22   19   27 1  
    23   20   21 1  
    24   21   22 ar 
    25   21   26 ar 
    26   22   23 ar 
    27   23   24 ar 
    28   24   25 ar 
    29   25   26 ar 
    30   27   28 1  
    31   27   29 am 
    32   29   30 2  
    33   29   31 1  
    34   31   32 1  
    35   31   38 1  
    36   32   33 1  
    37   33   34 2  
    38   33   37 1  
    39   34   35 1  
    40   35   36 1  
    41   36   37 2  
    42   38   39 am 
    43   39   40 2  
    44   39   41 1  
    45   41   42 1  
    46   42   43 1  
    47   43   44 ar 
    48   43   48 ar 
    49   44   45 ar 
    50   45   46 ar 
    51   46   47 ar 
    52   47   48 ar 
    53    2   49 1  
    54    3   50 1  
    55    4   51 1  
    56    5   52 1  
    57    7   53 1  
    58    8   54 1  
    59   10   55 1  
    60   10   56 1  
    61   11   57 1  
    62   14   58 1  
    63   15   59 1  
    64   16   60 1  
    65   19   61 1  
    66   20   62 1  
    67   20   63 1  
    68   22   64 1  
    69   23   65 1  
    70   24   66 1  
    71   25   67 1  
    72   26   68 1  
    73   28   69 1  
    74   28   70 1  
    75   28   71 1  
    76   31   72 1  
    77   32   73 1  
    78   32   74 1  
    79   34   75 1  
    80   35   76 1  
    81   36   77 1  
    82   38   78 1  
    83   42   79 1  
    84   42   80 1  
    85   44   81 1  
    86   45   82 1  
    87   46   83 1  
    88   47   84 1  
    89   48   85 1  
@<TRIPOS>SUBSTRUCTURE
     1 BD6         1

