### 
### Created by X-TOOL on Mon Sep 10 21:13:00 2018
### 

@<TRIPOS>MOLECULE
3hxd_ligand
   82    85     1     0     0
SMALL
GAST_HUCK


@<TRIPOS>ATOM
      1 CD1         6.9390   24.3340   19.1600 C.ar      1 BD7        -0.0685
      2 CE1         7.7550   25.0640   18.3010 C.ar      1 BD7        -0.0398
      3 CZ          9.0450   25.4070   18.7020 C.ar      1 BD7         0.0805
      4 OH          9.8790   26.1070   17.8970 O.3       1 BD7        -0.3376
      5 CE2         9.5160   25.0260   19.9460 C.ar      1 BD7        -0.0398
      6 CD2         8.7010   24.3060   20.8030 C.ar      1 BD7        -0.0685
      7 CG          7.4180   23.9640   20.4140 C.ar      1 BD7        -0.0493
      8 CB          6.5490   23.1560   21.3720 C.3       1 BD7         0.0163
      9 CA          6.2650   23.8900   22.6760 C.3       1 BD7         0.1406
     10 C           5.1840   24.9480   22.4070 C.2       1 BD7         0.2263
     11 O           4.0750   24.6260   21.9830 O.2       1 BD7        -0.3942
     12 NBC         5.5430   26.2090   22.6530 N.am      1 BD7        -0.1622
     13 OAF         4.6730   27.2540   22.4500 O.3       1 BD7        -0.2717
     14 N           5.7720   22.8730   23.6340 N.am      1 BD7        -0.2620
     15 CBJ         5.7460   22.9940   24.9640 C.2       1 BD7         0.2063
     16 OAD         6.1450   23.9750   25.5900 O.2       1 BD7        -0.3942
     17 CBS         5.1790   21.7510   25.6780 C.3       1 BD7         0.1429
     18 CBA         4.4960   22.1690   26.9930 C.3       1 BD7         0.0216
     19 CBN         3.8430   20.9960   27.7310 C.ar      1 BD7        -0.0385
     20 CAP         4.4650   20.4510   28.8530 C.ar      1 BD7        -0.0601
     21 CAL         3.8780   19.3890   29.5340 C.ar      1 BD7        -0.0686
     22 CAI         2.6640   18.8680   29.0880 C.ar      1 BD7        -0.0687
     23 CAM         2.0410   19.4200   27.9670 C.ar      1 BD7        -0.0686
     24 CAQ         2.6320   20.4850   27.2880 C.ar      1 BD7        -0.0601
     25 NBT         6.3000   20.7980   25.9210 N.am      1 BD7        -0.2510
     26 CAA         7.6500   21.2390   26.3620 C.3       1 BD7         0.0256
     27 CBK         6.1970   19.4650   25.7620 C.2       1 BD7         0.2077
     28 OAE         7.1520   18.7100   25.9560 O.2       1 BD7        -0.3941
     29 CBR         4.8570   18.8690   25.2890 C.3       1 BD7         0.1389
     30 CAZ         4.3310   17.8380   26.2840 C.3       1 BD7         0.0145
     31 CBP         2.9770   17.2390   25.8750 C.2       1 BD7        -0.0027
     32 CAW         2.2170   17.5650   24.8300 C.2       1 BD7         0.0291
     33 NBF         1.1250   16.8050   24.8500 N.pl3     1 BD7        -0.2752
     34 CAV         1.1990   16.0060   25.9070 C.2       1 BD7         0.0907
     35 NBB         2.3360   16.2790   26.5390 N.2       1 BD7        -0.3252
     36 NBD         5.2290   18.1930   24.0580 N.am      1 BD7        -0.2398
     37 CBH         5.3540   18.8740   22.9350 C.2       1 BD7         0.3240
     38 OAB         5.1100   20.0820   22.8550 O.2       1 BD7        -0.3773
     39 OBG         5.7540   18.1990   21.8170 O.3       1 BD7        -0.2505
     40 CAX         5.9030   19.1600   20.7050 C.3       1 BD7         0.1113
     41 CBM         7.0320   19.3730   19.9580 C.ar      1 BD7        -0.0130
     42 CAN         8.1060   18.4930   20.0700 C.ar      1 BD7        -0.0578
     43 CAJ         9.2280   18.7240   19.3080 C.ar      1 BD7        -0.0685
     44 CAH         9.2590   19.8130   18.4490 C.ar      1 BD7        -0.0687
     45 CAK         8.1830   20.6850   18.3380 C.ar      1 BD7        -0.0685
     46 CAO         7.0520   20.4710   19.0900 C.ar      1 BD7        -0.0578
     47 H1          5.9369   24.0552   18.8548 H         1 BD7         0.0530
     48 H2          7.3894   25.3641   17.3256 H         1 BD7         0.0525
     49 H3         10.7071   26.2428   18.3422 H         1 BD7         0.2458
     50 H4         10.5224   25.2910   20.2494 H         1 BD7         0.0525
     51 H5          9.0682   24.0101   21.7791 H         1 BD7         0.0530
     52 H6          7.0661   22.2135   21.6051 H         1 BD7         0.0452
     53 H7          5.5915   22.9363   20.8771 H         1 BD7         0.0452
     54 H8          7.1760   24.3707   23.0620 H         1 BD7         0.0820
     55 H9          6.4645   26.3982   22.9923 H         1 BD7         0.2217
     56 H10         5.1019   28.0705   22.6778 H         1 BD7         0.2490
     57 H11         5.4268   22.0169   23.2494 H         1 BD7         0.1885
     58 H12         4.4322   21.2679   25.0308 H         1 BD7         0.0825
     59 H13         3.7196   22.9135   26.7629 H         1 BD7         0.0474
     60 H14         5.2523   22.6198   27.6523 H         1 BD7         0.0474
     61 H15         5.4099   20.8562   29.1965 H         1 BD7         0.0557
     62 H16         4.3625   18.9684   30.4077 H         1 BD7         0.0599
     63 H17         2.2050   18.0364   29.6103 H         1 BD7         0.0559
     64 H18         1.0943   19.0192   27.6232 H         1 BD7         0.0599
     65 H19         2.1470   20.9118   26.4175 H         1 BD7         0.0557
     66 H20         8.3040   20.3616   26.4737 H         1 BD7         0.0488
     67 H21         7.5683   21.7606   27.3270 H         1 BD7         0.0488
     68 H22         8.0764   21.9209   25.6115 H         1 BD7         0.0488
     69 H23         4.1041   19.6524   25.1177 H         1 BD7         0.0816
     70 H24         4.2165   18.3244   27.2639 H         1 BD7         0.0420
     71 H25         5.0647   17.0222   26.3630 H         1 BD7         0.0420
     72 H26         2.4502   18.3249   24.0856 H         1 BD7         0.0729
     73 H27         0.3565   16.8321   24.1648 H         1 BD7         0.2361
     74 H28         0.4616   15.2614   26.2030 H         1 BD7         0.1199
     75 H29         5.3912   17.2062   24.0619 H         1 BD7         0.1900
     76 H30         5.6586   20.1405   21.1397 H         1 BD7         0.0776
     77 H31         5.1278   18.8779   19.9774 H         1 BD7         0.0776
     78 H32         8.0588   17.6445   20.7430 H         1 BD7         0.0557
     79 H33        10.0818   18.0598   19.3783 H         1 BD7         0.0599
     80 H34        10.1449   19.9880   17.8494 H         1 BD7         0.0559
     81 H35         8.2350   21.5304   17.6615 H         1 BD7         0.0599
     82 H36         6.1986   21.1349   19.0128 H         1 BD7         0.0557
@<TRIPOS>BOND
     1    1    2 ar 
     2    1    7 ar 
     3    2    3 ar 
     4    3    4 1  
     5    3    5 ar 
     6    5    6 ar 
     7    6    7 ar 
     8    7    8 1  
     9    8    9 1  
    10    9   10 1  
    11    9   14 1  
    12   10   11 2  
    13   10   12 am 
    14   12   13 1  
    15   14   15 am 
    16   15   16 2  
    17   15   17 1  
    18   17   18 1  
    19   17   25 1  
    20   18   19 1  
    21   19   20 ar 
    22   19   24 ar 
    23   20   21 ar 
    24   21   22 ar 
    25   22   23 ar 
    26   23   24 ar 
    27   25   26 1  
    28   25   27 am 
    29   27   28 2  
    30   27   29 1  
    31   29   30 1  
    32   29   36 1  
    33   30   31 1  
    34   31   32 2  
    35   31   35 1  
    36   32   33 1  
    37   33   34 1  
    38   34   35 2  
    39   36   37 am 
    40   37   38 2  
    41   37   39 1  
    42   39   40 1  
    43   40   41 1  
    44   41   42 ar 
    45   41   46 ar 
    46   42   43 ar 
    47   43   44 ar 
    48   44   45 ar 
    49   45   46 ar 
    50    1   47 1  
    51    2   48 1  
    52    4   49 1  
    53    5   50 1  
    54    6   51 1  
    55    8   52 1  
    56    8   53 1  
    57    9   54 1  
    58   12   55 1  
    59   13   56 1  
    60   14   57 1  
    61   17   58 1  
    62   18   59 1  
    63   18   60 1  
    64   20   61 1  
    65   21   62 1  
    66   22   63 1  
    67   23   64 1  
    68   24   65 1  
    69   26   66 1  
    70   26   67 1  
    71   26   68 1  
    72   29   69 1  
    73   30   70 1  
    74   30   71 1  
    75   32   72 1  
    76   33   73 1  
    77   34   74 1  
    78   36   75 1  
    79   40   76 1  
    80   40   77 1  
    81   42   78 1  
    82   43   79 1  
    83   44   80 1  
    84   45   81 1  
    85   46   82 1  
@<TRIPOS>SUBSTRUCTURE
     1 BD7         1

