### 
### Created by X-TOOL on Mon Sep 10 21:13:02 2018
### 

@<TRIPOS>MOLECULE
3hy5_ligand
   57    57     1     0     0
SMALL
GAST_HUCK


@<TRIPOS>ATOM
      1 C1         -5.3210   14.8860   12.8330 C.3       1 RET        -0.0253
      2 C2         -6.4820   14.9370   13.8120 C.3       1 RET        -0.0460
      3 C3         -7.4520   15.9090   13.4660 C.3       1 RET        -0.0520
      4 C4         -8.2320   15.4570   12.3120 C.3       1 RET        -0.0486
      5 C5         -7.3920   15.0400   11.0940 C.3       1 RET        -0.0340
      6 C6         -5.7830   15.0690   11.2950 C.3       1 RET        -0.0168
      7 C7         -4.8220   14.8580   10.0910 C.2       1 RET        -0.0944
      8 C8         -3.9720   15.8480    9.6900 C.2       1 RET        -0.0939
      9 C9         -3.1220   15.8190    8.3820 C.3       1 RET        -0.0208
     10 C10        -1.6310   15.7370    8.6980 C.3       1 RET        -0.0273
     11 C11        -0.6450   16.0950    7.5900 C.2       1 RET        -0.0965
     12 C12         0.3840   16.9220    7.7660 C.2       1 RET        -0.0956
     13 C13         0.8540   17.2610    9.1950 C.3       1 RET        -0.0253
     14 C14         0.2960   18.5850    9.7530 C.3       1 RET        -0.0205
     15 C15         0.7030   19.0380   11.1500 C.3       1 RET         0.0460
     16 O1          0.0510   20.1420   11.7130 O.3       1 RET        -0.3948
     17 C16        -4.2710   15.9460   13.1500 C.3       1 RET        -0.0580
     18 C17        -4.6020   13.5700   13.0510 C.3       1 RET        -0.0580
     19 C18        -7.9840   15.1900    9.6700 C.3       1 RET        -0.0606
     20 C19        -3.5220   14.6900    7.4380 C.3       1 RET        -0.0542
     21 C20         2.3260   16.9720    9.5040 C.3       1 RET        -0.0557
     22 H1         -6.0883   15.1742   14.8114 H         1 RET         0.0272
     23 H2         -6.9666   13.9497   13.8336 H         1 RET         0.0272
     24 H3         -6.9467   16.8534   13.2155 H         1 RET         0.0266
     25 H4         -8.1265   16.0693   14.3200 H         1 RET         0.0266
     26 H5         -8.8971   16.2776   12.0050 H         1 RET         0.0269
     27 H6         -8.8362   14.5924   12.6240 H         1 RET         0.0269
     28 H7         -7.5322   13.9527   11.1841 H         1 RET         0.0320
     29 H8         -5.6857   16.1646   11.2837 H         1 RET         0.0431
     30 H9         -4.8271   13.9071    9.5602 H         1 RET         0.0453
     31 H10        -3.8803   16.7236   10.3310 H         1 RET         0.0454
     32 H11        -3.3021   16.7677    7.8553 H         1 RET         0.0440
     33 H12        -1.4176   14.7023    9.0044 H         1 RET         0.0410
     34 H13        -1.4371   16.4165    9.5410 H         1 RET         0.0410
     35 H14        -0.7899   15.6520    6.6058 H         1 RET         0.0452
     36 H15         0.8907   17.3564    6.9055 H         1 RET         0.0453
     37 H16         0.3343   16.5062    9.8035 H         1 RET         0.0421
     38 H17        -0.8004   18.4967    9.7514 H         1 RET         0.0309
     39 H18         0.6009   19.3801    9.0567 H         1 RET         0.0309
     40 H19         1.7756   19.2790   11.1131 H         1 RET         0.0559
     41 H20         0.5416   18.1862   11.8270 H         1 RET         0.0559
     42 H21         0.4040   20.3091   12.5790 H         1 RET         0.2094
     43 H22        -3.9438   15.8371   14.1946 H         1 RET         0.0237
     44 H23        -4.7042   16.9465   13.0039 H         1 RET         0.0237
     45 H24        -3.4077   15.8188   12.4803 H         1 RET         0.0237
     46 H25        -5.2902   12.7374   12.8433 H         1 RET         0.0237
     47 H26        -4.2569   13.5090   14.0937 H         1 RET         0.0237
     48 H27        -3.7370   13.5082   12.3743 H         1 RET         0.0237
     49 H28        -9.0819   15.1476    9.7230 H         1 RET         0.0234
     50 H29        -7.6159   14.3731    9.0319 H         1 RET         0.0234
     51 H30        -7.6746   16.1558    9.2441 H         1 RET         0.0234
     52 H31        -4.5975   14.7598    7.2180 H         1 RET         0.0253
     53 H32        -3.3070   13.7214    7.9129 H         1 RET         0.0253
     54 H33        -2.9501   14.7745    6.5022 H         1 RET         0.0253
     55 H34         2.6115   16.0075    9.0589 H         1 RET         0.0252
     56 H35         2.4706   16.9301   10.5936 H         1 RET         0.0252
     57 H36         2.9531   17.7708    9.0813 H         1 RET         0.0252
@<TRIPOS>BOND
     1    1    2 1  
     2    1    6 1  
     3    1   17 1  
     4    1   18 1  
     5    2    3 1  
     6    3    4 1  
     7    4    5 1  
     8    5    6 1  
     9    5   19 1  
    10    6    7 1  
    11    7    8 2  
    12    8    9 1  
    13    9   10 1  
    14    9   20 1  
    15   10   11 1  
    16   11   12 2  
    17   12   13 1  
    18   13   14 1  
    19   13   21 1  
    20   14   15 1  
    21   15   16 1  
    22    2   22 1  
    23    2   23 1  
    24    3   24 1  
    25    3   25 1  
    26    4   26 1  
    27    4   27 1  
    28    5   28 1  
    29    6   29 1  
    30    7   30 1  
    31    8   31 1  
    32    9   32 1  
    33   10   33 1  
    34   10   34 1  
    35   11   35 1  
    36   12   36 1  
    37   13   37 1  
    38   14   38 1  
    39   14   39 1  
    40   15   40 1  
    41   15   41 1  
    42   16   42 1  
    43   17   43 1  
    44   17   44 1  
    45   17   45 1  
    46   18   46 1  
    47   18   47 1  
    48   18   48 1  
    49   19   49 1  
    50   19   50 1  
    51   19   51 1  
    52   20   52 1  
    53   20   53 1  
    54   20   54 1  
    55   21   55 1  
    56   21   56 1  
    57   21   57 1  
@<TRIPOS>SUBSTRUCTURE
     1 RET         1

