### 
### Created by X-TOOL on Mon Sep 10 21:13:00 2018
### 

@<TRIPOS>MOLECULE
3hyf_ligand
   27    28     1     0     0
SMALL
GAST_HUCK


@<TRIPOS>ATOM
      1 C1          3.7860   49.4070   34.6460 C.ar      1 ON1        -0.0427
      2 N1          3.4260   49.1450   29.9340 N.2       1 ON1        -0.3073
      3 O1          3.1800   52.3620   28.0190 O.3       1 ON1        -0.3315
      4 CL1         7.4790   50.0230   36.3950 Cl        1 ON1        -0.0759
      5 C2          4.7910   49.7230   35.6210 C.ar      1 ON1         0.0484
      6 N2          2.8670   50.9440   31.3950 N.am      1 ON1        -0.1961
      7 O2          2.6200   53.0850   30.5990 O.2       1 ON1        -0.3986
      8 CL2         4.2440   50.1640   37.1910 Cl        1 ON1        -0.0717
      9 C3          6.2210   49.6590   35.2690 C.ar      1 ON1         0.0474
     10 O3          3.9870   48.0770   27.5900 O.co2     1 ON1        -0.5642
     11 C4          6.6110   49.2780   33.9340 C.ar      1 ON1        -0.0534
     12 O4          3.8320   49.9300   26.4760 O.co2     1 ON1        -0.5642
     13 C5          5.6020   48.9620   32.9650 C.ar      1 ON1        -0.0564
     14 C6          4.1900   49.0230   33.3090 C.ar      1 ON1        -0.0210
     15 C7          3.1300   48.6850   32.2810 C.3       1 ON1         0.0677
     16 C8          3.1390   49.6520   31.1350 C.2       1 ON1         0.1494
     17 C9          3.4530   49.9980   28.8340 C.2       1 ON1         0.0666
     18 C10         3.1790   51.4200   28.9990 C.2       1 ON1         0.1734
     19 C11         2.8870   51.8220   30.3330 C.2       1 ON1         0.2553
     20 C12         3.7780   49.3100   27.5430 C.2       1 ON1         0.0602
     21 H1          2.7352   49.4553   34.9077 H         1 ON1         0.0569
     22 H2          2.9703   53.2088   28.3951 H         1 ON1         0.2463
     23 H3          2.6586   51.2548   32.3224 H         1 ON1         0.2537
     24 H4          7.6599   49.2307   33.6646 H         1 ON1         0.0607
     25 H5          5.8958   48.6737   31.9622 H         1 ON1         0.0566
     26 H6          2.1424   48.7148   32.7645 H         1 ON1         0.0702
     27 H7          3.3186   47.6726   31.8943 H         1 ON1         0.0702
@<TRIPOS>BOND
     1    1    5 ar 
     2   14    1 ar 
     3    2   16 2  
     4   17    2 1  
     5   18    3 1  
     6    9    4 1  
     7    5    8 1  
     8    5    9 ar 
     9   16    6 1  
    10    6   19 am 
    11   19    7 2  
    12   11    9 ar 
    13   20   10 ar 
    14   13   11 ar 
    15   20   12 ar 
    16   14   13 ar 
    17   15   14 1  
    18   16   15 1  
    19   17   18 2  
    20   17   20 1  
    21   18   19 1  
    22    1   21 1  
    23    3   22 1  
    24    6   23 1  
    25   11   24 1  
    26   13   25 1  
    27   15   26 1  
    28   15   27 1  
@<TRIPOS>SUBSTRUCTURE
     1 ON1         1

