### 
### Created by X-TOOL on Mon Sep 10 21:13:04 2018
### 

@<TRIPOS>MOLECULE
3hzk_ligand
   62    63     1     0     0
SMALL
GAST_HUCK


@<TRIPOS>ATOM
      1 C1          6.8310   -0.8740   -6.3720 C.2       1 KDA         0.1043
      2 O1A         7.2790   -1.9590   -6.7900 O.co2     1 KDA        -0.5426
      3 O1B         5.6330   -0.5320   -6.4740 O.co2     1 KDA        -0.5426
      4 C2          7.8110    0.0350   -5.5780 C.3       1 KDA         0.2225
      5 C3          7.4950   -0.1860   -4.0810 C.3       1 KDA         0.0360
      6 C4          8.4950    0.5140   -3.1460 C.3       1 KDA         0.0937
      7 O4          8.1050    0.2540   -1.7660 O.3       1 KDA        -0.3407
      8 C5          9.9030    0.0260   -3.5080 C.3       1 KDA         0.1098
      9 O5          9.9560   -1.3940   -3.3870 O.3       1 KDA        -0.3866
     10 C6         10.1820    0.3620   -4.9650 C.3       1 KDA         0.1170
     11 O6          9.1950   -0.3110   -5.8070 O.3       1 KDA        -0.3380
     12 C7         11.6630    0.3000   -5.4340 C.3       1 KDA         0.1067
     13 O7         12.5840    0.6980   -4.4000 O.3       1 KDA        -0.3869
     14 C8         11.8620    1.1440   -6.6980 C.3       1 KDA         0.0727
     15 O8         11.0150    0.6780   -7.7390 O.3       1 KDA        -0.3924
     16 O2          7.7580    1.4670   -5.8480 O.3       1 KDA        -0.3323
     17 C9          6.4120    1.9070   -6.1590 C.3       1 KDA         0.0783
     18 C10         5.3060    1.7180   -5.3300 C.2       1 KDA        -0.0639
     19 C11         4.0630    2.1870   -5.7400 C.2       1 KDA        -0.1153
     20 C1         10.2380   -0.1880   -0.5000 C.2       1 KDO         0.1041
     21 O1A        10.1640   -1.3840   -0.8620 O.co2     1 KDO        -0.5426
     22 O1B        11.2330    0.3650    0.0250 O.co2     1 KDO        -0.5426
     23 C2          8.9990    0.6940   -0.7020 C.3       1 KDO         0.2207
     24 C3          8.1780    0.6800    0.6040 C.3       1 KDO         0.0356
     25 C4          6.9870    1.6470    0.4530 C.3       1 KDO         0.0880
     26 O4          6.2340    1.7190    1.6730 O.3       1 KDO        -0.3891
     27 C5          7.5860    3.0230    0.1900 C.3       1 KDO         0.1096
     28 O5          8.4050    3.3920    1.2860 O.3       1 KDO        -0.3866
     29 C6          8.4270    3.0010   -1.0880 C.3       1 KDO         0.1170
     30 O6          9.4720    2.0330   -0.9950 O.3       1 KDO        -0.3381
     31 C7          9.0750    4.3540   -1.4180 C.3       1 KDO         0.1067
     32 O7          8.1620    5.4440   -1.2920 O.3       1 KDO        -0.3869
     33 C8          9.6960    4.2580   -2.8260 C.3       1 KDO         0.0727
     34 O8         10.3460    5.4730   -3.1970 O.3       1 KDO        -0.3924
     35 H1          7.5182   -1.2660   -3.8736 H         1 KDA         0.0336
     36 H2          6.4882    0.2057   -3.8737 H         1 KDA         0.0336
     37 H3          8.4533    1.6003   -3.3141 H         1 KDA         0.0623
     38 H4         10.6490    0.4978   -2.8516 H         1 KDA         0.0646
     39 H5          9.7531   -1.6423   -2.4927 H         1 KDA         0.2100
     40 H6          9.9382    1.4310   -5.0532 H         1 KDA         0.0649
     41 H7         11.8860   -0.7464   -5.6894 H         1 KDA         0.0643
     42 H8         13.4727    0.6444   -4.7313 H         1 KDA         0.2100
     43 H9         12.9104    1.0702   -7.0226 H         1 KDA         0.0584
     44 H10        11.6200    2.1937   -6.4755 H         1 KDA         0.0584
     45 H11        10.1088    0.7427   -7.4613 H         1 KDA         0.2095
     46 H12         6.1544    1.4195   -7.1108 H         1 KDA         0.0740
     47 H13         6.4844    2.9940   -6.3116 H         1 KDA         0.0740
     48 H14         5.4149    1.2093   -4.3733 H         1 KDA         0.0695
     49 H15         3.1909    2.0465   -5.1031 H         1 KDA         0.0290
     50 H16         3.9615    2.6948   -6.6980 H         1 KDA         0.0290
     51 H17         8.8122    1.0029    1.4428 H         1 KDA         0.0336
     52 H18         7.8061   -0.3373    0.7959 H         1 KDA         0.0336
     53 H19         6.3371    1.3325   -0.3769 H         1 KDA         0.0621
     54 H20         5.5061    2.3187    1.5596 H         1 KDA         0.2099
     55 H21         6.7741    3.7564    0.0764 H         1 KDA         0.0646
     56 H22         9.1019    2.7545    1.3878 H         1 KDA         0.2100
     57 H23         7.7618    2.7253   -1.9196 H         1 KDA         0.0649
     58 H24         9.8885    4.5271   -0.6982 H         1 KDA         0.0643
     59 H25         7.4331    5.3156   -1.8877 H         1 KDA         0.2100
     60 H26         8.8996    4.0426   -3.5536 H         1 KDA         0.0584
     61 H27        10.4329    3.4414   -2.8363 H         1 KDA         0.0584
     62 H28        11.0388    5.6628   -2.5753 H         1 KDA         0.2095
@<TRIPOS>BOND
     1    1    2 ar 
     2    1    3 ar 
     3    4    1 1  
     4    5    4 1  
     5    4   11 1  
     6    4   16 1  
     7    6    5 1  
     8    7    6 1  
     9    6    8 1  
    10   23    7 1  
    11    8    9 1  
    12    8   10 1  
    13   10   11 1  
    14   10   12 1  
    15   12   13 1  
    16   12   14 1  
    17   14   15 1  
    18   16   17 1  
    19   17   18 1  
    20   18   19 2  
    21   20   21 ar 
    22   20   22 ar 
    23   20   23 1  
    24   23   24 1  
    25   23   30 1  
    26   24   25 1  
    27   25   26 1  
    28   25   27 1  
    29   27   28 1  
    30   27   29 1  
    31   29   30 1  
    32   29   31 1  
    33   31   32 1  
    34   31   33 1  
    35   33   34 1  
    36    5   35 1  
    37    5   36 1  
    38    6   37 1  
    39    8   38 1  
    40    9   39 1  
    41   10   40 1  
    42   12   41 1  
    43   13   42 1  
    44   14   43 1  
    45   14   44 1  
    46   15   45 1  
    47   17   46 1  
    48   17   47 1  
    49   18   48 1  
    50   19   49 1  
    51   19   50 1  
    52   24   51 1  
    53   24   52 1  
    54   25   53 1  
    55   26   54 1  
    56   27   55 1  
    57   28   56 1  
    58   29   57 1  
    59   31   58 1  
    60   32   59 1  
    61   33   60 1  
    62   33   61 1  
    63   34   62 1  
@<TRIPOS>SUBSTRUCTURE
     1 KDA         1

