### 
### Created by X-TOOL on Mon Sep 10 21:13:04 2018
### 

@<TRIPOS>MOLECULE
3hzm_ligand
   29    29     1     0     0
SMALL
GAST_HUCK


@<TRIPOS>ATOM
      1 C1         -9.4510    0.5050    0.5850 C.2       1 KDO         0.1039
      2 O1A       -10.4370    0.9080   -0.0920 O.co2     1 KDO        -0.5426
      3 O1B        -9.4060   -0.5830    1.2020 O.co2     1 KDO        -0.5426
      4 C2         -8.2480    1.4380    0.7670 C.3       1 KDO         0.2179
      5 O2         -7.4100    0.9080    1.8170 O.3       1 KDO        -0.3631
      6 C3         -7.4990    1.6220   -0.5710 C.3       1 KDO         0.0354
      7 C4         -6.3150    2.5770   -0.3650 C.3       1 KDO         0.0880
      8 O4         -5.6680    2.7720   -1.6420 O.3       1 KDO        -0.3891
      9 C5         -6.8830    3.9120    0.1370 C.3       1 KDO         0.1096
     10 O5         -7.7830    4.4090   -0.8400 O.3       1 KDO        -0.3866
     11 C6         -7.6670    3.6420    1.4190 C.3       1 KDO         0.1170
     12 O6         -8.7250    2.7220    1.2140 O.3       1 KDO        -0.3382
     13 C7         -8.3270    4.9470    1.9160 C.3       1 KDO         0.1067
     14 O7         -7.3490    5.9720    2.1290 O.3       1 KDO        -0.3869
     15 C8         -9.0660    4.6250    3.2310 C.3       1 KDO         0.0727
     16 O8         -9.7980    5.7730    3.7140 O.3       1 KDO        -0.3924
     17 H1         -7.9206    0.8178    2.6131 H         1 KDO         0.2112
     18 H2         -8.1847    2.0439   -1.3205 H         1 KDO         0.0336
     19 H3         -7.1279    0.6474   -0.9209 H         1 KDO         0.0336
     20 H4         -5.6030    2.1639    0.3646 H         1 KDO         0.0621
     21 H5         -4.9307    3.3616   -1.5354 H         1 KDO         0.2099
     22 H6         -6.0737    4.6338    0.3214 H         1 KDO         0.0646
     23 H7         -7.3194    4.5391   -1.6590 H         1 KDO         0.2100
     24 H8         -6.9786    3.2510    2.1827 H         1 KDO         0.0649
     25 H9         -9.0503    5.2982    1.1654 H         1 KDO         0.0643
     26 H10        -7.7806    6.7616    2.4335 H         1 KDO         0.2100
     27 H11        -8.3305    4.3228    3.9911 H         1 KDO         0.0584
     28 H12        -9.7705    3.7991    3.0536 H         1 KDO         0.0584
     29 H13       -10.4378    6.0361    3.0629 H         1 KDO         0.2095
@<TRIPOS>BOND
     1    1    2 ar 
     2    1    3 ar 
     3    1    4 1  
     4    4    5 1  
     5    4    6 1  
     6    4   12 1  
     7    6    7 1  
     8    7    8 1  
     9    7    9 1  
    10    9   10 1  
    11    9   11 1  
    12   11   12 1  
    13   11   13 1  
    14   13   14 1  
    15   13   15 1  
    16   15   16 1  
    17    5   17 1  
    18    6   18 1  
    19    6   19 1  
    20    7   20 1  
    21    8   21 1  
    22    9   22 1  
    23   10   23 1  
    24   11   24 1  
    25   13   25 1  
    26   14   26 1  
    27   15   27 1  
    28   15   28 1  
    29   16   29 1  
@<TRIPOS>SUBSTRUCTURE
     1 KDO         1

