### 
### Created by X-TOOL on Mon Sep 10 21:13:04 2018
### 

@<TRIPOS>MOLECULE
3hzv_ligand
   64    65     1     0     0
SMALL
GAST_HUCK


@<TRIPOS>ATOM
      1 C1         -5.8980   -0.3640    6.1960 C.2       1 KDA         0.1041
      2 O1A        -6.3440   -1.4660    6.5930 O.co2     1 KDA        -0.5426
      3 O1B        -4.7320    0.0400    6.3340 O.co2     1 KDA        -0.5426
      4 C2         -6.8730    0.5460    5.4430 C.3       1 KDA         0.2204
      5 C3         -6.7460    0.2570    3.9520 C.3       1 KDA         0.0358
      6 C4         -7.7800    1.0310    3.1750 C.3       1 KDA         0.0937
      7 O4         -7.5950    0.7230    1.7850 O.3       1 KDA        -0.3407
      8 C5         -9.1830    0.6510    3.6900 C.3       1 KDA         0.1098
      9 O5         -9.4300   -0.7620    3.5430 O.3       1 KDA        -0.3866
     10 C6         -9.2350    1.0250    5.1690 C.3       1 KDA         0.1170
     11 O6         -8.2180    0.3000    5.8810 O.3       1 KDA        -0.3381
     12 C7        -10.5720    0.7080    5.8370 C.3       1 KDA         0.1067
     13 O7        -11.6590    1.3740    5.1900 O.3       1 KDA        -0.3869
     14 C8        -10.4750    1.1780    7.2950 C.3       1 KDA         0.0727
     15 O8        -11.6980    0.9140    7.9900 O.3       1 KDA        -0.3924
     16 O2         -6.6560    1.9800    5.6360 O.3       1 KDA        -0.3468
     17 C9         -6.9570    2.5550    6.9420 C.3       1 KDA         0.0496
     18 C10        -6.2780    1.8200    8.0970 C.3       1 KDA        -0.0323
     19 C11        -6.9240    2.0490    9.4700 C.3       1 KDA        -0.0632
     20 C1         -9.7360    0.2300    0.5980 C.2       1 KDO         0.1041
     21 O1A       -10.7680    0.7970    0.1820 O.co2     1 KDO        -0.5426
     22 O1B        -9.6210   -0.9790    0.8880 O.co2     1 KDO        -0.5426
     23 C2         -8.5040    1.1230    0.7290 C.3       1 KDO         0.2207
     24 C3         -7.7140    1.0530   -0.5890 C.3       1 KDO         0.0356
     25 C4         -6.5240    2.0290   -0.5220 C.3       1 KDO         0.0880
     26 O4         -5.8120    2.0120   -1.7550 O.3       1 KDO        -0.3891
     27 C5         -7.1580    3.4070   -0.3120 C.3       1 KDO         0.1096
     28 O5         -7.9940    3.7550   -1.4260 O.3       1 KDO        -0.3866
     29 C6         -7.9700    3.4260    0.9740 C.3       1 KDO         0.1170
     30 O6         -8.9950    2.4440    0.9390 O.3       1 KDO        -0.3381
     31 C7         -8.6310    4.7890    1.1920 C.3       1 KDO         0.1067
     32 O7         -7.6840    5.8570    1.0900 O.3       1 KDO        -0.3869
     33 C8         -9.3770    4.8270    2.5360 C.3       1 KDO         0.0727
     34 O8        -10.1430    6.0300    2.5510 O.3       1 KDO        -0.3924
     35 H1         -6.8929   -0.8191    3.7779 H         1 KDA         0.0336
     36 H2         -5.7423    0.5500    3.6105 H         1 KDA         0.0336
     37 H3         -7.6288    2.1100    3.3262 H         1 KDA         0.0623
     38 H4         -9.9470    1.2121    3.1320 H         1 KDA         0.0646
     39 H5         -9.3700   -0.9990    2.6250 H         1 KDA         0.2100
     40 H6         -9.0458    2.1050    5.2573 H         1 KDA         0.0649
     41 H7        -10.7483   -0.3773    5.8053 H         1 KDA         0.0643
     42 H8        -12.4712    1.1541    5.6310 H         1 KDA         0.2100
     43 H9        -10.2742    2.2593    7.3140 H         1 KDA         0.0584
     44 H10        -9.6529    0.6436    7.7936 H         1 KDA         0.0584
     45 H11       -12.4096    1.3763    7.5632 H         1 KDA         0.2095
     46 H12        -8.0454    2.5189    7.0970 H         1 KDA         0.0559
     47 H13        -6.6202    3.6021    6.9485 H         1 KDA         0.0559
     48 H14        -5.2321    2.1566    8.1499 H         1 KDA         0.0285
     49 H15        -6.3057    0.7418    7.8807 H         1 KDA         0.0285
     50 H16        -6.3707    1.4837   10.2344 H         1 KDA         0.0230
     51 H17        -7.9690    1.7063    9.4454 H         1 KDA         0.0230
     52 H18        -6.8953    3.1211    9.7145 H         1 KDA         0.0230
     53 H19        -8.3708    1.3315   -1.4263 H         1 KDA         0.0336
     54 H20        -7.3413    0.0292   -0.7401 H         1 KDA         0.0336
     55 H21        -5.8490    1.7728    0.3079 H         1 KDA         0.0621
     56 H22        -5.0804    2.6161   -1.7053 H         1 KDA         0.2099
     57 H23        -6.3536    4.1529   -0.2309 H         1 KDA         0.0646
     58 H24        -8.6846    3.1089   -1.5163 H         1 KDA         0.2100
     59 H25        -7.2953    3.2143    1.8166 H         1 KDA         0.0649
     60 H26        -9.3748    4.9294    0.3938 H         1 KDA         0.0643
     61 H27        -7.0077    5.7429    1.7472 H         1 KDA         0.2100
     62 H28        -8.6576    4.8264    3.3681 H         1 KDA         0.0584
     63 H29       -10.0411    3.9546    2.6248 H         1 KDA         0.0584
     64 H30        -9.5607    6.7760    2.4676 H         1 KDA         0.2095
@<TRIPOS>BOND
     1    1    2 ar 
     2    1    3 ar 
     3    4    1 1  
     4    5    4 1  
     5    4   11 1  
     6    4   16 1  
     7    6    5 1  
     8    7    6 1  
     9    6    8 1  
    10   23    7 1  
    11    8    9 1  
    12    8   10 1  
    13   10   11 1  
    14   10   12 1  
    15   12   13 1  
    16   12   14 1  
    17   14   15 1  
    18   16   17 1  
    19   17   18 1  
    20   18   19 1  
    21   20   21 ar 
    22   20   22 ar 
    23   20   23 1  
    24   23   24 1  
    25   23   30 1  
    26   24   25 1  
    27   25   26 1  
    28   25   27 1  
    29   27   28 1  
    30   27   29 1  
    31   29   30 1  
    32   29   31 1  
    33   31   32 1  
    34   31   33 1  
    35   33   34 1  
    36    5   35 1  
    37    5   36 1  
    38    6   37 1  
    39    8   38 1  
    40    9   39 1  
    41   10   40 1  
    42   12   41 1  
    43   13   42 1  
    44   14   43 1  
    45   14   44 1  
    46   15   45 1  
    47   17   46 1  
    48   17   47 1  
    49   18   48 1  
    50   18   49 1  
    51   19   50 1  
    52   19   51 1  
    53   19   52 1  
    54   24   53 1  
    55   24   54 1  
    56   25   55 1  
    57   26   56 1  
    58   27   57 1  
    59   28   58 1  
    60   29   59 1  
    61   31   60 1  
    62   32   61 1  
    63   33   62 1  
    64   33   63 1  
    65   34   64 1  
@<TRIPOS>SUBSTRUCTURE
     1 KDA         1

