### 
### Created by X-TOOL on Mon Sep 10 21:13:04 2018
### 

@<TRIPOS>MOLECULE
3hzy_ligand
   61    62     1     0     0
SMALL
GAST_HUCK


@<TRIPOS>ATOM
      1 C1         -6.3490    7.0370    8.1520 C.2       1 KDA         0.1089
      2 O1A        -5.3650    7.5870    8.6770 O.co2     1 KDA        -0.5423
      3 O1B        -7.2590    7.6500    7.5230 O.co2     1 KDA        -0.5423
      4 C2         -6.4380    5.5040    8.3120 C.3       1 KDA         0.2378
      5 C3         -5.9680    4.7620    7.0260 C.3       1 KDA         0.0401
      6 C4         -5.7470    3.2510    7.2740 C.3       1 KDA         0.0940
      7 C5         -4.8800    3.0180    8.5110 C.3       1 KDA         0.1098
      8 O5         -3.5620    3.4840    8.1880 O.3       1 KDA        -0.3866
      9 C6         -5.4140    3.7770    9.7400 C.3       1 KDA         0.1173
     10 O6         -5.5220    5.1850    9.3920 O.3       1 KDA        -0.3347
     11 C7         -4.4980    3.5520   10.9520 C.3       1 KDA         0.1067
     12 O7         -4.1230    2.1770   11.0480 O.3       1 KDA        -0.3869
     13 C8         -5.1830    3.9550   12.2700 C.3       1 KDA         0.0727
     14 O8         -5.4000    5.3770   12.3100 O.3       1 KDA        -0.3924
     15 O2         -7.7300    4.9920    8.7460 O.3       1 KDA        -0.3023
     16 C9         -8.8940    5.6520    9.0400 C.2       1 KDA         0.0369
     17 C10        -9.1670    6.5420   10.0840 C.2       1 KDA        -0.0824
     18 C11       -10.4390    7.0930   10.1970 C.3       1 KDA        -0.0537
     19 C1         -4.8320    0.6170    6.4570 C.2       1 KDO         0.1040
     20 O1A        -3.6610    1.0330    6.5460 O.co2     1 KDO        -0.5426
     21 O1B        -5.2410   -0.4840    6.9110 O.co2     1 KDO        -0.5426
     22 C2         -5.8690    1.4740    5.7020 C.3       1 KDO         0.2183
     23 O2         -5.8280    2.9230    5.8800 O.3       1 KDO        -0.3408
     24 C3         -5.8020    1.1010    4.2000 C.3       1 KDO         0.0095
     25 C4         -7.0280    1.7010    3.5010 C.3       1 KDO        -0.0199
     26 C5         -8.3490    1.2270    4.1050 C.3       1 KDO         0.0839
     27 O5         -8.4880   -0.1840    3.8990 O.3       1 KDO        -0.3891
     28 C6         -8.3660    1.5640    5.6100 C.3       1 KDO         0.1145
     29 O6         -7.1550    1.0490    6.2360 O.3       1 KDO        -0.3383
     30 C7         -9.6340    0.9940    6.2480 C.3       1 KDO         0.1066
     31 O7        -10.7430    1.7610    5.7950 O.3       1 KDO        -0.3869
     32 C8         -9.5880    1.0670    7.7820 C.3       1 KDO         0.0727
     33 O8         -9.2120    2.3970    8.1960 O.3       1 KDO        -0.3924
     34 H          -5.0199    5.1969    6.7098 H         1 KDA         0.0340
     35 H          -6.7429    4.8723    6.2674 H         1 KDA         0.0340
     36 H          -6.2672    2.4089    7.7305 H         1 KDA         0.0623
     37 H          -4.8850    1.9590    8.7691 H         1 KDA         0.0646
     38 H          -2.9840    3.3545    8.9434 H         1 KDA         0.2100
     39 H          -6.3989    3.4044   10.0213 H         1 KDA         0.0649
     40 H          -3.6185    4.1777   10.8003 H         1 KDA         0.0643
     41 H          -3.6553    1.9176   10.2508 H         1 KDA         0.2100
     42 H          -4.5416    3.6707   13.1042 H         1 KDA         0.0584
     43 H          -6.1452    3.4476   12.3390 H         1 KDA         0.0584
     44 H          -5.8273    5.6112   13.1371 H         1 KDA         0.2095
     45 H          -9.7261    5.4555    8.3639 H         1 KDA         0.0849
     46 H          -8.3897    6.8014   10.8027 H         1 KDA         0.0331
     47 H         -10.6707    7.6573    9.2937 H         1 KDA         0.0321
     48 H         -11.1695    6.2942   10.3253 H         1 KDA         0.0321
     49 H         -10.4702    7.7577   11.0603 H         1 KDA         0.0321
     50 H          -5.7976    0.0173    4.0833 H         1 KDA         0.0311
     51 H          -4.8878    1.4958    3.7567 H         1 KDA         0.0311
     52 H          -7.0056    1.3827    2.4587 H         1 KDA         0.0292
     53 H          -6.9794    2.7839    3.6155 H         1 KDA         0.0292
     54 H          -9.1858    1.7315    3.6220 H         1 KDA         0.0620
     55 H          -9.3181   -0.4814    4.2786 H         1 KDA         0.2099
     56 H          -8.3809    2.6439    5.7576 H         1 KDA         0.0648
     57 H          -9.7206   -0.0539    5.9609 H         1 KDA         0.0643
     58 H         -10.6250    2.6772    6.0560 H         1 KDA         0.2100
     59 H          -8.8547    0.3521    8.1553 H         1 KDA         0.0584
     60 H         -10.5727    0.8289    8.1842 H         1 KDA         0.0584
     61 H          -8.3454    2.6084    7.8412 H         1 KDA         0.2095
@<TRIPOS>BOND
     1    1    2 ar 
     2    1    3 ar 
     3    4    1 1  
     4    5    4 1  
     5    4   10 1  
     6    4   15 1  
     7    6    5 1  
     8    6    7 1  
     9   23    6 1  
    10    7    8 1  
    11    7    9 1  
    12    9   10 1  
    13    9   11 1  
    14   11   12 1  
    15   11   13 1  
    16   13   14 1  
    17   15   16 1  
    18   16   17 2  
    19   17   18 1  
    20   19   20 ar 
    21   19   21 ar 
    22   22   19 1  
    23   22   23 1  
    24   22   24 1  
    25   22   29 1  
    26   24   25 1  
    27   25   26 1  
    28   26   27 1  
    29   26   28 1  
    30   28   29 1  
    31   28   30 1  
    32   30   31 1  
    33   30   32 1  
    34   32   33 1  
    35    5   34 1  
    36    5   35 1  
    37    6   36 1  
    38    7   37 1  
    39    8   38 1  
    40    9   39 1  
    41   11   40 1  
    42   12   41 1  
    43   13   42 1  
    44   13   43 1  
    45   14   44 1  
    46   16   45 1  
    47   17   46 1  
    48   18   47 1  
    49   18   48 1  
    50   18   49 1  
    51   24   50 1  
    52   24   51 1  
    53   25   52 1  
    54   25   53 1  
    55   26   54 1  
    56   27   55 1  
    57   28   56 1  
    58   30   57 1  
    59   31   58 1  
    60   32   59 1  
    61   32   60 1  
    62   33   61 1  
@<TRIPOS>SUBSTRUCTURE
     1 KDA         1

