### 
### Created by X-TOOL on Mon Sep 10 21:13:04 2018
### 

@<TRIPOS>MOLECULE
3i02_ligand
   61    62     1     0     0
SMALL
GAST_HUCK


@<TRIPOS>ATOM
      1 C1         49.4920   24.8080   53.7240 C.2       1 KDA         0.1089
      2 O1A        50.2600   23.8260   53.7920 O.co2     1 KDA        -0.5423
      3 O1B        48.9410   25.2080   52.6750 O.co2     1 KDA        -0.5423
      4 C2         49.0700   25.4790   55.0510 C.3       1 KDA         0.2378
      5 C3         47.5940   25.1120   55.2190 C.3       1 KDA         0.0401
      6 C4         47.0450   25.5540   56.5690 C.3       1 KDA         0.0940
      7 C5         47.9180   24.9970   57.6830 C.3       1 KDA         0.1098
      8 O5         47.8720   23.5720   57.6200 O.3       1 KDA        -0.3866
      9 C6         49.3620   25.4980   57.5080 C.3       1 KDA         0.1173
     10 O6         49.8060   25.0130   56.2000 O.3       1 KDA        -0.3347
     11 C7         50.4580   25.2460   58.5610 C.3       1 KDA         0.1067
     12 O7         49.9980   25.6280   59.8620 O.3       1 KDA        -0.3869
     13 C8         51.7280   26.0420   58.2280 C.3       1 KDA         0.0727
     14 O8         52.2490   25.6970   56.9420 O.3       1 KDA        -0.3924
     15 O2         49.2880   26.9200   55.1510 O.3       1 KDA        -0.3023
     16 C9         49.1370   27.8980   54.2170 C.2       1 KDA         0.0369
     17 C10        48.7470   27.7460   52.8990 C.2       1 KDA        -0.0824
     18 C11        48.6610   28.8980   52.1220 C.3       1 KDA        -0.0537
     19 C1         45.0700   25.1680   59.0510 C.2       1 KDO         0.1040
     20 O1A        45.4760   24.0110   59.2940 O.co2     1 KDO        -0.5426
     21 O1B        44.8810   26.0690   59.9020 O.co2     1 KDO        -0.5426
     22 C2         44.6870   25.4990   57.6050 C.3       1 KDO         0.2183
     23 O2         45.6620   25.1500   56.6120 O.3       1 KDO        -0.3408
     24 C3         43.4100   24.7180   57.2810 C.3       1 KDO         0.0095
     25 C4         42.9090   25.0950   55.9040 C.3       1 KDO        -0.0199
     26 C5         42.7640   26.6250   55.8370 C.3       1 KDO         0.0839
     27 O5         41.7690   27.0710   56.7600 O.3       1 KDO        -0.3891
     28 C6         44.1060   27.2900   56.1440 C.3       1 KDO         0.1145
     29 O6         44.5370   26.9100   57.4760 O.3       1 KDO        -0.3383
     30 C7         43.9530   28.8090   56.1050 C.3       1 KDO         0.1066
     31 O7         43.6130   29.2080   54.7720 O.3       1 KDO        -0.3869
     32 C8         45.2460   29.5190   56.5250 C.3       1 KDO         0.0727
     33 O8         46.3320   29.1700   55.6630 O.3       1 KDO        -0.3924
     34 H          47.5032   24.0278   55.1531 H         1 KDA         0.0340
     35 H          47.0263   25.6184   54.4384 H         1 KDA         0.0340
     36 H          47.0738   26.6342   56.7122 H         1 KDA         0.0623
     37 H          47.5552   25.3317   58.6548 H         1 KDA         0.0646
     38 H          46.9655   23.2769   57.7332 H         1 KDA         0.2100
     39 H          49.2621   26.5760   57.6344 H         1 KDA         0.0649
     40 H          50.6887   24.1807   58.5517 H         1 KDA         0.0643
     41 H          50.6912   25.4651   60.5059 H         1 KDA         0.2100
     42 H          52.4844   25.8096   58.9777 H         1 KDA         0.0584
     43 H          51.4760   27.1025   58.2223 H         1 KDA         0.0584
     44 H          51.5898   25.8852   56.2699 H         1 KDA         0.2095
     45 H          49.3472   28.9161   54.5447 H         1 KDA         0.0849
     46 H          48.5163   26.7643   52.4853 H         1 KDA         0.0331
     47 H          47.9338   29.5793   52.5638 H         1 KDA         0.0321
     48 H          49.6369   29.3819   52.0826 H         1 KDA         0.0321
     49 H          48.3451   28.6316   51.1133 H         1 KDA         0.0321
     50 H          42.6452   24.9585   58.0194 H         1 KDA         0.0311
     51 H          43.6269   23.6501   57.3040 H         1 KDA         0.0311
     52 H          41.9448   24.6221   55.7173 H         1 KDA         0.0292
     53 H          43.6150   24.7554   55.1461 H         1 KDA         0.0292
     54 H          42.4526   26.9047   54.8306 H         1 KDA         0.0620
     55 H          42.0243   26.8190   57.6505 H         1 KDA         0.2099
     56 H          44.8369   26.9704   55.4012 H         1 KDA         0.0648
     57 H          43.1681   29.0905   56.8070 H         1 KDA         0.0643
     58 H          44.3099   28.9363   54.1702 H         1 KDA         0.2100
     59 H          45.4963   29.2130   57.5408 H         1 KDA         0.0584
     60 H          45.0866   30.5956   56.4649 H         1 KDA         0.0584
     61 H          47.1259   29.6278   55.9489 H         1 KDA         0.2095
@<TRIPOS>BOND
     1    1    2 ar 
     2    1    3 ar 
     3    4    1 1  
     4    5    4 1  
     5    4   10 1  
     6    4   15 1  
     7    6    5 1  
     8    6    7 1  
     9   23    6 1  
    10    7    8 1  
    11    7    9 1  
    12    9   10 1  
    13    9   11 1  
    14   11   12 1  
    15   11   13 1  
    16   13   14 1  
    17   15   16 1  
    18   16   17 2  
    19   17   18 1  
    20   19   20 ar 
    21   19   21 ar 
    22   22   19 1  
    23   22   23 1  
    24   22   24 1  
    25   22   29 1  
    26   24   25 1  
    27   25   26 1  
    28   26   27 1  
    29   26   28 1  
    30   28   29 1  
    31   28   30 1  
    32   30   31 1  
    33   30   32 1  
    34   32   33 1  
    35    5   34 1  
    36    5   35 1  
    37    6   36 1  
    38    7   37 1  
    39    8   38 1  
    40    9   39 1  
    41   11   40 1  
    42   12   41 1  
    43   13   42 1  
    44   13   43 1  
    45   14   44 1  
    46   16   45 1  
    47   17   46 1  
    48   18   47 1  
    49   18   48 1  
    50   18   49 1  
    51   24   50 1  
    52   24   51 1  
    53   25   52 1  
    54   25   53 1  
    55   26   54 1  
    56   27   55 1  
    57   28   56 1  
    58   30   57 1  
    59   31   58 1  
    60   32   59 1  
    61   32   60 1  
    62   33   61 1  
@<TRIPOS>SUBSTRUCTURE
     1 KDA         1

