### 
### Created by X-TOOL on Mon Sep 10 21:13:01 2018
### 

@<TRIPOS>MOLECULE
3i0r_ligand
   49    51     1     0     0
SMALL
GAST_HUCK


@<TRIPOS>ATOM
      1 O30         8.2530    4.7270   14.0780 O.2       1 RT3        -0.1524
      2 S23         6.8620    4.9410   13.7840 S.o2      1 RT3         0.0591
      3 O26         6.0660    4.2760   14.7800 O.2       1 RT3        -0.1524
      4 N29         6.5360    4.3900   12.3100 N.am      1 RT3        -0.2625
      5 C19         6.6060    6.5250   13.8310 C.ar      1 RT3         0.0930
      6 C20         6.4210    7.1350   15.0630 C.ar      1 RT3        -0.0350
      7 C21         6.2070    8.4990   15.1400 C.ar      1 RT3         0.0612
      8 CL22        5.9710    9.2100   16.7590 Cl        1 RT3        -0.0830
      9 C18         6.5820    7.2970   12.6630 C.ar      1 RT3        -0.0488
     10 C17         6.3690    8.6770   12.6920 C.ar      1 RT3        -0.0387
     11 C16         6.1780    9.3280   13.9050 C.ar      1 RT3         0.0805
     12 N15         5.9700   10.6740   13.9580 N.am      1 RT3        -0.2321
     13 C14         6.5300   11.5190   13.0840 C.2       1 RT3         0.2164
     14 O29         5.9060   12.1290   12.2340 O.2       1 RT3        -0.3836
     15 C13         8.0190   11.7290   13.1630 C.3       1 RT3         0.1100
     16 S12         8.3700   13.1350   14.1740 S.3       1 RT3        -0.0047
     17 C11         9.3080   12.6630   15.4720 C.2       1 RT3         0.2673
     18 O28         8.8640   11.8220   16.2320 O.2       1 RT3        -0.3736
     19 N2         10.4570   13.2820   15.6930 N.am      1 RT3        -0.2174
     20 C1         11.4260   13.6800   14.6800 C.3       1 RT3         0.0551
     21 C3         10.6450   13.6160   17.0300 C.ar      1 RT3         0.0658
     22 C7          9.6870   13.2440   17.9570 C.ar      1 RT3        -0.0534
     23 C4         11.8230   14.3560   17.4820 C.ar      1 RT3        -0.0268
     24 C5         12.8510   14.7580   16.4590 C.3       1 RT3        -0.0222
     25 C6         12.7920   13.7110   15.3570 C.3       1 RT3        -0.0202
     26 C10        11.9320   14.6460   18.8350 C.ar      1 RT3        -0.0715
     27 C9         10.9430   14.2490   19.7280 C.ar      1 RT3        -0.0674
     28 C27        11.0550   14.5570   21.1910 C.3       1 RT3        -0.0396
     29 C8          9.8360   13.5550   19.2960 C.ar      1 RT3        -0.0806
     30 H1          7.0181    4.7648   11.5181 H         1 RT3         0.1633
     31 H2          5.8510    3.6723   12.1847 H         1 RT3         0.1633
     32 H3          6.4443    6.5402   15.9689 H         1 RT3         0.0602
     33 H4          6.7334    6.8086   11.7071 H         1 RT3         0.0598
     34 H5          6.3526    9.2414   11.7667 H         1 RT3         0.0503
     35 H6          5.3784   11.0431   14.6748 H         1 RT3         0.2262
     36 H7          8.4187   11.8969   12.1520 H         1 RT3         0.0649
     37 H8          8.4913   10.8371   13.6006 H         1 RT3         0.0649
     38 H9         11.1756   14.6772   14.2889 H         1 RT3         0.0582
     39 H10        11.4300   12.9528   13.8547 H         1 RT3         0.0582
     40 H11         8.8078   12.7014   17.6288 H         1 RT3         0.0465
     41 H12        13.8527   14.7764   16.9131 H         1 RT3         0.0397
     42 H13        12.6145   15.7523   16.0522 H         1 RT3         0.0397
     43 H14        13.5582   13.9438   14.6029 H         1 RT3         0.0308
     44 H15        12.9958   12.7222   15.7937 H         1 RT3         0.0308
     45 H16        12.7974   15.1877   19.1993 H         1 RT3         0.0457
     46 H17        10.1753   14.1589   21.7179 H         1 RT3         0.0362
     47 H18        11.1057   15.6465   21.3335 H         1 RT3         0.0362
     48 H19        11.9661   14.0915   21.5950 H         1 RT3         0.0362
     49 H20         9.0777   13.2509   20.0084 H         1 RT3         0.0462
@<TRIPOS>BOND
     1    1    2 2  
     2    2    3 2  
     3    2    4 am 
     4    2    5 1  
     5    5    6 ar 
     6    5    9 ar 
     7    6    7 ar 
     8    7    8 1  
     9    7   11 ar 
    10    9   10 ar 
    11   10   11 ar 
    12   11   12 1  
    13   12   13 am 
    14   13   14 2  
    15   13   15 1  
    16   15   16 1  
    17   16   17 1  
    18   17   18 2  
    19   17   19 am 
    20   19   20 1  
    21   19   21 1  
    22   20   25 1  
    23   21   22 ar 
    24   21   23 ar 
    25   22   29 ar 
    26   23   24 1  
    27   23   26 ar 
    28   24   25 1  
    29   26   27 ar 
    30   27   28 1  
    31   27   29 ar 
    32    4   30 1  
    33    4   31 1  
    34    6   32 1  
    35    9   33 1  
    36   10   34 1  
    37   12   35 1  
    38   15   36 1  
    39   15   37 1  
    40   20   38 1  
    41   20   39 1  
    42   22   40 1  
    43   24   41 1  
    44   24   42 1  
    45   25   43 1  
    46   25   44 1  
    47   26   45 1  
    48   28   46 1  
    49   28   47 1  
    50   28   48 1  
    51   29   49 1  
@<TRIPOS>SUBSTRUCTURE
     1 RT3         1

