### 
### Created by X-TOOL on Mon Sep 10 21:13:02 2018
### 

@<TRIPOS>MOLECULE
3i0s_ligand
   46    48     1     0     0
SMALL
GAST_HUCK


@<TRIPOS>ATOM
      1 CL30       10.5160   15.3650   21.2760 Cl        1 RT7        -0.0865
      2 C4         10.6470   14.6320   19.6740 C.ar      1 RT7         0.0179
      3 C3          9.8870   13.5080   19.4560 C.ar      1 RT7        -0.0546
      4 C2          9.9180   12.8690   18.2410 C.ar      1 RT7         0.0542
      5 CL29        8.8740   11.4100   18.0630 Cl        1 RT7        -0.0852
      6 C5         11.4710   15.2130   18.7330 C.ar      1 RT7        -0.0594
      7 C6         11.5770   14.6570   17.4780 C.ar      1 RT7        -0.0194
      8 C10        12.4950   15.3050   16.4620 C.3       1 RT7        -0.0207
      9 C9         12.5600   14.4690   15.1860 C.3       1 RT7        -0.0198
     10 C8         12.2690   12.9810   15.3960 C.3       1 RT7         0.0569
     11 N7         10.9150   12.9020   15.9160 N.am      1 RT7        -0.2122
     12 C1         10.7830   13.4430   17.1810 C.ar      1 RT7         0.0871
     13 C11         9.8720   12.3890   15.2450 C.2       1 RT7         0.2697
     14 O22        10.0720   11.4910   14.4430 O.2       1 RT7        -0.3724
     15 S12         8.2880   12.9400   15.4580 S.3       1 RT7        -0.0041
     16 C13         7.1410   12.7580   14.1170 C.3       1 RT7         0.1101
     17 C14         6.7370   11.3340   13.8050 C.2       1 RT7         0.2165
     18 O23         6.8040   10.9770   12.6450 O.2       1 RT7        -0.3836
     19 N15         6.3000   10.5430   14.7950 N.am      1 RT7        -0.2321
     20 C16         6.3580    9.1860   14.7200 C.ar      1 RT7         0.0805
     21 C17         6.1570    8.3410   15.9200 C.ar      1 RT7         0.0612
     22 CL24        5.8130    9.1040   17.5030 Cl        1 RT7        -0.0830
     23 C18         6.2290    6.9550   15.8080 C.ar      1 RT7        -0.0350
     24 C19         6.4840    6.3500   14.5720 C.ar      1 RT7         0.0930
     25 S25         6.5950    4.7310   14.4300 S.o2      1 RT7         0.0591
     26 N28         8.0940    4.3270   14.8360 N.am      1 RT7        -0.2625
     27 O27         5.6300    4.1020   15.2970 O.2       1 RT7        -0.1524
     28 O26         6.3960    4.3210   13.0560 O.2       1 RT7        -0.1524
     29 C20         6.6740    7.1640   13.4520 C.ar      1 RT7        -0.0488
     30 C21         6.6120    8.5490   13.5180 C.ar      1 RT7        -0.0387
     31 H1          9.2577   13.1225   20.2500 H         1 RT7         0.0533
     32 H2         12.0340   16.1055   18.9810 H         1 RT7         0.0521
     33 H3         13.5047   15.3905   16.8899 H         1 RT7         0.0398
     34 H4         12.1139   16.3076   16.2182 H         1 RT7         0.0398
     35 H5         13.5697   14.5664   14.7607 H         1 RT7         0.0308
     36 H6         11.8222   14.8678   14.4742 H         1 RT7         0.0308
     37 H7         12.9800   12.5515   16.1171 H         1 RT7         0.0586
     38 H8         12.3429   12.4396   14.4413 H         1 RT7         0.0586
     39 H9          7.6013   13.1867   13.2146 H         1 RT7         0.0649
     40 H10         6.2311   13.3228   14.3682 H         1 RT7         0.0649
     41 H11         5.9181   10.9651   15.6172 H         1 RT7         0.2262
     42 H12         6.0860    6.3379   16.6876 H         1 RT7         0.0602
     43 H13         8.3759    3.3678   14.8167 H         1 RT7         0.1633
     44 H14         8.7462    5.0345   15.1083 H         1 RT7         0.1633
     45 H15         6.8775    6.6960   12.4956 H         1 RT7         0.0598
     46 H16         6.7639    9.1369   12.6200 H         1 RT7         0.0503
@<TRIPOS>BOND
     1    1    2 1  
     2    2    3 ar 
     3    2    6 ar 
     4    3    4 ar 
     5    4    5 1  
     6    4   12 ar 
     7    6    7 ar 
     8    7    8 1  
     9    7   12 ar 
    10    8    9 1  
    11    9   10 1  
    12   10   11 1  
    13   11   12 1  
    14   11   13 am 
    15   13   14 2  
    16   13   15 1  
    17   15   16 1  
    18   16   17 1  
    19   17   18 2  
    20   17   19 am 
    21   19   20 1  
    22   20   21 ar 
    23   20   30 ar 
    24   21   22 1  
    25   21   23 ar 
    26   23   24 ar 
    27   24   25 1  
    28   24   29 ar 
    29   25   26 am 
    30   25   27 2  
    31   25   28 2  
    32   29   30 ar 
    33    3   31 1  
    34    6   32 1  
    35    8   33 1  
    36    8   34 1  
    37    9   35 1  
    38    9   36 1  
    39   10   37 1  
    40   10   38 1  
    41   16   39 1  
    42   16   40 1  
    43   19   41 1  
    44   23   42 1  
    45   26   43 1  
    46   26   44 1  
    47   29   45 1  
    48   30   46 1  
@<TRIPOS>SUBSTRUCTURE
     1 RT7         1

