### 
### Created by X-TOOL on Mon Sep 10 21:13:01 2018
### 

@<TRIPOS>MOLECULE
3i1y_ligand
   44    46     1     0     0
SMALL
GAST_HUCK


@<TRIPOS>ATOM
      1 C4         74.7820   -9.0290   67.9830 C.3       1 33N        -0.0107
      2 C5         76.2290  -11.6530   68.5250 C.ar      1 33N        -0.0581
      3 C6         73.9780  -12.4210   68.8370 C.ar      1 33N        -0.0581
      4 C7         74.9010  -10.1690   71.5910 C.ar      1 33N        -0.0581
      5 C8         75.8460   -8.3240   70.3830 C.ar      1 33N        -0.0581
      6 C10        76.6310  -12.9470   68.2430 C.ar      1 33N        -0.0682
      7 C13        76.4250   -7.8590   71.5520 C.ar      1 33N        -0.0682
      8 C15        75.7060  -13.9770   68.2580 C.ar      1 33N        -0.0685
      9 C17        75.1510   -8.7410   64.5260 C.2       1 33N         0.2129
     10 C20        75.8790   -7.8160   62.3210 C.ar      1 33N        -0.0224
     11 C21        74.2510   -6.5970   63.6110 C.ar      1 33N         0.0313
     12 C22        75.7870   -6.8220   61.3640 C.ar      1 33N        -0.0284
     13 C24        74.9290   -5.7580   61.5770 C.ar      1 33N         0.0155
     14 O19        75.9010   -9.6880   64.4060 O.2       1 33N        -0.3816
     15 C18        75.0940   -7.7010   63.4750 C.ar      1 33N         0.0779
     16 N23        74.1970   -5.6750   62.6720 N.ar      1 33N        -0.2903
     17 N14        74.3740   -8.6440   65.6180 N.am      1 33N        -0.2847
     18 C9         74.4340   -9.6820   66.6460 C.3       1 33N         0.0343
     19 C1         74.4450   -9.9840   69.1310 C.3       1 33N         0.0273
     20 C3         75.0790   -9.4780   70.4040 C.ar      1 33N        -0.0288
     21 C16        76.2470   -8.5480   72.7390 C.ar      1 33N        -0.0685
     22 C12        75.4820   -9.7030   72.7580 C.ar      1 33N        -0.0682
     23 C2         74.9020  -11.3890   68.8200 C.ar      1 33N        -0.0288
     24 C11        74.3800  -13.7140   68.5570 C.ar      1 33N        -0.0682
     25 H1         74.2023   -8.1013   68.0980 H         1 33N         0.0331
     26 H2         75.8566   -8.7952   68.0063 H         1 33N         0.0331
     27 H3         76.9529  -10.8462   68.5149 H         1 33N         0.0561
     28 H4         72.9396  -12.2148   69.0699 H         1 33N         0.0561
     29 H5         74.3064  -11.0753   71.6063 H         1 33N         0.0561
     30 H6         75.9925   -7.7862   69.4533 H         1 33N         0.0561
     31 H7         77.6694  -13.1539   68.0106 H         1 33N         0.0600
     32 H8         77.0194   -6.9526   71.5372 H         1 33N         0.0600
     33 H9         76.0202  -14.9903   68.0354 H         1 33N         0.0561
     34 H10        76.5417   -8.6624   62.1815 H         1 33N         0.0789
     35 H11        73.6351   -6.4975   64.4975 H         1 33N         0.0879
     36 H12        76.3799   -6.8759   60.4581 H         1 33N         0.0722
     37 H13        74.8564   -4.9765   60.8293 H         1 33N         0.0858
     38 H14        73.7569   -7.8647   65.7272 H         1 33N         0.1846
     39 H15        73.4582  -10.1840   66.7222 H         1 33N         0.0523
     40 H16        75.2063  -10.4196   66.3823 H         1 33N         0.0523
     41 H17        73.3533   -9.9990   69.2651 H         1 33N         0.0619
     42 H18        76.7051   -8.1848   73.6519 H         1 33N         0.0561
     43 H19        75.3383  -10.2422   73.6873 H         1 33N         0.0600
     44 H20        73.6571  -14.5216   68.5716 H         1 33N         0.0600
@<TRIPOS>BOND
     1    1   18 1  
     2   19    1 1  
     3    2    6 ar 
     4   23    2 ar 
     5   23    3 ar 
     6    3   24 ar 
     7   20    4 ar 
     8    4   22 ar 
     9    5    7 ar 
    10   20    5 ar 
    11    6    8 ar 
    12    7   21 ar 
    13   24    8 ar 
    14    9   14 2  
    15    9   15 1  
    16   17    9 am 
    17   10   12 ar 
    18   15   10 ar 
    19   15   11 ar 
    20   11   16 ar 
    21   12   13 ar 
    22   16   13 ar 
    23   18   17 1  
    24   19   20 1  
    25   19   23 1  
    26   21   22 ar 
    27    1   25 1  
    28    1   26 1  
    29    2   27 1  
    30    3   28 1  
    31    4   29 1  
    32    5   30 1  
    33    6   31 1  
    34    7   32 1  
    35    8   33 1  
    36   10   34 1  
    37   11   35 1  
    38   12   36 1  
    39   13   37 1  
    40   17   38 1  
    41   18   39 1  
    42   18   40 1  
    43   19   41 1  
    44   21   42 1  
    45   22   43 1  
    46   24   44 1  
@<TRIPOS>SUBSTRUCTURE
     1 33N         1

