### 
### Created by X-TOOL on Mon Sep 10 21:13:03 2018
### 

@<TRIPOS>MOLECULE
3i25_ligand
  118   121     1     0     0
SMALL
GAST_HUCK


@<TRIPOS>ATOM
      1 O10         1.9640   19.6660   28.1170 O.2       1 MV7        -0.3845
      2 C37         1.1050   19.1480   28.7640 C.2       1 MV7         0.2041
      3 N5         -0.1700   19.1880   28.4050 N.am      1 MV7        -0.2723
      4 C38        -0.6730   19.8340   27.2040 C.3       1 MV7         0.0723
      5 C40        -0.9300   18.7710   26.1540 C.ar      1 MV7        -0.0183
      6 C43        -0.2570   18.8160   24.9220 C.ar      1 MV7        -0.0582
      7 C44        -0.4660   17.8550   23.9060 C.ar      1 MV7        -0.0685
      8 C45        -1.3420   16.8000   24.1480 C.ar      1 MV7        -0.0687
      9 C42        -2.0000   16.7160   25.3860 C.ar      1 MV7        -0.0685
     10 C41        -1.7840   17.6790   26.3760 C.ar      1 MV7        -0.0582
     11 C39        -1.9410   20.5980   27.5960 C.3       1 MV7        -0.0320
     12 C36         1.4920   18.3930   29.9880 C.ar      1 MV7         0.0398
     13 C34         2.7160   17.7420   30.0250 C.ar      1 MV7        -0.0214
     14 C31         3.0660   16.9710   31.1380 C.ar      1 MV7         0.0754
     15 N4          4.2930   16.2730   31.2400 N.am      1 MV7        -0.1796
     16 S           5.0780   15.6170   30.0290 S.o2      1 MV7         0.0593
     17 O9          5.8330   14.5300   30.4760 O.2       1 MV7        -0.1500
     18 C33         6.2800   16.6890   29.5700 C.3       1 MV7         0.0790
     19 O8          4.2050   15.3090   28.9690 O.2       1 MV7        -0.1500
     20 C32         4.9180   16.1950   32.5870 C.3       1 MV7         0.0445
     21 C30         2.1730   16.9390   32.2180 C.ar      1 MV7        -0.0214
     22 C35         0.5970   18.3460   31.0500 C.ar      1 MV7        -0.0393
     23 C29         0.9400   17.5880   32.1580 C.ar      1 MV7         0.0397
     24 C28        -0.0190   17.5770   33.2970 C.2       1 MV7         0.2024
     25 O7          0.4030   17.7810   34.4230 O.2       1 MV7        -0.3847
     26 N3         -1.3050   17.3810   33.0330 N.am      1 MV7        -0.2781
     27 C20        -2.3860   17.4200   34.0160 C.3       1 MV7         0.0951
     28 C21        -3.5490   18.0530   33.2280 C.3       1 MV7         0.0954
     29 O6         -3.2690   19.1660   32.3940 O.3       1 MV7        -0.3176
     30 C22        -2.4180   20.2240   32.6500 C.ar      1 MV7         0.0876
     31 C27        -1.9850   20.9610   31.5560 C.ar      1 MV7        -0.0041
     32 C26        -1.1190   22.0270   31.7500 C.ar      1 MV7         0.1223
     33 F2         -0.7270   22.7090   30.6830 F         1 MV7        -0.1874
     34 C25        -0.6530   22.3900   33.0200 C.ar      1 MV7        -0.0061
     35 C24        -1.0920   21.6640   34.1020 C.ar      1 MV7         0.1223
     36 F1         -0.6590   21.9850   35.3260 F         1 MV7        -0.1874
     37 C23        -1.9840   20.5920   33.9360 C.ar      1 MV7        -0.0041
     38 C19        -2.8150   16.0140   34.4450 C.3       1 MV7         0.0850
     39 O5         -3.2920   15.2790   33.3120 O.3       1 MV7        -0.3892
     40 C18        -1.6230   15.2930   35.0190 C.3       1 MV7         0.0192
     41 C14        -2.0500   14.3690   36.1300 C.3       1 MV7         0.1496
     42 O3         -0.9580   13.4600   36.1870 O.3       1 MV7        -0.3539
     43 C15        -1.2740   12.2260   36.8180 C.3       1 MV7         0.0744
     44 C16         0.0130   11.4120   36.7380 C.3       1 MV7         0.0709
     45 O4          0.3250   10.9840   38.0430 O.3       1 MV7        -0.3807
     46 C17         0.7040   12.0560   38.9400 C.3       1 MV7         0.0365
     47 C13        -2.1490   15.0960   37.4490 C.2       1 MV7         0.2075
     48 O2         -1.1780   15.6960   37.8400 O.2       1 MV7        -0.3941
     49 N2         -3.2930   15.0500   38.1270 N.am      1 MV7        -0.2632
     50 C9         -3.3510   15.6930   39.4230 C.3       1 MV7         0.1333
     51 C10        -4.6600   15.5050   40.2170 C.3       1 MV7        -0.0063
     52 C12        -5.3540   16.8330   40.4880 C.3       1 MV7        -0.0584
     53 C11        -5.5840   14.3330   39.9030 C.3       1 MV7        -0.0584
     54 C1         -2.4350   14.9710   40.3680 C.2       1 MV7         0.2037
     55 O1         -2.3000   13.7480   40.2920 O.2       1 MV7        -0.3944
     56 N1         -1.8320   15.7110   41.2930 N.am      1 MV7        -0.2737
     57 C2         -0.9330   15.2190   42.3350 C.3       1 MV7         0.0645
     58 C3          0.3550   15.9660   42.2180 C.ar      1 MV7        -0.0210
     59 C4          1.1960   15.7030   41.1490 C.ar      1 MV7        -0.0584
     60 C5          2.3960   16.3930   41.0460 C.ar      1 MV7        -0.0685
     61 C8          0.6950   16.9150   43.1970 C.ar      1 MV7        -0.0584
     62 C7          1.8900   17.6230   43.0980 C.ar      1 MV7        -0.0685
     63 C6          2.7330   17.3520   42.0160 C.ar      1 MV7        -0.0687
     64 H1         -0.8345   18.7412   29.0040 H         1 MV7         0.1875
     65 H2          0.0726   20.5445   26.8177 H         1 MV7         0.0716
     66 H3          0.4498   19.6182   24.7432 H         1 MV7         0.0557
     67 H4          0.0471   17.9382   22.9547 H         1 MV7         0.0599
     68 H5         -1.5149   16.0486   23.3860 H         1 MV7         0.0559
     69 H6         -2.6827   15.8956   25.5758 H         1 MV7         0.0599
     70 H7         -2.2849   17.5808   27.3323 H         1 MV7         0.0557
     71 H8         -2.3535   21.1028   26.7100 H         1 MV7         0.0274
     72 H9         -1.6954   21.3468   28.3635 H         1 MV7         0.0274
     73 H10        -2.6848   19.8932   27.9960 H         1 MV7         0.0274
     74 H11         3.4020   17.8309   29.1904 H         1 MV7         0.0566
     75 H12         6.8475   16.2651   28.7284 H         1 MV7         0.0487
     76 H13         6.9582   16.8645   30.4181 H         1 MV7         0.0487
     77 H14         5.8239   17.6414   29.2620 H         1 MV7         0.0487
     78 H15         4.2658   16.6881   33.3229 H         1 MV7         0.0517
     79 H16         5.8955   16.6991   32.5675 H         1 MV7         0.0517
     80 H17         5.0550   15.1401   32.8672 H         1 MV7         0.0517
     81 H18         2.4461   16.3992   33.1175 H         1 MV7         0.0566
     82 H19        -0.3419   18.8865   31.0127 H         1 MV7         0.0576
     83 H20        -1.5548   17.1910   32.0835 H         1 MV7         0.1850
     84 H21        -2.1063   18.0194   34.8949 H         1 MV7         0.0608
     85 H22        -4.3014   18.3772   33.9620 H         1 MV7         0.0638
     86 H23        -3.9756   17.2661   32.5886 H         1 MV7         0.0638
     87 H24        -2.3212   20.7053   30.5577 H         1 MV7         0.0493
     88 H25         0.0338   23.2192   33.1462 H         1 MV7         0.0497
     89 H26        -2.3393   20.0461   34.8025 H         1 MV7         0.0493
     90 H27        -3.6099   16.0851   35.2020 H         1 MV7         0.0619
     91 H28        -3.5554   14.4091   33.5883 H         1 MV7         0.2099
     92 H29        -0.9101   16.0308   35.4157 H         1 MV7         0.0341
     93 H30        -1.1387   14.7052   34.2253 H         1 MV7         0.0341
     94 H31        -3.0004   13.8658   35.8986 H         1 MV7         0.0841
     95 H32        -2.0900   11.7154   36.2856 H         1 MV7         0.0585
     96 H33        -1.5656   12.3893   37.8660 H         1 MV7         0.0585
     97 H34         0.8280   12.0359   36.3425 H         1 MV7         0.0583
     98 H35        -0.1335   10.5412   36.0822 H         1 MV7         0.0583
     99 H36         0.9306   11.6404   39.9329 H         1 MV7         0.0524
    100 H37        -0.1248   12.7744   39.0237 H         1 MV7         0.0524
    101 H38         1.5941   12.5674   38.5448 H         1 MV7         0.0524
    102 H39        -4.0931   14.5828   37.7507 H         1 MV7         0.1883
    103 H40        -3.0991   16.7579   39.3113 H         1 MV7         0.0802
    104 H41        -4.2834   15.2198   41.2104 H         1 MV7         0.0343
    105 H42        -6.2798   16.6540   41.0544 H         1 MV7         0.0234
    106 H43        -5.5972   17.3213   39.5328 H         1 MV7         0.0234
    107 H44        -4.6864   17.4830   41.0726 H         1 MV7         0.0234
    108 H45        -4.9825   13.4294   39.7249 H         1 MV7         0.0234
    109 H46        -6.1753   14.5628   39.0044 H         1 MV7         0.0234
    110 H47        -6.2605   14.1614   40.7532 H         1 MV7         0.0234
    111 H48        -2.0098   16.6949   41.2742 H         1 MV7         0.1878
    112 H49        -0.7547   14.1423   42.1975 H         1 MV7         0.0683
    113 H50        -1.3778   15.3934   43.3258 H         1 MV7         0.0683
    114 H51         0.9203   14.9673   40.4021 H         1 MV7         0.0557
    115 H52         3.0701   16.1929   40.2210 H         1 MV7         0.0599
    116 H53         0.0260   17.0962   44.0305 H         1 MV7         0.0557
    117 H54         2.1597   18.3651   43.8407 H         1 MV7         0.0599
    118 H55         3.6673   17.8938   41.9234 H         1 MV7         0.0559
@<TRIPOS>BOND
     1    1    2 2  
     2    2    3 am 
     3    2   12 1  
     4    3    4 1  
     5    4    5 1  
     6    4   11 1  
     7    5    6 ar 
     8    5   10 ar 
     9    6    7 ar 
    10    7    8 ar 
    11    8    9 ar 
    12    9   10 ar 
    13   12   13 ar 
    14   12   22 ar 
    15   13   14 ar 
    16   14   15 1  
    17   14   21 ar 
    18   15   16 am 
    19   15   20 1  
    20   16   17 2  
    21   16   18 1  
    22   16   19 2  
    23   21   23 ar 
    24   22   23 ar 
    25   23   24 1  
    26   24   25 2  
    27   24   26 am 
    28   26   27 1  
    29   27   28 1  
    30   27   38 1  
    31   28   29 1  
    32   29   30 1  
    33   30   31 ar 
    34   30   37 ar 
    35   31   32 ar 
    36   32   33 1  
    37   32   34 ar 
    38   34   35 ar 
    39   35   36 1  
    40   35   37 ar 
    41   38   39 1  
    42   38   40 1  
    43   40   41 1  
    44   41   42 1  
    45   41   47 1  
    46   42   43 1  
    47   43   44 1  
    48   44   45 1  
    49   45   46 1  
    50   47   48 2  
    51   47   49 am 
    52   49   50 1  
    53   50   51 1  
    54   50   54 1  
    55   51   52 1  
    56   51   53 1  
    57   54   55 2  
    58   54   56 am 
    59   56   57 1  
    60   57   58 1  
    61   58   59 ar 
    62   58   61 ar 
    63   59   60 ar 
    64   60   63 ar 
    65   61   62 ar 
    66   62   63 ar 
    67    3   64 1  
    68    4   65 1  
    69    6   66 1  
    70    7   67 1  
    71    8   68 1  
    72    9   69 1  
    73   10   70 1  
    74   11   71 1  
    75   11   72 1  
    76   11   73 1  
    77   13   74 1  
    78   18   75 1  
    79   18   76 1  
    80   18   77 1  
    81   20   78 1  
    82   20   79 1  
    83   20   80 1  
    84   21   81 1  
    85   22   82 1  
    86   26   83 1  
    87   27   84 1  
    88   28   85 1  
    89   28   86 1  
    90   31   87 1  
    91   34   88 1  
    92   37   89 1  
    93   38   90 1  
    94   39   91 1  
    95   40   92 1  
    96   40   93 1  
    97   41   94 1  
    98   43   95 1  
    99   43   96 1  
   100   44   97 1  
   101   44   98 1  
   102   46   99 1  
   103   46  100 1  
   104   46  101 1  
   105   49  102 1  
   106   50  103 1  
   107   51  104 1  
   108   52  105 1  
   109   52  106 1  
   110   52  107 1  
   111   53  108 1  
   112   53  109 1  
   113   53  110 1  
   114   56  111 1  
   115   57  112 1  
   116   57  113 1  
   117   59  114 1  
   118   60  115 1  
   119   61  116 1  
   120   62  117 1  
   121   63  118 1  
@<TRIPOS>SUBSTRUCTURE
     1 MV7         1

