### 
### Created by X-TOOL on Mon Sep 10 21:13:01 2018
### 

@<TRIPOS>MOLECULE
3i28_ligand
   52    54     1     0     0
SMALL
GAST_HUCK


@<TRIPOS>ATOM
      1 C5         76.5500   -8.5710   72.6420 C.ar      1 34N         0.0811
      2 C6         76.6930   -7.8800   71.4490 C.ar      1 34N        -0.0434
      3 C7         76.0050   -8.3230   70.3220 C.ar      1 34N        -0.0564
      4 C8         75.1870   -9.4530   70.3820 C.ar      1 34N        -0.0293
      5 C10        75.7320   -9.6900   72.7060 C.ar      1 34N        -0.0434
      6 C13        73.9330   -9.7370   66.7590 C.3       1 34N         0.0342
      7 C15        74.9540   -8.8750   64.7200 C.2       1 34N         0.2105
      8 C17        75.0330   -7.8340   63.6640 C.ar      1 34N         0.0580
      9 C20        75.1940   -5.8980   61.6940 C.ar      1 34N         0.0992
     10 C21        76.1900   -6.8620   61.8210 C.ar      1 34N        -0.0221
     11 C22        76.1140   -7.8180   62.7930 C.ar      1 34N        -0.0315
     12 C26        75.7920  -12.0230   68.7710 C.ar      1 34N        -0.0597
     13 C28        74.7470  -14.1770   68.7210 C.ar      1 34N         0.1251
     14 F29        74.8200  -15.5240   68.5920 F         1 34N        -0.1890
     15 C27        75.8900  -13.3950   68.6360 C.ar      1 34N        -0.0345
     16 C30        73.5130  -13.5840   68.9290 C.ar      1 34N        -0.0345
     17 C31        73.4130  -12.2210   69.0740 C.ar      1 34N        -0.0597
     18 C25        74.5550  -11.4390   68.9890 C.ar      1 34N        -0.0326
     19 C11        74.4000   -9.9500   69.1710 C.3       1 34N         0.0255
     20 C9         75.0480  -10.1260   71.5820 C.ar      1 34N        -0.0564
     21 S2         77.4080   -8.0520   74.0940 S.o2      1 34N        -0.0087
     22 O3         76.5430   -8.3950   75.1650 O.2       1 34N        -0.1704
     23 O4         77.7600   -6.6840   73.8950 O.2       1 34N        -0.1704
     24 C1         78.8760   -9.1170   74.0300 C.3       1 34N         0.0588
     25 C12        74.7890   -9.1980   67.9040 C.3       1 34N        -0.0112
     26 N14        74.0290   -8.7360   65.6970 N.am      1 34N        -0.2848
     27 O16        75.7140   -9.8260   64.7080 O.2       1 34N        -0.3812
     28 C23        75.3380   -4.9110   60.6680 C.1       1 34N         0.1035
     29 N24        75.4190   -4.1130   59.8640 N.1       1 34N        -0.3262
     30 C19        74.0990   -5.8850   62.5700 C.ar      1 34N        -0.0221
     31 C18        74.0230   -6.8640   63.5540 C.ar      1 34N        -0.0315
     32 H1         77.3320   -7.0061   71.3939 H         1 34N         0.0619
     33 H2         76.1058   -7.7840   69.3869 H         1 34N         0.0561
     34 H3         75.6271  -10.2271   73.6417 H         1 34N         0.0619
     35 H4         72.8884   -9.8557   67.0824 H         1 34N         0.0523
     36 H5         74.3215  -10.7055   66.4111 H         1 34N         0.0523
     37 H6         77.0345   -6.8537   61.1414 H         1 34N         0.0727
     38 H7         76.8961   -8.5630   62.8844 H         1 34N         0.0690
     39 H8         76.6807  -11.4057   68.7065 H         1 34N         0.0551
     40 H9         76.8551  -13.8579   68.4646 H         1 34N         0.0587
     41 H10        72.6211  -14.1982   68.9777 H         1 34N         0.0587
     42 H11        72.4482  -11.7605   69.2535 H         1 34N         0.0551
     43 H12        73.3359   -9.7479   69.3626 H         1 34N         0.0611
     44 H13        74.4035  -10.9954   71.6437 H         1 34N         0.0561
     45 H14        79.5225   -8.9025   74.8937 H         1 34N         0.0467
     46 H15        79.4301   -8.9222   73.0999 H         1 34N         0.0467
     47 H16        78.5653  -10.1718   74.0576 H         1 34N         0.0467
     48 H17        74.6030   -8.1219   68.0357 H         1 34N         0.0330
     49 H18        75.8542   -9.3618   67.6840 H         1 34N         0.0330
     50 H19        73.4113   -7.9496   65.6932 H         1 34N         0.1846
     51 H20        73.3284   -5.1278   62.4817 H         1 34N         0.0727
     52 H21        73.1822   -6.8789   64.2381 H         1 34N         0.0690
@<TRIPOS>BOND
     1    2    1 ar 
     2    5    1 ar 
     3    1   21 1  
     4    3    2 ar 
     5    4    3 ar 
     6   19    4 1  
     7    4   20 ar 
     8   20    5 ar 
     9   25    6 1  
    10    6   26 1  
    11    7    8 1  
    12   26    7 am 
    13    7   27 2  
    14    8   11 ar 
    15    8   31 ar 
    16   10    9 ar 
    17    9   28 1  
    18    9   30 ar 
    19   11   10 ar 
    20   12   15 ar 
    21   18   12 ar 
    22   13   14 1  
    23   15   13 ar 
    24   16   13 ar 
    25   17   16 ar 
    26   18   17 ar 
    27   19   18 1  
    28   19   25 1  
    29   21   22 2  
    30   21   23 2  
    31   21   24 1  
    32   28   29 3  
    33   30   31 ar 
    34    2   32 1  
    35    3   33 1  
    36    5   34 1  
    37    6   35 1  
    38    6   36 1  
    39   10   37 1  
    40   11   38 1  
    41   12   39 1  
    42   15   40 1  
    43   16   41 1  
    44   17   42 1  
    45   19   43 1  
    46   20   44 1  
    47   24   45 1  
    48   24   46 1  
    49   24   47 1  
    50   25   48 1  
    51   25   49 1  
    52   26   50 1  
    53   30   51 1  
    54   31   52 1  
@<TRIPOS>SUBSTRUCTURE
     1 34N         1

