### 
### Created by X-TOOL on Mon Sep 10 21:13:03 2018
### 

@<TRIPOS>MOLECULE
3i3b_ligand
   22    22     1     0     0
SMALL
GAST_HUCK


@<TRIPOS>ATOM
      1 C1        -10.6480  -27.9420  -26.4260 C.2       1 149         0.2660
      2 C2         -9.6960  -29.0080  -25.8620 C.3       1 149         0.1832
      3 C3         -8.8230  -29.5690  -26.9840 C.3       1 149         0.1280
      4 C4         -9.6910  -30.0360  -28.1500 C.3       1 149         0.1183
      5 C5        -10.3280  -28.7930  -28.8000 C.3       1 149         0.1389
      6 C6        -11.4440  -29.2070  -29.7590 C.3       1 149         0.0774
      7 O1        -11.1720  -27.1520  -25.6830 O.2       1 149        -0.3674
      8 O2         -8.8370  -28.4270  -24.8670 O.3       1 149        -0.3674
      9 O3         -8.0720  -30.6540  -26.4770 O.3       1 149        -0.3840
     10 O4        -10.7200  -30.9140  -27.6720 O.3       1 149        -0.3860
     11 O5        -10.9130  -27.8800  -27.7850 O.3       1 149        -0.2665
     12 O6        -10.9030  -29.9280  -30.8640 O.3       1 149        -0.3920
     13 H1        -10.2856  -29.8199  -25.4113 H         1 149         0.0881
     14 H2         -8.1377  -28.7847  -27.3380 H         1 149         0.0673
     15 H3         -9.0704  -30.5660  -28.8875 H         1 149         0.0652
     16 H4         -9.5496  -28.2540  -29.3599 H         1 149         0.0700
     17 H5        -11.9574  -28.3072  -30.1289 H         1 149         0.0587
     18 H6        -12.1629  -29.8461  -29.2254 H         1 149         0.0587
     19 H7         -8.3247  -27.7304  -25.2603 H         1 149         0.2136
     20 H8         -7.5352  -30.3550  -25.7525 H         1 149         0.2102
     21 H9        -11.2673  -31.1846  -28.4000 H         1 149         0.2100
     22 H10       -10.2831  -29.3770  -31.3273 H         1 149         0.2095
@<TRIPOS>BOND
     1    1    2 1  
     2    1    7 2  
     3    1   11 1  
     4    2    3 1  
     5    2    8 1  
     6    3    4 1  
     7    3    9 1  
     8    4    5 1  
     9    4   10 1  
    10    5    6 1  
    11    5   11 1  
    12    6   12 1  
    13    2   13 1  
    14    3   14 1  
    15    4   15 1  
    16    5   16 1  
    17    6   17 1  
    18    6   18 1  
    19    8   19 1  
    20    9   20 1  
    21   10   21 1  
    22   12   22 1  
@<TRIPOS>SUBSTRUCTURE
     1 149         1

