### 
### Created by X-TOOL on Mon Sep 10 21:13:03 2018
### 

@<TRIPOS>MOLECULE
3i3d_ligand
   33    33     1     0     0
SMALL
GAST_HUCK


@<TRIPOS>ATOM
      1 C1         14.7370   27.6950   75.4600 C.3       1 IPT         0.1332
      2 C2         13.4200   27.5970   76.2620 C.3       1 IPT         0.1189
      3 O2         13.5440   26.6020   77.2710 O.3       1 IPT        -0.3857
      4 C3         12.2750   27.2380   75.3080 C.3       1 IPT         0.1126
      5 O3         11.0490   27.1300   76.0250 O.3       1 IPT        -0.3865
      6 C4         12.1710   28.3290   74.2270 C.3       1 IPT         0.1118
      7 O4         11.8140   29.5930   74.8100 O.3       1 IPT        -0.3865
      8 C5         13.5390   28.4120   73.4900 C.3       1 IPT         0.1115
      9 O5         14.6180   28.7030   74.4140 O.3       1 IPT        -0.3553
     10 C6         13.4890   29.5040   72.4100 C.3       1 IPT         0.0730
     11 O6         12.4940   29.1830   71.4410 O.3       1 IPT        -0.3924
     12 S1         16.1140   28.1260   76.5650 S.3       1 IPT        -0.1243
     13 C1'        17.5220   28.1000   75.4020 C.3       1 IPT         0.0021
     14 C2'        18.8090   27.8670   76.1930 C.3       1 IPT        -0.0535
     15 C3'        17.6330   29.4170   74.6320 C.3       1 IPT        -0.0535
     16 H1         14.9431   26.7197   74.9950 H         1 IPT         0.0740
     17 H2         13.2082   28.5672   76.7352 H         1 IPT         0.0655
     18 H3         12.7318   26.5462   77.7606 H         1 IPT         0.2100
     19 H4         12.4929   26.2726   74.8278 H         1 IPT         0.0647
     20 H5         10.8548   27.9598   76.4448 H         1 IPT         0.2100
     21 H6         11.3916   28.0463   73.5041 H         1 IPT         0.0647
     22 H7         11.7555   30.2504   74.1267 H         1 IPT         0.2100
     23 H8         13.7374   27.4426   73.0095 H         1 IPT         0.0646
     24 H9         14.4695   29.5740   71.9164 H         1 IPT         0.0584
     25 H10        13.2443   30.4689   72.8780 H         1 IPT         0.0584
     26 H11        12.7053   28.3502   71.0357 H         1 IPT         0.2095
     27 H12        17.3794   27.2784   74.6846 H         1 IPT         0.0407
     28 H13        19.6654   27.8492   75.5029 H         1 IPT         0.0240
     29 H14        18.7449   26.9050   76.7225 H         1 IPT         0.0240
     30 H15        18.9430   28.6791   76.9228 H         1 IPT         0.0240
     31 H16        18.4887   29.3676   73.9425 H         1 IPT         0.0240
     32 H17        17.7808   30.2449   75.3410 H         1 IPT         0.0240
     33 H18        16.7095   29.5856   74.0587 H         1 IPT         0.0240
@<TRIPOS>BOND
     1    1    2 1  
     2    1    9 1  
     3    1   12 1  
     4    2    3 1  
     5    2    4 1  
     6    4    5 1  
     7    4    6 1  
     8    6    7 1  
     9    6    8 1  
    10    8    9 1  
    11    8   10 1  
    12   10   11 1  
    13   12   13 1  
    14   13   14 1  
    15   13   15 1  
    16    1   16 1  
    17    2   17 1  
    18    3   18 1  
    19    4   19 1  
    20    5   20 1  
    21    6   21 1  
    22    7   22 1  
    23    8   23 1  
    24   10   24 1  
    25   10   25 1  
    26   11   26 1  
    27   13   27 1  
    28   14   28 1  
    29   14   29 1  
    30   14   30 1  
    31   15   31 1  
    32   15   32 1  
    33   15   33 1  
@<TRIPOS>SUBSTRUCTURE
     1 IPT         1

