### 
### Created by X-TOOL on Mon Sep 10 21:13:00 2018
### 

@<TRIPOS>MOLECULE
3i4a_ligand
   34    33     1     0     0
SMALL
GAST_HUCK


@<TRIPOS>ATOM
      1 CT1         2.3860  -22.0780  -14.3500 C.3       1 LN5        -0.0545
      2 CH1         1.5290  -21.9290  -15.5970 C.3       1 LN5         0.0323
      3 CZ          1.1390  -20.4980  -15.9080 C.3       1 LN5        -0.0085
      4 NH2         1.4420  -19.6690  -14.7960 N.4       1 LN5         0.2548
      5 NE          2.0190  -19.8850  -16.8990 N.4       1 LN5         0.2626
      6 CD          2.0480  -20.4620  -18.2570 C.3       1 LN5        -0.0281
      7 CG          2.8750  -19.5520  -19.1900 C.3       1 LN5        -0.0057
      8 CB          2.8780  -20.0750  -20.6560 C.3       1 LN5         0.0072
      9 CA          3.6250  -19.1460  -21.6260 C.3       1 LN5         0.0285
     10 C           5.1280  -19.1450  -21.3400 C.2       1 LN5         0.0844
     11 OA2         5.8340  -19.9250  -22.0180 O.co2     1 LN5        -0.5643
     12 OA1         5.5410  -18.3460  -20.4710 O.co2     1 LN5        -0.5643
     13 N           3.4170  -19.5880  -23.0140 N.4       1 LN5         0.2327
     14 H1          2.6251  -23.1403  -14.1942 H         1 LN5         0.0234
     15 H2          1.8351  -21.6945  -13.4785 H         1 LN5         0.0234
     16 H3          3.3178  -21.5070  -14.4751 H         1 LN5         0.0234
     17 H4          0.6092  -22.5158  -15.4570 H         1 LN5         0.0377
     18 H5          2.0919  -22.3283  -16.4536 H         1 LN5         0.0377
     19 H6          0.0804  -20.4479  -16.2028 H         1 LN5         0.1469
     20 H7          1.1818  -18.7179  -15.0052 H         1 LN5         0.2051
     21 H8          2.4306  -19.7124  -14.6040 H         1 LN5         0.2051
     22 H9          0.9287  -19.9881  -13.9893 H         1 LN5         0.2051
     23 H10         2.9577  -19.9311  -16.5345 H         1 LN5         0.2072
     24 H11         1.7408  -18.9204  -16.9899 H         1 LN5         0.2072
     25 H12         1.0208  -20.5436  -18.6419 H         1 LN5         0.0815
     26 H13         2.5063  -21.4613  -18.2202 H         1 LN5         0.0815
     27 H14         3.9115  -19.5146  -18.8235 H         1 LN5         0.0320
     28 H15         2.4437  -18.5402  -19.1741 H         1 LN5         0.0320
     29 H16         1.8362  -20.1709  -20.9956 H         1 LN5         0.0340
     30 H17         3.3621  -21.0626  -20.6744 H         1 LN5         0.0340
     31 H18         3.2353  -18.1242  -21.5078 H         1 LN5         0.1024
     32 H19         3.9111  -18.9719  -23.6404 H         1 LN5         0.2010
     33 H20         2.4325  -19.5671  -23.2293 H         1 LN5         0.2010
     34 H21         3.7650  -20.5277  -23.1231 H         1 LN5         0.2010
@<TRIPOS>BOND
     1    1    2 1  
     2    2    3 1  
     3    3    4 1  
     4    3    5 1  
     5    5    6 1  
     6    6    7 1  
     7    7    8 1  
     8    8    9 1  
     9    9   10 1  
    10    9   13 1  
    11   10   11 ar 
    12   10   12 ar 
    13    1   14 1  
    14    1   15 1  
    15    1   16 1  
    16    2   17 1  
    17    2   18 1  
    18    3   19 1  
    19    4   20 1  
    20    4   21 1  
    21    4   22 1  
    22    5   23 1  
    23    5   24 1  
    24    6   25 1  
    25    6   26 1  
    26    7   27 1  
    27    7   28 1  
    28    8   29 1  
    29    8   30 1  
    30    9   31 1  
    31   13   32 1  
    32   13   33 1  
    33   13   34 1  
@<TRIPOS>SUBSTRUCTURE
     1 LN5         1

