### 
### Created by X-TOOL on Mon Sep 10 21:13:02 2018
### 

@<TRIPOS>MOLECULE
3i4b_ligand
   54    57     1     0     0
SMALL
GAST_HUCK


@<TRIPOS>ATOM
      1 C1         38.4000   33.0030   52.0490 C.3       1 Z48        -0.0278
      2 C2         38.9580   34.3780   52.0940 C.ar      1 Z48        -0.0087
      3 C3         39.7460   34.7770   51.0680 C.ar      1 Z48         0.0086
      4 N4         40.2290   35.9720   51.0760 N.ar      1 Z48        -0.2674
      5 C5         40.0020   36.8110   52.0320 C.ar      1 Z48         0.1953
      6 N6         40.6060   38.0220   51.8940 N.pl3     1 Z48        -0.2464
      7 C7         40.7210   39.1250   52.7260 C.ar      1 Z48         0.0639
      8 C8         41.1950   40.2830   52.1490 C.ar      1 Z48        -0.0386
      9 C9         41.3600   41.4220   52.8790 C.ar      1 Z48        -0.0716
     10 C10        41.0540   41.4160   54.2080 C.ar      1 Z48        -0.0735
     11 C11        40.5800   40.2710   54.7960 C.ar      1 Z48        -0.0716
     12 C12        40.4160   39.1320   54.0640 C.ar      1 Z48        -0.0386
     13 N13        39.2650   36.4810   53.0390 N.ar      1 Z48        -0.2652
     14 C14        38.7440   35.3020   53.1210 C.ar      1 Z48         0.0362
     15 C15        37.8900   35.1510   54.2880 C.2       1 Z48        -0.0040
     16 C16        37.4650   36.2350   54.9500 C.2       1 Z48         0.0443
     17 N17        36.6760   35.8230   55.9020 N.pl3     1 Z48        -0.2698
     18 C19        36.5470   34.4770   55.8990 C.2       1 Z48         0.1295
     19 C20        37.2980   34.0350   54.8750 C.2       1 Z48        -0.0460
     20 C21        35.7410   33.7050   56.8630 C.2       1 Z48         0.2203
     21 O22        35.2910   32.6460   56.6180 O.2       1 Z48        -0.3910
     22 N23        35.5180   34.2260   58.0590 N.am      1 Z48        -0.2705
     23 C24        34.7490   33.6710   59.1420 C.3       1 Z48         0.0977
     24 C26        34.3460   34.8700   59.9520 C.3       1 Z48         0.0767
     25 O27        33.4180   35.5590   59.1980 O.3       1 Z48        -0.3907
     26 C28        35.5000   32.7840   60.0650 C.ar      1 Z48        -0.0159
     27 C29        34.7950   31.9220   60.8430 C.ar      1 Z48        -0.0581
     28 C30        35.4210   31.1050   61.7080 C.ar      1 Z48        -0.0685
     29 C31        36.7760   31.1540   61.7850 C.ar      1 Z48        -0.0687
     30 C32        37.4840   32.0180   61.0100 C.ar      1 Z48        -0.0685
     31 C33        36.8430   32.8400   60.1420 C.ar      1 Z48        -0.0581
     32 H1         38.7319   32.5026   51.1273 H         1 Z48         0.0387
     33 H2         37.3012   33.0525   52.0641 H         1 Z48         0.0387
     34 H3         38.7535   32.4350   52.9222 H         1 Z48         0.0387
     35 H4         39.9678   34.1005   50.2506 H         1 Z48         0.0805
     36 H5         41.0740   38.1447   50.9847 H         1 Z48         0.2158
     37 H6         41.4416   40.2882   51.0934 H         1 Z48         0.0534
     38 H7         41.7312   42.3247   52.4074 H         1 Z48         0.0587
     39 H8         41.1852   42.3152   54.7990 H         1 Z48         0.0518
     40 H9         40.3336   40.2714   55.8516 H         1 Z48         0.0587
     41 H10        40.0444   38.2315   54.5395 H         1 Z48         0.0534
     42 H11        37.7296   37.2688   54.7330 H         1 Z48         0.0996
     43 H12        36.2077   36.4467   56.5747 H         1 Z48         0.2400
     44 H13        37.4205   32.9988   54.5630 H         1 Z48         0.0403
     45 H14        35.9364   35.1176   58.2322 H         1 Z48         0.1868
     46 H15        33.8757   33.1330   58.7446 H         1 Z48         0.0741
     47 H16        35.2213   35.5058   60.1509 H         1 Z48         0.0603
     48 H17        33.8997   34.5517   60.9057 H         1 Z48         0.0603
     49 H18        32.6709   34.9977   59.0270 H         1 Z48         0.2097
     50 H19        33.7142   31.8925   60.7654 H         1 Z48         0.0557
     51 H20        34.8559   30.4213   62.3311 H         1 Z48         0.0599
     52 H21        37.2984   30.4975   62.4714 H         1 Z48         0.0559
     53 H22        38.5649   32.0501   61.0860 H         1 Z48         0.0599
     54 H23        37.4025   33.5302   59.5210 H         1 Z48         0.0557
@<TRIPOS>BOND
     1    1    2 1  
     2    2    3 ar 
     3    2   14 ar 
     4    3    4 ar 
     5    4    5 ar 
     6    5    6 1  
     7    5   13 ar 
     8    6    7 1  
     9    7    8 ar 
    10    7   12 ar 
    11    8    9 ar 
    12    9   10 ar 
    13   10   11 ar 
    14   11   12 ar 
    15   13   14 ar 
    16   14   15 1  
    17   15   16 2  
    18   15   19 1  
    19   16   17 1  
    20   17   18 1  
    21   18   19 2  
    22   18   20 1  
    23   20   21 2  
    24   20   22 am 
    25   22   23 1  
    26   23   24 1  
    27   23   26 1  
    28   24   25 1  
    29   26   27 ar 
    30   26   31 ar 
    31   27   28 ar 
    32   28   29 ar 
    33   29   30 ar 
    34   30   31 ar 
    35    1   32 1  
    36    1   33 1  
    37    1   34 1  
    38    3   35 1  
    39    6   36 1  
    40    8   37 1  
    41    9   38 1  
    42   10   39 1  
    43   11   40 1  
    44   12   41 1  
    45   16   42 1  
    46   17   43 1  
    47   19   44 1  
    48   22   45 1  
    49   23   46 1  
    50   24   47 1  
    51   24   48 1  
    52   25   49 1  
    53   27   50 1  
    54   28   51 1  
    55   29   52 1  
    56   30   53 1  
    57   31   54 1  
@<TRIPOS>SUBSTRUCTURE
     1 Z48         1

