### 
### Created by X-TOOL on Mon Sep 10 21:13:03 2018
### 

@<TRIPOS>MOLECULE
3i4y_ligand
   14    14     1     0     0
SMALL
GAST_HUCK


@<TRIPOS>ATOM
      1 C1          2.9630   -2.8590   18.8800 C.ar      1 35C         0.1173
      2 C2          3.5640   -1.6650   19.2320 C.ar      1 35C         0.1308
      3 C3          3.0350   -0.8680   20.2370 C.ar      1 35C         0.0602
      4 C4          1.8910   -1.2670   20.8990 C.ar      1 35C        -0.0539
      5 C5          1.3010   -2.4640   20.5310 C.ar      1 35C         0.0204
      6 C6          1.8150   -3.2670   19.5290 C.ar      1 35C        -0.0277
      7 O7          3.4880   -3.6370   17.8990 O.3       1 35C        -0.3369
      8 O8          4.6770   -1.2600   18.5690 O.3       1 35C        -0.3357
      9 CL9         3.8000    0.6870   20.6870 Cl        1 35C        -0.0822
     10 CL10       -0.1770   -2.9770   21.3740 Cl        1 35C        -0.0838
     11 H1          1.4651   -0.6577   21.6879 H         1 35C         0.0508
     12 H2          1.3269   -4.1966   19.2592 H         1 35C         0.0516
     13 H3          4.2702   -3.2235   17.5529 H         1 35C         0.2442
     14 H4          4.9103   -1.9106   17.9172 H         1 35C         0.2449
@<TRIPOS>BOND
     1    1    2 ar 
     2    1    6 ar 
     3    1    7 1  
     4    2    3 ar 
     5    2    8 1  
     6    3    4 ar 
     7    3    9 1  
     8    4    5 ar 
     9    5    6 ar 
    10    5   10 1  
    11    4   11 1  
    12    6   12 1  
    13    7   13 1  
    14    8   14 1  
@<TRIPOS>SUBSTRUCTURE
     1 35C         1

