### 
### Created by X-TOOL on Mon Sep 10 21:13:04 2018
### 

@<TRIPOS>MOLECULE
3i51_ligand
   14    14     1     0     0
SMALL
GAST_HUCK


@<TRIPOS>ATOM
      1 C1          2.9560   -2.5180   18.5610 C.ar      1 45C         0.1171
      2 C2          3.9300   -1.8860   19.2740 C.ar      1 45C         0.1171
      3 C3          3.6510   -1.0860   20.3830 C.ar      1 45C        -0.0272
      4 C4          2.3200   -1.0300   20.7510 C.ar      1 45C         0.0337
      5 C5          1.3260   -1.6600   20.0040 C.ar      1 45C         0.0337
      6 C6          1.6230   -2.4310   18.9110 C.ar      1 45C        -0.0272
      7 O7          3.2780   -3.2430   17.4740 O.3       1 45C        -0.3365
      8 O8          5.1820   -2.0390   18.8190 O.3       1 45C        -0.3365
      9 CL9         1.9660   -0.0300   22.1450 Cl        1 45C        -0.0830
     10 CL10       -0.4070   -1.5600   20.4440 Cl        1 45C        -0.0830
     11 H1          4.4240   -0.5464   20.9182 H         1 45C         0.0515
     12 H2          0.8515   -2.9460   18.3501 H         1 45C         0.0515
     13 H3          4.2192   -3.2201   17.3469 H         1 45C         0.2444
     14 H4          5.1750   -2.6146   18.0632 H         1 45C         0.2444
@<TRIPOS>BOND
     1    1    2 ar 
     2    1    6 ar 
     3    1    7 1  
     4    2    3 ar 
     5    2    8 1  
     6    3    4 ar 
     7    4    5 ar 
     8    4    9 1  
     9    5    6 ar 
    10    5   10 1  
    11    3   11 1  
    12    6   12 1  
    13    7   13 1  
    14    8   14 1  
@<TRIPOS>SUBSTRUCTURE
     1 45C         1

