### 
### Created by X-TOOL on Mon Sep 10 21:13:04 2018
### 

@<TRIPOS>MOLECULE
3i5n_ligand
   46    50     1     0     0
SMALL
GAST_HUCK


@<TRIPOS>ATOM
      1 N1         19.7420   13.7030   56.9300 N.pl3     1 B2D        -0.0975
      2 N3         20.7950   15.6250   56.7240 N.2       1 B2D        -0.2785
      3 C4         19.8090   15.0190   57.3880 C.2       1 B2D         0.1787
      4 C5         17.0950   12.2850   58.8010 C.ar      1 B2D         0.0070
      5 C6         15.9950   12.6990   59.5600 C.ar      1 B2D        -0.0498
      6 C7         15.0780   11.7690   60.0430 C.ar      1 B2D        -0.0592
      7 C8         15.2590   10.4130   59.7710 C.ar      1 B2D        -0.0600
      8 C10        17.2690   10.9250   58.5310 C.ar      1 B2D        -0.0498
      9 C13        22.0310   10.7830   56.8120 C.ar      1 B2D         0.0851
     10 C15        24.2690   10.9030   57.7070 C.ar      1 B2D        -0.0098
     11 C17        21.8100    9.6880   57.6450 C.ar      1 B2D         0.0899
     12 C20        20.3620    8.0410   58.4140 C.ar      1 B2D         0.0474
     13 C21        21.9440    5.9680   61.0100 C.3       1 B2D         0.0617
     14 O1         20.9740    6.4450   60.0500 O.3       1 B2D        -0.3118
     15 C19        21.3270    7.5260   59.2800 C.ar      1 B2D         0.1230
     16 C18        22.5870    8.1330   59.3180 C.ar      1 B2D        -0.0009
     17 N7         20.6130    9.0800   57.6350 N.ar      1 B2D        -0.2889
     18 C16        22.8320    9.2290   58.4850 C.ar      1 B2D         0.0458
     19 N6         24.0280    9.8520   58.4900 N.ar      1 B2D        -0.3189
     20 C14        23.2870   11.3940   56.8420 C.ar      1 B2D        -0.0154
     21 N5         21.0340   11.1950   56.0110 N.pl3     1 B2D        -0.2902
     22 C12        21.1030   12.3970   55.1610 C.3       1 B2D         0.1118
     23 C11        20.7620   13.6490   55.9760 C.2       1 B2D         0.1935
     24 N2         18.9140   12.8890   57.3670 N.2       1 B2D        -0.1323
     25 N4         21.3370   14.8530   55.9210 N.2       1 B2D        -0.2664
     26 C3         18.9250   15.4470   58.3700 C.2       1 B2D         0.0064
     27 C2         18.0070   14.5210   58.8470 C.2       1 B2D        -0.0172
     28 C1         18.0140   13.2240   58.3220 C.2       1 B2D         0.0967
     29 C9         16.3540    9.9920   59.0150 C.ar      1 B2D        -0.0592
     30 H1         15.8554   13.7525   59.7739 H         1 B2D         0.0641
     31 H2         14.2267   12.0976   60.6282 H         1 B2D         0.0622
     32 H3         14.5487    9.6856   60.1471 H         1 B2D         0.0632
     33 H4         18.1180   10.5949   57.9435 H         1 B2D         0.0641
     34 H5         25.2400   11.3838   57.7414 H         1 B2D         0.0814
     35 H6         19.3824    7.5782   58.3787 H         1 B2D         0.0827
     36 H7         21.5298    5.1049   61.5518 H         1 B2D         0.0581
     37 H8         22.1786    6.7710   61.7242 H         1 B2D         0.0581
     38 H9         22.8616    5.6650   60.4845 H         1 B2D         0.0581
     39 H10        23.3593    7.7604   59.9812 H         1 B2D         0.0633
     40 H11        23.4981   12.2415   56.2000 H         1 B2D         0.0546
     41 H12        20.1687   10.6367   55.9897 H         1 B2D         0.1886
     42 H13        20.3855   12.2971   54.3333 H         1 B2D         0.0759
     43 H14        22.1204   12.4954   54.7545 H         1 B2D         0.0759
     44 H15        18.9508   16.4671   58.7503 H         1 B2D         0.0749
     45 H16        17.2915   14.8002   59.6190 H         1 B2D         0.0717
     46 H17        16.4929    8.9378   58.8040 H         1 B2D         0.0622
@<TRIPOS>BOND
     1    1    3 1  
     2    1   23 1  
     3   24    1 1  
     4    3    2 2  
     5   25    2 1  
     6    3   26 1  
     7    4    5 ar 
     8    4    8 ar 
     9   28    4 1  
    10    5    6 ar 
    11    6    7 ar 
    12   29    7 ar 
    13    8   29 ar 
    14    9   11 ar 
    15    9   20 ar 
    16   21    9 1  
    17   10   19 ar 
    18   20   10 ar 
    19   11   17 ar 
    20   11   18 ar 
    21   12   15 ar 
    22   17   12 ar 
    23   14   13 1  
    24   15   14 1  
    25   16   15 ar 
    26   18   16 ar 
    27   18   19 ar 
    28   22   21 1  
    29   23   22 1  
    30   23   25 2  
    31   24   28 2  
    32   26   27 2  
    33   27   28 1  
    34    5   30 1  
    35    6   31 1  
    36    7   32 1  
    37    8   33 1  
    38   10   34 1  
    39   12   35 1  
    40   13   36 1  
    41   13   37 1  
    42   13   38 1  
    43   16   39 1  
    44   20   40 1  
    45   21   41 1  
    46   22   42 1  
    47   22   43 1  
    48   26   44 1  
    49   27   45 1  
    50   29   46 1  
@<TRIPOS>SUBSTRUCTURE
     1 B2D         1

