### 
### Created by X-TOOL on Mon Sep 10 21:13:04 2018
### 

@<TRIPOS>MOLECULE
3i5z_ligand
   54    57     1     0     0
SMALL
GAST_HUCK


@<TRIPOS>ATOM
      1 C1          7.6000   -0.5660   47.8710 C.3       1 Z48        -0.0278
      2 C2          6.4970   -0.9340   46.9140 C.ar      1 Z48        -0.0087
      3 C3          5.2170   -0.4830   47.1830 C.ar      1 Z48         0.0086
      4 N4          4.2290   -0.7780   46.3510 N.ar      1 Z48        -0.2674
      5 C5          4.4240   -1.5120   45.2620 C.ar      1 Z48         0.1953
      6 N6          3.3250   -1.7810   44.4450 N.pl3     1 Z48        -0.2464
      7 C7          3.2600   -2.6250   43.3230 C.ar      1 Z48         0.0639
      8 C8          4.3020   -2.7290   42.3980 C.ar      1 Z48        -0.0386
      9 C9          4.1910   -3.5720   41.3000 C.ar      1 Z48        -0.0716
     10 C10         3.0250   -4.3150   41.1270 C.ar      1 Z48        -0.0735
     11 C11         1.9810   -4.2200   42.0400 C.ar      1 Z48        -0.0716
     12 C12         2.1010   -3.3730   43.1300 C.ar      1 Z48        -0.0386
     13 N13         5.6330   -1.9500   44.9650 N.ar      1 Z48        -0.2652
     14 C14         6.6930   -1.7050   45.7420 C.ar      1 Z48         0.0362
     15 C15         8.0090   -2.2350   45.2820 C.2       1 Z48        -0.0040
     16 C16         8.2430   -2.6300   43.9890 C.2       1 Z48         0.0443
     17 N17         9.5180   -3.0280   43.8690 N.pl3     1 Z48        -0.2698
     18 C19        10.1390   -2.9050   45.0850 C.2       1 Z48         0.1295
     19 C20         9.2320   -2.4000   45.9790 C.2       1 Z48        -0.0460
     20 C21        11.5590   -3.2390   45.2780 C.2       1 Z48         0.2203
     21 O22        12.2200   -2.6840   46.1480 O.2       1 Z48        -0.3910
     22 N23        12.0930   -4.1480   44.4260 N.am      1 Z48        -0.2705
     23 C24        13.5080   -4.5580   44.4270 C.3       1 Z48         0.0977
     24 C26        13.8610   -4.9560   42.9810 C.3       1 Z48         0.0767
     25 O27        13.4680   -3.9030   42.0760 O.3       1 Z48        -0.3907
     26 C28        13.8150   -5.6820   45.3890 C.ar      1 Z48        -0.0159
     27 C29        12.8010   -6.4900   45.9010 C.ar      1 Z48        -0.0581
     28 C30        13.1140   -7.5170   46.7740 C.ar      1 Z48        -0.0685
     29 C31        14.4320   -7.7380   47.1450 C.ar      1 Z48        -0.0687
     30 C32        15.4390   -6.9350   46.6380 C.ar      1 Z48        -0.0685
     31 C33        15.1350   -5.9040   45.7600 C.ar      1 Z48        -0.0581
     32 H1          7.1856    0.0334   48.6950 H         1 Z48         0.0387
     33 H2          8.3655    0.0195   47.3407 H         1 Z48         0.0387
     34 H3          8.0545   -1.4820   48.2764 H         1 Z48         0.0387
     35 H4          5.0234    0.1089   48.0703 H         1 Z48         0.0805
     36 H5          2.4498   -1.2996   44.6963 H         1 Z48         0.2158
     37 H6          5.2052   -2.1464   42.5387 H         1 Z48         0.0534
     38 H7          5.0024   -3.6511   40.5855 H         1 Z48         0.0587
     39 H8          2.9310   -4.9740   40.2715 H         1 Z48         0.0518
     40 H9          1.0790   -4.8047   41.9001 H         1 Z48         0.0587
     41 H10         1.2852   -3.2917   43.8392 H         1 Z48         0.0534
     42 H11         7.5080   -2.6216   43.1855 H         1 Z48         0.0996
     43 H12         9.9592   -3.3705   43.0036 H         1 Z48         0.2400
     44 H13         9.4160   -2.1690   47.0272 H         1 Z48         0.0403
     45 H14        11.4859   -4.5684   43.7517 H         1 Z48         0.1868
     46 H15        14.1206   -3.6925   44.7195 H         1 Z48         0.0741
     47 H16        13.3296   -5.8822   42.7168 H         1 Z48         0.0603
     48 H17        14.9458   -5.1202   42.9016 H         1 Z48         0.0603
     49 H18        12.5311   -3.7617   42.1442 H         1 Z48         0.2097
     50 H19        11.7700   -6.3143   45.6160 H         1 Z48         0.0557
     51 H20        12.3275   -8.1500   47.1687 H         1 Z48         0.0599
     52 H21        14.6737   -8.5403   47.8327 H         1 Z48         0.0559
     53 H22        16.4685   -7.1120   46.9277 H         1 Z48         0.0599
     54 H23        15.9245   -5.2746   45.3654 H         1 Z48         0.0557
@<TRIPOS>BOND
     1    1    2 1  
     2    2    3 ar 
     3    2   14 ar 
     4    3    4 ar 
     5    4    5 ar 
     6    5    6 1  
     7    5   13 ar 
     8    6    7 1  
     9    7    8 ar 
    10    7   12 ar 
    11    8    9 ar 
    12    9   10 ar 
    13   10   11 ar 
    14   11   12 ar 
    15   13   14 ar 
    16   14   15 1  
    17   15   16 2  
    18   15   19 1  
    19   16   17 1  
    20   17   18 1  
    21   18   19 2  
    22   18   20 1  
    23   20   21 2  
    24   20   22 am 
    25   22   23 1  
    26   23   24 1  
    27   23   26 1  
    28   24   25 1  
    29   26   27 ar 
    30   26   31 ar 
    31   27   28 ar 
    32   28   29 ar 
    33   29   30 ar 
    34   30   31 ar 
    35    1   32 1  
    36    1   33 1  
    37    1   34 1  
    38    3   35 1  
    39    6   36 1  
    40    8   37 1  
    41    9   38 1  
    42   10   39 1  
    43   11   40 1  
    44   12   41 1  
    45   16   42 1  
    46   17   43 1  
    47   19   44 1  
    48   22   45 1  
    49   23   46 1  
    50   24   47 1  
    51   24   48 1  
    52   25   49 1  
    53   27   50 1  
    54   28   51 1  
    55   29   52 1  
    56   30   53 1  
    57   31   54 1  
@<TRIPOS>SUBSTRUCTURE
     1 Z48         1

