### 
### Created by X-TOOL on Mon Sep 10 21:13:04 2018
### 

@<TRIPOS>MOLECULE
3i60_ligand
   54    57     1     0     0
SMALL
GAST_HUCK


@<TRIPOS>ATOM
      1 C1          7.0410   -0.6920   47.4130 C.3       1 E86        -0.0278
      2 C2          5.9310   -1.1330   46.4940 C.ar      1 E86        -0.0086
      3 C3          4.6510   -0.6730   46.7690 C.ar      1 E86         0.0086
      4 N4          3.6330   -1.0390   45.9970 N.ar      1 E86        -0.2673
      5 C5          3.8310   -1.8330   44.9620 C.ar      1 E86         0.1956
      6 N6          2.7540   -2.1640   44.1740 N.pl3     1 E86        -0.2456
      7 C7          2.8520   -2.9310   43.0000 C.ar      1 E86         0.0780
      8 C8          3.8770   -2.7500   42.0660 C.ar      1 E86        -0.0379
      9 C9          3.9140   -3.5340   40.9260 C.ar      1 E86        -0.0714
     10 C10         2.9260   -4.4890   40.6920 C.ar      1 E86        -0.0730
     11 C11         1.8950   -4.6610   41.6030 C.ar      1 E86        -0.0576
     12 C12         1.8620   -3.8810   42.7510 C.ar      1 E86         0.0623
     13 CL13        0.5960   -4.0790   43.9120 Cl        1 E86        -0.0796
     14 N14         5.0320   -2.2850   44.6570 N.ar      1 E86        -0.2652
     15 C15         6.1070   -1.9940   45.3900 C.ar      1 E86         0.0363
     16 C16         7.4120   -2.5310   44.9300 C.2       1 E86        -0.0040
     17 C17         7.6370   -3.0000   43.6490 C.2       1 E86         0.0443
     18 N18         8.9330   -3.3750   43.5510 N.pl3     1 E86        -0.2698
     19 C20         9.5560   -3.1650   44.7570 C.2       1 E86         0.1295
     20 C21         8.6420   -2.6200   45.6260 C.2       1 E86        -0.0460
     21 C22        10.9690   -3.4540   44.9920 C.2       1 E86         0.2203
     22 O23        11.6000   -2.7650   45.7830 O.2       1 E86        -0.3910
     23 N24        11.5670   -4.4470   44.2960 N.am      1 E86        -0.2705
     24 C25        13.0060   -4.7450   44.4460 C.3       1 E86         0.0977
     25 C27        13.5200   -5.1550   43.0600 C.3       1 E86         0.0767
     26 O28        13.0100   -4.2790   42.0450 O.3       1 E86        -0.3907
     27 C29        13.3300   -5.8530   45.4230 C.ar      1 E86        -0.0159
     28 C30        12.3250   -6.6200   45.9940 C.ar      1 E86        -0.0581
     29 C31        12.6550   -7.6210   46.8900 C.ar      1 E86        -0.0685
     30 C32        13.9840   -7.8650   47.2030 C.ar      1 E86        -0.0687
     31 C33        14.9990   -7.1120   46.6320 C.ar      1 E86        -0.0685
     32 C34        14.6620   -6.1010   45.7440 C.ar      1 E86        -0.0581
     33 H1          6.6330   -0.0257   48.1873 H         1 E86         0.0387
     34 H2          7.8057   -0.1548   46.8329 H         1 E86         0.0387
     35 H3          7.4944   -1.5736   47.8897 H         1 E86         0.0387
     36 H4          4.4814   -0.0150   47.6136 H         1 E86         0.0805
     37 H5          1.8223   -1.8310   44.4602 H         1 E86         0.2162
     38 H6          4.6398   -1.9984   42.2343 H         1 E86         0.0534
     39 H7          4.7173   -3.4044   40.2098 H         1 E86         0.0589
     40 H8          2.9638   -5.0983   39.7962 H         1 E86         0.0518
     41 H9          1.1214   -5.3981   41.4204 H         1 E86         0.0593
     42 H10         6.8959   -3.0578   42.8532 H         1 E86         0.0996
     43 H11         9.3814   -3.7573   42.7062 H         1 E86         0.2400
     44 H12         8.8281   -2.3145   46.6546 H         1 E86         0.0403
     45 H13        11.0203   -4.9945   43.6625 H         1 E86         0.1868
     46 H14        13.5194   -3.8312   44.7799 H         1 E86         0.0741
     47 H15        13.1944   -6.1834   42.8449 H         1 E86         0.0603
     48 H16        14.6191   -5.1098   43.0556 H         1 E86         0.0603
     49 H17        13.2917   -3.3897   42.2250 H         1 E86         0.2097
     50 H18        11.2874   -6.4361   45.7396 H         1 E86         0.0557
     51 H19        11.8733   -8.2159   47.3484 H         1 E86         0.0599
     52 H20        14.2325   -8.6545   47.9030 H         1 E86         0.0559
     53 H21        16.0367   -7.3098   46.8752 H         1 E86         0.0599
     54 H22        15.4433   -5.4981   45.2956 H         1 E86         0.0557
@<TRIPOS>BOND
     1    1    2 1  
     2    2    3 ar 
     3    2   15 ar 
     4    3    4 ar 
     5    4    5 ar 
     6    5    6 1  
     7    5   14 ar 
     8    6    7 1  
     9    7    8 ar 
    10    7   12 ar 
    11    8    9 ar 
    12    9   10 ar 
    13   10   11 ar 
    14   11   12 ar 
    15   12   13 1  
    16   14   15 ar 
    17   15   16 1  
    18   16   17 2  
    19   16   20 1  
    20   17   18 1  
    21   18   19 1  
    22   19   20 2  
    23   19   21 1  
    24   21   22 2  
    25   21   23 am 
    26   23   24 1  
    27   24   25 1  
    28   24   27 1  
    29   25   26 1  
    30   27   28 ar 
    31   27   32 ar 
    32   28   29 ar 
    33   29   30 ar 
    34   30   31 ar 
    35   31   32 ar 
    36    1   33 1  
    37    1   34 1  
    38    1   35 1  
    39    3   36 1  
    40    6   37 1  
    41    8   38 1  
    42    9   39 1  
    43   10   40 1  
    44   11   41 1  
    45   17   42 1  
    46   18   43 1  
    47   20   44 1  
    48   23   45 1  
    49   24   46 1  
    50   25   47 1  
    51   25   48 1  
    52   26   49 1  
    53   28   50 1  
    54   29   51 1  
    55   30   52 1  
    56   31   53 1  
    57   32   54 1  
@<TRIPOS>SUBSTRUCTURE
     1 E86         1

