### 
### Created by X-TOOL on Mon Sep 10 21:13:02 2018
### 

@<TRIPOS>MOLECULE
3i6c_ligand
   40    42     1     0     0
SMALL
GAST_HUCK


@<TRIPOS>ATOM
      1 F1         18.4940  -12.3540   10.9830 F         1 GIA        -0.1853
      2 C1         19.1940  -11.9510   12.0720 C.ar      1 GIA         0.1258
      3 C2         18.5530  -12.0360   13.2970 C.ar      1 GIA        -0.0352
      4 C3         19.2250  -11.5890   14.4330 C.ar      1 GIA        -0.0704
      5 C4         20.4280  -10.9350   14.2960 C.ar      1 GIA        -0.0642
      6 C5         21.0130  -10.7390   13.0400 C.ar      1 GIA        -0.0411
      7 C6         20.3400  -11.1990   11.9060 C.ar      1 GIA        -0.0268
      8 C7         22.2990   -9.9390   12.8250 C.3       1 GIA         0.0150
      9 C8         22.0010   -8.5030   12.4350 C.3       1 GIA         0.1034
     10 C9         21.0200   -7.8400   13.3790 C.2       1 GIA         0.0621
     11 O10        21.3380   -7.5600   14.4910 O.co2     1 GIA        -0.5664
     12 O11        19.7940   -7.6230   12.9050 O.co2     1 GIA        -0.5664
     13 N12        21.4250   -8.3450   11.0860 N.am      1 GIA        -0.2690
     14 C13        22.2310   -8.5070   10.0070 C.2       1 GIA         0.2065
     15 O14        23.3920   -8.8720   10.1930 O.2       1 GIA        -0.3848
     16 C15        21.7050   -8.2470    8.6530 C.ar      1 GIA         0.0504
     17 C16        20.6820   -7.3430    8.4730 C.ar      1 GIA        -0.0329
     18 C17        20.2540   -7.0600    7.1650 C.ar      1 GIA        -0.0116
     19 C18        20.8480   -7.6680    6.0330 C.ar      1 GIA        -0.0152
     20 C19        21.9480   -8.5240    6.2350 C.ar      1 GIA        -0.0509
     21 C20        22.3150   -8.8300    7.5180 C.ar      1 GIA        -0.0432
     22 C21        19.2170   -6.1180    6.9660 C.ar      1 GIA        -0.0517
     23 C22        18.8470   -5.7740    5.6860 C.ar      1 GIA        -0.0596
     24 C23        19.4100   -6.4230    4.5840 C.ar      1 GIA        -0.0598
     25 C24        20.4060   -7.3400    4.7510 C.ar      1 GIA        -0.0524
     26 H          17.5448  -12.4437   13.3708 H         1 GIA         0.0546
     27 H          18.8008  -11.7562   15.4230 H         1 GIA         0.0589
     28 H          20.9362  -10.5616   15.1850 H         1 GIA         0.0523
     29 H          20.7127  -10.9685   10.9080 H         1 GIA         0.0542
     30 H          22.8656  -10.4055   12.0191 H         1 GIA         0.0466
     31 H          22.8628   -9.9339   13.7578 H         1 GIA         0.0466
     32 H          22.9843   -8.0343   12.4747 H         1 GIA         0.0749
     33 H          20.4378   -8.1179   10.9667 H         1 GIA         0.1870
     34 H          20.2134   -6.8565    9.3285 H         1 GIA         0.0695
     35 H          22.4961   -8.9346    5.3870 H         1 GIA         0.0627
     36 H          23.1135   -9.5558    7.6717 H         1 GIA         0.0652
     37 H          18.7142   -5.6674    7.8217 H         1 GIA         0.0636
     38 H          18.1080   -4.9881    5.5303 H         1 GIA         0.0622
     39 H          19.0497   -6.1943    3.5810 H         1 GIA         0.0630
     40 H          20.8574   -7.8174    3.8812 H         1 GIA         0.0626
@<TRIPOS>BOND
     1    1    2 1  
     2    2    3 ar 
     3    2    7 ar 
     4    3    4 ar 
     5    4    5 ar 
     6    5    6 ar 
     7    6    7 ar 
     8    6    8 1  
     9    8    9 1  
    10    9   10 1  
    11    9   13 1  
    12   10   11 ar 
    13   10   12 ar 
    14   13   14 am 
    15   14   15 2  
    16   14   16 1  
    17   16   17 ar 
    18   16   21 ar 
    19   17   18 ar 
    20   18   19 ar 
    21   18   22 ar 
    22   19   20 ar 
    23   19   25 ar 
    24   20   21 ar 
    25   22   23 ar 
    26   23   24 ar 
    27   24   25 ar 
    28    3   26 1  
    29    4   27 1  
    30    5   28 1  
    31    7   29 1  
    32    8   30 1  
    33    8   31 1  
    34    9   32 1  
    35   13   33 1  
    36   17   34 1  
    37   20   35 1  
    38   21   36 1  
    39   22   37 1  
    40   23   38 1  
    41   24   39 1  
    42   25   40 1  
@<TRIPOS>SUBSTRUCTURE
     1 GIA         1

