### 
### Created by X-TOOL on Mon Sep 10 21:13:02 2018
### 

@<TRIPOS>MOLECULE
3i6m_ligand
   65    69     1     0     0
SMALL
GAST_HUCK


@<TRIPOS>ATOM
      1 C1          2.5760   68.0970   63.2320 C.2       1 G3X        -0.1096
      2 C2          2.7350   68.5370   61.9470 C.2       1 G3X        -0.0102
      3 C3          4.1020   68.5730   61.2700 C.3       1 G3X         0.1204
      4 C4          5.1840   68.8450   62.3430 C.3       1 G3X         0.0132
      5 O5          5.4180   66.4380   62.9160 O.3       1 G3X        -0.3207
      6 C6          4.7220   64.1510   63.7200 C.ar      1 G3X         0.1316
      7 C7          3.7750   63.4550   64.5180 C.ar      1 G3X        -0.0294
      8 C8          2.7550   64.1640   65.1940 C.ar      1 G3X        -0.0558
      9 C9          1.4690   66.2790   65.7830 C.3       1 G3X         0.0030
     10 N10         1.8830   67.3520   66.7520 N.4       1 G3X         0.2480
     11 C11         2.3970   68.6250   66.1400 C.3       1 G3X        -0.0446
     12 C12         3.7720   68.4980   65.4610 C.3       1 G3X        -0.0567
     13 C13         4.6330   65.5580   63.6060 C.ar      1 G3X         0.1256
     14 C14         3.6240   66.2330   64.2900 C.ar      1 G3X        -0.0540
     15 C15         2.6630   65.5720   65.0880 C.ar      1 G3X        -0.0085
     16 C16         5.4870   62.1210   62.7380 C.3       1 G3X         0.0557
     17 O17         5.7690   63.4940   63.0770 O.3       1 G3X        -0.3249
     18 O18         4.3090   67.3090   60.6060 O.3       1 G3X        -0.3629
     19 C19         0.7920   67.6620   67.7080 C.3       1 G3X        -0.0254
     20 C20         0.6320   66.6180   68.8170 C.3       1 G3X         0.0277
     21 C21         1.8410   66.5920   69.7480 C.3       1 G3X        -0.0270
     22 N22         2.9890   65.9680   69.0730 N.4       1 G3X         0.2354
     23 C23         3.1530   64.5320   69.4200 C.3       1 G3X        -0.0319
     24 C24         4.2150   63.9100   68.5060 C.3       1 G3X        -0.0123
     25 C25         5.5220   64.7140   68.5980 C.3       1 G3X        -0.0434
     26 C26         5.2840   66.1830   68.2300 C.3       1 G3X        -0.0123
     27 C27         4.2200   66.7890   69.1470 C.3       1 G3X        -0.0319
     28 C41         5.1390   67.7630   63.4890 C.3       1 G3X         0.0474
     29 C42         3.7170   67.6190   64.1980 C.3       1 G3X        -0.0342
     30 H1          1.5597   68.0763   63.6227 H         1 G3X         0.0348
     31 H2          1.8606   68.8714   61.3907 H         1 G3X         0.1347
     32 H3          4.1263   69.3807   60.5237 H         1 G3X         0.0969
     33 H4          5.0118   69.8389   62.7817 H         1 G3X         0.0354
     34 H5          6.1752   68.8212   61.8665 H         1 G3X         0.0354
     35 H6          3.8344   62.3765   64.6091 H         1 G3X         0.0642
     36 H7          2.0365   63.6234   65.7994 H         1 G3X         0.0492
     37 H8          0.8370   66.7363   65.0075 H         1 G3X         0.1005
     38 H9          0.8880   65.5221   66.3303 H         1 G3X         0.1005
     39 H10         2.6464   66.9659   67.2851 H         1 G3X         0.2050
     40 H11         2.4752   69.3811   66.9351 H         1 G3X         0.0800
     41 H12         1.6709   68.9606   65.3849 H         1 G3X         0.0800
     42 H13         4.4794   68.0498   66.1742 H         1 G3X         0.0132
     43 H14         4.1222   69.5019   65.1791 H         1 G3X         0.0132
     44 H15         6.3613   61.6801   62.2367 H         1 G3X         0.0570
     45 H16         4.6188   62.0806   62.0638 H         1 G3X         0.0570
     46 H17         5.2660   61.5549   63.6549 H         1 G3X         0.0570
     47 H18         4.2773   66.6075   61.2458 H         1 G3X         0.2168
     48 H19        -0.1533   67.7226   67.1488 H         1 G3X         0.0816
     49 H20         1.0050   68.6350   68.1748 H         1 G3X         0.0816
     50 H21         0.5147   65.6254   68.3577 H         1 G3X         0.0369
     51 H22        -0.2657   66.8581   69.4056 H         1 G3X         0.0369
     52 H23         1.5923   66.0143   70.6504 H         1 G3X         0.0816
     53 H24         2.1027   67.6218   70.0324 H         1 G3X         0.0816
     54 H25         2.7465   65.9651   68.0946 H         1 G3X         0.2033
     55 H26         2.1957   64.0083   69.2809 H         1 G3X         0.0814
     56 H27         3.4717   64.4411   70.4689 H         1 G3X         0.0814
     57 H28         3.8532   63.9202   67.4673 H         1 G3X         0.0317
     58 H29         4.4027   62.8723   68.8188 H         1 G3X         0.0317
     59 H30         6.2598   64.2836   67.9050 H         1 G3X         0.0269
     60 H31         5.9084   64.6579   69.6263 H         1 G3X         0.0269
     61 H32         4.9431   66.2459   67.1861 H         1 G3X         0.0317
     62 H33         6.2238   66.7433   68.3433 H         1 G3X         0.0317
     63 H34         4.5913   66.8031   70.1823 H         1 G3X         0.0814
     64 H35         3.9972   67.8164   68.8233 H         1 G3X         0.0814
     65 H36         5.8971   68.0209   64.2431 H         1 G3X         0.0473
@<TRIPOS>BOND
     1    2    1 2  
     2    1   29 1  
     3    3    2 1  
     4    4    3 1  
     5    3   18 1  
     6   28    4 1  
     7   13    5 1  
     8    5   28 1  
     9    7    6 ar 
    10    6   13 ar 
    11    6   17 1  
    12    8    7 ar 
    13   15    8 ar 
    14    9   10 1  
    15    9   15 1  
    16   10   11 1  
    17   10   19 1  
    18   11   12 1  
    19   12   29 1  
    20   13   14 ar 
    21   14   15 ar 
    22   14   29 1  
    23   17   16 1  
    24   19   20 1  
    25   20   21 1  
    26   21   22 1  
    27   22   23 1  
    28   22   27 1  
    29   23   24 1  
    30   24   25 1  
    31   25   26 1  
    32   26   27 1  
    33   28   29 1  
    34    1   30 1  
    35    2   31 1  
    36    3   32 1  
    37    4   33 1  
    38    4   34 1  
    39    7   35 1  
    40    8   36 1  
    41    9   37 1  
    42    9   38 1  
    43   10   39 1  
    44   11   40 1  
    45   11   41 1  
    46   12   42 1  
    47   12   43 1  
    48   16   44 1  
    49   16   45 1  
    50   16   46 1  
    51   18   47 1  
    52   19   48 1  
    53   19   49 1  
    54   20   50 1  
    55   20   51 1  
    56   21   52 1  
    57   21   53 1  
    58   22   54 1  
    59   23   55 1  
    60   23   56 1  
    61   24   57 1  
    62   24   58 1  
    63   25   59 1  
    64   25   60 1  
    65   26   61 1  
    66   26   62 1  
    67   27   63 1  
    68   27   64 1  
    69   28   65 1  
@<TRIPOS>SUBSTRUCTURE
     1 G3X         1

