### 
### Created by X-TOOL on Mon Sep 10 21:12:59 2018
### 

@<TRIPOS>MOLECULE
3i6o_ligand
   86    90     1     0     0
SMALL
GAST_HUCK


@<TRIPOS>ATOM
      1 C1         12.2980  -24.8740   -3.0270 C.ar      1 GR6         0.0822
      2 C2         12.2880  -24.6470   -4.3990 C.ar      1 GR6        -0.0036
      3 C3         13.3080  -23.8730   -4.9640 C.ar      1 GR6         0.1090
      4 C4         14.3120  -23.3440   -4.1530 C.ar      1 GR6         0.1252
      5 C5         14.3090  -23.5820   -2.7740 C.ar      1 GR6        -0.0524
      6 C6         13.3060  -24.3430   -2.2120 C.ar      1 GR6        -0.0424
      7 S7         15.7530  -22.4820   -4.7990 S.o2      1 GR6         0.0639
      8 O8         16.6680  -22.3720   -3.6950 O.2       1 GR6        -0.1531
      9 O9         16.1650  -23.1850   -6.0180 O.2       1 GR6        -0.1531
     10 N10        15.3190  -20.9300   -5.2780 N.am      1 GR6        -0.2340
     11 C11        14.7970  -20.7160   -6.6240 C.3       1 GR6         0.0296
     12 C12        15.8950  -20.5540   -7.6900 C.3       1 GR6        -0.0343
     13 C13        15.3940  -19.9670   -9.0280 C.3       1 GR6        -0.0450
     14 C14        14.4310  -20.8270   -9.8590 C.3       1 GR6        -0.0364
     15 C15        15.1890  -19.9300   -4.2080 C.3       1 GR6         0.0576
     16 C16        16.1710  -18.7890   -4.5560 C.3       1 GR6         0.0967
     17 O17        15.7850  -17.6530   -3.7710 O.3       1 GR6        -0.3877
     18 C18        17.6510  -19.1450   -4.3330 C.3       1 GR6         0.0807
     19 N19        18.4780  -18.0470   -4.8860 N.am      1 GR6        -0.2550
     20 C20        19.1830  -18.2540   -6.0300 C.2       1 GR6         0.3203
     21 O21        19.3370  -19.3000   -6.6390 O.2       1 GR6        -0.3775
     22 O22        19.7110  -17.0650   -6.4030 O.3       1 GR6        -0.2578
     23 C23        20.7190  -17.0650   -7.4440 C.3       1 GR6         0.1189
     24 C24        20.4390  -15.7750   -8.2300 C.3       1 GR6         0.0815
     25 O25        20.9550  -14.7120   -7.4440 O.3       1 GR6        -0.3480
     26 C26        22.1180  -15.1590   -6.7360 C.3       1 GR6         0.1648
     27 O27        21.9890  -14.8090   -5.3870 O.3       1 GR6        -0.3509
     28 C28        21.7960  -15.9580   -4.5390 C.3       1 GR6         0.0512
     29 C29        22.3320  -17.1240   -5.3550 C.3       1 GR6        -0.0191
     30 C30        22.1000  -16.7070   -6.8250 C.3       1 GR6         0.0449
     31 C31        17.9910  -19.2580   -2.8050 C.3       1 GR6         0.0064
     32 C32        20.2950  -18.4630   -2.1380 C.ar      1 GR6        -0.0603
     33 C33        21.6730  -18.6280   -2.0280 C.ar      1 GR6        -0.0686
     34 C34        22.2450  -19.8270   -2.4900 C.ar      1 GR6        -0.0687
     35 C35        21.4550  -20.8390   -3.0510 C.ar      1 GR6        -0.0686
     36 C36        20.0820  -20.6600   -3.1540 C.ar      1 GR6        -0.0603
     37 C37        19.4930  -19.4690   -2.6970 C.ar      1 GR6        -0.0408
     38 O38        11.3380  -25.6150   -2.4170 O.3       1 GR6        -0.3240
     39 C39        10.5340  -26.4300   -3.2670 C.3       1 GR6         0.0591
     40 O40        13.3490  -23.6150   -6.3180 O.3       1 GR6        -0.3170
     41 C41        12.2820  -24.1260   -7.1400 C.3       1 GR6         0.0766
     42 C42        12.5580  -23.9800   -8.6270 C.3       1 GR6        -0.0085
     43 C43        12.8540  -22.5590   -9.0040 C.2       1 GR6        -0.0961
     44 C44        14.0780  -22.2260   -9.4680 C.2       1 GR6        -0.0986
     45 H1         11.5032  -25.0627   -5.0205 H         1 GR6         0.0462
     46 H2         15.0930  -23.1692   -2.1495 H         1 GR6         0.0581
     47 H3         13.2975  -24.5296   -1.1442 H         1 GR6         0.0451
     48 H4         14.1809  -19.8048   -6.6177 H         1 GR6         0.0478
     49 H5         14.1721  -21.5793   -6.8964 H         1 GR6         0.0478
     50 H6         16.3317  -21.5437   -7.8891 H         1 GR6         0.0282
     51 H7         16.6704  -19.8851   -7.2883 H         1 GR6         0.0282
     52 H8         16.2775  -19.7647   -9.6513 H         1 GR6         0.0285
     53 H9         14.8803  -19.0210   -8.8018 H         1 GR6         0.0285
     54 H10        14.8666  -20.8900  -10.8671 H         1 GR6         0.0388
     55 H11        13.4826  -20.2715   -9.9034 H         1 GR6         0.0388
     56 H12        15.4518  -20.3752   -3.2371 H         1 GR6         0.0504
     57 H13        14.1588  -19.5465   -4.1687 H         1 GR6         0.0504
     58 H14        16.0489  -18.5423   -5.6210 H         1 GR6         0.0634
     59 H15        15.8384  -17.8740   -2.8485 H         1 GR6         0.2100
     60 H16        17.8832  -20.0942   -4.8380 H         1 GR6         0.0604
     61 H17        18.5173  -17.1620   -4.4222 H         1 GR6         0.1873
     62 H18        20.7229  -17.9871   -8.0437 H         1 GR6         0.0675
     63 H19        19.3568  -15.6474   -8.3803 H         1 GR6         0.0590
     64 H20        20.9437  -15.8066   -9.2069 H         1 GR6         0.0590
     65 H21        23.0380  -14.7379   -7.1676 H         1 GR6         0.0913
     66 H22        20.7290  -16.0996   -4.3121 H         1 GR6         0.0561
     67 H23        22.3591  -15.8482   -3.6005 H         1 GR6         0.0561
     68 H24        21.7818  -18.0474   -5.1214 H         1 GR6         0.0293
     69 H25        23.4036  -17.2760   -5.1585 H         1 GR6         0.0293
     70 H26        22.9041  -17.1029   -7.4627 H         1 GR6         0.0380
     71 H27        17.4571  -20.1113   -2.3615 H         1 GR6         0.0449
     72 H28        17.7013  -18.3334   -2.2843 H         1 GR6         0.0449
     73 H29        19.8361  -17.5457   -1.7873 H         1 GR6         0.0557
     74 H30        22.2914  -17.8496   -1.5958 H         1 GR6         0.0599
     75 H31        23.3165  -19.9707   -2.4106 H         1 GR6         0.0559
     76 H32        21.9131  -21.7564   -3.4026 H         1 GR6         0.0599
     77 H33        19.4647  -21.4388   -3.5868 H         1 GR6         0.0557
     78 H34         9.7981  -26.9782   -2.6604 H         1 GR6         0.0577
     79 H35        11.1750  -27.1464   -3.8015 H         1 GR6         0.0577
     80 H36        10.0085  -25.7942   -3.9947 H         1 GR6         0.0577
     81 H37        11.3597  -23.5771   -6.8989 H         1 GR6         0.0634
     82 H38        12.1438  -25.1932   -6.9120 H         1 GR6         0.0634
     83 H39        11.6748  -24.3200   -9.1877 H         1 GR6         0.0414
     84 H40        13.4233  -24.6056   -8.8912 H         1 GR6         0.0414
     85 H41        12.0830  -21.7965   -8.9038 H         1 GR6         0.0451
     86 H42        14.8343  -23.0040   -9.5605 H         1 GR6         0.0450
@<TRIPOS>BOND
     1    2    1 ar 
     2    6    1 ar 
     3    1   38 1  
     4    3    2 ar 
     5    4    3 ar 
     6    3   40 1  
     7    4    5 ar 
     8    7    4 1  
     9    5    6 ar 
    10    7    8 2  
    11    7    9 2  
    12   10    7 am 
    13   10   11 1  
    14   15   10 1  
    15   11   12 1  
    16   12   13 1  
    17   13   14 1  
    18   14   44 1  
    19   16   15 1  
    20   16   17 1  
    21   18   16 1  
    22   18   19 1  
    23   31   18 1  
    24   19   20 am 
    25   20   21 2  
    26   20   22 1  
    27   22   23 1  
    28   23   24 1  
    29   23   30 1  
    30   24   25 1  
    31   26   25 1  
    32   26   27 1  
    33   30   26 1  
    34   28   27 1  
    35   29   28 1  
    36   30   29 1  
    37   37   31 1  
    38   32   33 ar 
    39   32   37 ar 
    40   33   34 ar 
    41   34   35 ar 
    42   35   36 ar 
    43   36   37 ar 
    44   38   39 1  
    45   40   41 1  
    46   41   42 1  
    47   42   43 1  
    48   43   44 2  
    49    2   45 1  
    50    5   46 1  
    51    6   47 1  
    52   11   48 1  
    53   11   49 1  
    54   12   50 1  
    55   12   51 1  
    56   13   52 1  
    57   13   53 1  
    58   14   54 1  
    59   14   55 1  
    60   15   56 1  
    61   15   57 1  
    62   16   58 1  
    63   17   59 1  
    64   18   60 1  
    65   19   61 1  
    66   23   62 1  
    67   24   63 1  
    68   24   64 1  
    69   26   65 1  
    70   28   66 1  
    71   28   67 1  
    72   29   68 1  
    73   29   69 1  
    74   30   70 1  
    75   31   71 1  
    76   31   72 1  
    77   32   73 1  
    78   33   74 1  
    79   34   75 1  
    80   35   76 1  
    81   36   77 1  
    82   39   78 1  
    83   39   79 1  
    84   39   80 1  
    85   41   81 1  
    86   41   82 1  
    87   42   83 1  
    88   42   84 1  
    89   43   85 1  
    90   44   86 1  
@<TRIPOS>SUBSTRUCTURE
     1 GR6         1

