### 
### Created by X-TOOL on Mon Sep 10 21:13:03 2018
### 

@<TRIPOS>MOLECULE
3i6z_ligand
   73    78     1     0     0
SMALL
GAST_HUCK


@<TRIPOS>ATOM
      1 C1          2.5230   67.7400   63.3090 C.2       1 G6X        -0.1096
      2 C2          2.6200   68.1660   62.0160 C.2       1 G6X        -0.0102
      3 C3          3.9640   68.2530   61.2790 C.3       1 G6X         0.1204
      4 C4          5.1150   68.4910   62.2850 C.3       1 G6X         0.0132
      5 O5          5.2730   66.0890   62.8530 O.3       1 G6X        -0.3207
      6 C6          4.6560   63.8350   63.7980 C.ar      1 G6X         0.1316
      7 C7          3.8050   63.1620   64.7150 C.ar      1 G6X        -0.0294
      8 C8          2.8860   63.8900   65.4950 C.ar      1 G6X        -0.0558
      9 C9          1.8310   66.0100   66.3560 C.3       1 G6X         0.0030
     10 N10         2.4810   67.1560   67.0720 N.4       1 G6X         0.2478
     11 C11         2.5860   68.4070   66.2960 C.3       1 G6X        -0.0446
     12 C12         3.8440   68.3840   65.3740 C.3       1 G6X        -0.0567
     13 C13         4.5620   65.2380   63.6580 C.ar      1 G6X         0.1256
     14 C14         3.6490   65.9490   64.4410 C.ar      1 G6X        -0.0540
     15 C15         2.7970   65.2990   65.3830 C.ar      1 G6X        -0.0085
     16 C16         5.3650   61.7930   62.8200 C.3       1 G6X         0.0557
     17 O17         5.6510   63.1650   63.0930 O.3       1 G6X        -0.3249
     18 O18         4.1500   67.0410   60.5370 O.3       1 G6X        -0.3629
     19 C19         3.7330   66.8650   67.8520 C.3       1 G6X        -0.0303
     20 C20         3.5370   65.9070   69.0410 C.3       1 G6X        -0.0125
     21 C21         3.8700   64.4840   68.6240 C.3       1 G6X        -0.0482
     22 C22         4.3160   63.6070   69.8040 C.3       1 G6X        -0.0510
     23 C23         3.1820   63.1870   70.7470 C.3       1 G6X        -0.0307
     24 C24         2.1540   62.3040   70.0470 C.3       1 G6X         0.0577
     25 N25         1.2460   61.7050   71.0480 N.am      1 G6X        -0.1389
     26 C26         1.3910   60.4150   71.4670 C.2       1 G6X         0.2295
     27 C27         0.2910   60.0140   72.3070 C.ar      1 G6X         0.0786
     28 C28         0.0440   58.7670   72.9240 C.ar      1 G6X        -0.0400
     29 C29        -1.1600   58.5260   73.6190 C.ar      1 G6X        -0.0561
     30 C30        -2.1370   59.5350   73.7070 C.ar      1 G6X        -0.0557
     31 C31        -1.9000   60.7820   73.1010 C.ar      1 G6X        -0.0290
     32 C32        -0.6960   61.0160   72.4140 C.ar      1 G6X         0.1332
     33 S33        -0.0280   62.4600   71.6350 S.o2      1 G6X         0.0958
     34 O34         2.3270   59.6800   71.1400 O.2       1 G6X        -0.3827
     35 O35        -0.8090   63.1790   70.5690 O.2       1 G6X        -0.1447
     36 O36         0.4370   63.4670   72.6510 O.2       1 G6X        -0.1447
     37 C41         5.1070   67.4230   63.4460 C.3       1 G6X         0.0474
     38 C42         3.7270   67.3420   64.2330 C.3       1 G6X        -0.0342
     39 H1          1.5237   67.6703   63.7362 H         1 G6X         0.0348
     40 H2          1.7120   68.4544   61.4884 H         1 G6X         0.1347
     41 H3          3.9355   69.0988   60.5763 H         1 G6X         0.0969
     42 H4          5.0038   69.4940   62.7228 H         1 G6X         0.0354
     43 H5          6.0742   68.4286   61.7502 H         1 G6X         0.0354
     44 H6          3.8633   62.0842   64.8147 H         1 G6X         0.0642
     45 H7          2.2392   63.3659   66.1892 H         1 G6X         0.0492
     46 H8          0.9721   66.3920   65.7847 H         1 G6X         0.1005
     47 H9          1.4806   65.2809   67.1014 H         1 G6X         0.1005
     48 H10         1.8086   67.3772   67.7896 H         1 G6X         0.2050
     49 H11         2.6636   69.2565   66.9904 H         1 G6X         0.0800
     50 H12         1.6857   68.5224   65.6746 H         1 G6X         0.0800
     51 H13         4.7248   68.1392   65.9857 H         1 G6X         0.0132
     52 H14         3.9727   69.3814   64.9284 H         1 G6X         0.0132
     53 H15         6.2024   61.3478   62.2627 H         1 G6X         0.0570
     54 H16         4.4462   61.7224   62.2194 H         1 G6X         0.0570
     55 H17         5.2262   61.2518   63.7675 H         1 G6X         0.0570
     56 H18         4.1801   66.3051   61.1371 H         1 G6X         0.2168
     57 H19         4.1256   67.8169   68.2390 H         1 G6X         0.0815
     58 H20         4.4679   66.4166   67.1672 H         1 G6X         0.0815
     59 H21         2.4904   65.9525   69.3765 H         1 G6X         0.0317
     60 H22         4.1998   66.2093   69.8652 H         1 G6X         0.0317
     61 H23         4.6823   64.5158   67.8830 H         1 G6X         0.0267
     62 H24         2.9760   64.0327   68.1689 H         1 G6X         0.0267
     63 H25         5.0588   64.1693   70.3888 H         1 G6X         0.0266
     64 H26         4.7813   62.6963   69.3989 H         1 G6X         0.0266
     65 H27         2.6781   64.0905   71.1210 H         1 G6X         0.0285
     66 H28         3.6114   62.6299   71.5927 H         1 G6X         0.0285
     67 H29         2.6725   61.5036   69.4988 H         1 G6X         0.0542
     68 H30         1.5695   62.9126   69.3414 H         1 G6X         0.0542
     69 H31         0.7908   57.9837   72.8624 H         1 G6X         0.0670
     70 H32        -1.3326   57.5629   74.0855 H         1 G6X         0.0629
     71 H33        -3.0646   59.3527   74.2375 H         1 G6X         0.0653
     72 H34        -2.6475   61.5645   73.1639 H         1 G6X         0.0649
     73 H35         5.9246   67.6468   64.1470 H         1 G6X         0.0473
@<TRIPOS>BOND
     1    2    1 2  
     2    1   38 1  
     3    3    2 1  
     4    4    3 1  
     5    3   18 1  
     6   37    4 1  
     7   13    5 1  
     8    5   37 1  
     9    7    6 ar 
    10    6   13 ar 
    11    6   17 1  
    12    8    7 ar 
    13   15    8 ar 
    14    9   10 1  
    15    9   15 1  
    16   10   11 1  
    17   10   19 1  
    18   11   12 1  
    19   12   38 1  
    20   13   14 ar 
    21   14   15 ar 
    22   14   38 1  
    23   17   16 1  
    24   19   20 1  
    25   20   21 1  
    26   21   22 1  
    27   22   23 1  
    28   23   24 1  
    29   24   25 1  
    30   25   26 am 
    31   25   33 am 
    32   26   27 1  
    33   26   34 2  
    34   27   28 ar 
    35   27   32 ar 
    36   28   29 ar 
    37   29   30 ar 
    38   30   31 ar 
    39   31   32 ar 
    40   32   33 1  
    41   33   35 2  
    42   33   36 2  
    43   37   38 1  
    44    1   39 1  
    45    2   40 1  
    46    3   41 1  
    47    4   42 1  
    48    4   43 1  
    49    7   44 1  
    50    8   45 1  
    51    9   46 1  
    52    9   47 1  
    53   10   48 1  
    54   11   49 1  
    55   11   50 1  
    56   12   51 1  
    57   12   52 1  
    58   16   53 1  
    59   16   54 1  
    60   16   55 1  
    61   18   56 1  
    62   19   57 1  
    63   19   58 1  
    64   20   59 1  
    65   20   60 1  
    66   21   61 1  
    67   21   62 1  
    68   22   63 1  
    69   22   64 1  
    70   23   65 1  
    71   23   66 1  
    72   24   67 1  
    73   24   68 1  
    74   28   69 1  
    75   29   70 1  
    76   30   71 1  
    77   31   72 1  
    78   37   73 1  
@<TRIPOS>SUBSTRUCTURE
     1 G6X         1

