### 
### Created by X-TOOL on Mon Sep 10 21:13:03 2018
### 

@<TRIPOS>MOLECULE
3i7b_ligand
   43    46     1     0     0
SMALL
GAST_HUCK


@<TRIPOS>ATOM
      1 N1         21.8880   12.4890   63.5140 N.ar      1 BK1        -0.2661
      2 C2         23.0590   13.1110   63.4270 C.ar      1 BK1         0.0558
      3 N3         23.1440   14.4290   63.3120 N.ar      1 BK1        -0.2691
      4 C4         22.0270   15.1760   63.2720 C.ar      1 BK1         0.1583
      5 C5         20.7860   14.5740   63.3540 C.ar      1 BK1         0.0863
      6 C6         20.7330   13.1780   63.4830 C.ar      1 BK1         0.1272
      7 CAA        22.5170   18.8080   63.6770 C.3       1 BK1        -0.0345
      8 CAB        23.2560   17.6370   61.5630 C.3       1 BK1        -0.0345
      9 NAC        19.5870   12.5050   63.5730 N.pl3     1 BK1        -0.3122
     10 CAD        13.5470   15.7260   65.2410 C.ar      1 BK1        -0.0629
     11 CAE        14.1250   16.0490   64.0170 C.ar      1 BK1        -0.0625
     12 CAF        17.8730   14.4990   66.9560 C.ar      1 BK1        -0.0704
     13 CAG        18.4550   14.8200   65.7290 C.ar      1 BK1        -0.0589
     14 CAH        14.3470   15.2550   66.2780 C.ar      1 BK1        -0.0569
     15 CAI        16.5060   14.6380   67.1410 C.ar      1 BK1        -0.0629
     16 CAJ        15.4970   15.9070   63.8290 C.ar      1 BK1        -0.0547
     17 CAL        18.3500   15.6310   63.3220 C.3       1 BK1         0.0257
     18 NAO        20.6110   16.7540   63.1760 N.2       1 BK1        -0.2103
     19 CAQ        17.6840   15.2950   64.6640 C.ar      1 BK1        -0.0212
     20 CAR        19.8850   15.6390   63.2970 C.2       1 BK1         0.0551
     21 CAS        15.7200   15.1090   66.0910 C.ar      1 BK1        -0.0240
     22 CAT        16.3060   15.4340   64.8640 C.ar      1 BK1        -0.0105
     23 CAW        22.9030   17.4670   63.0450 C.3       1 BK1         0.0716
     24 NAX        21.8140   16.4800   63.1660 N.pl3     1 BK1        -0.1918
     25 H1         23.9702   12.5243   63.4507 H         1 BK1         0.1029
     26 H2         23.3503   19.5178   63.5686 H         1 BK1         0.0259
     27 H3         22.2976   18.6605   64.7448 H         1 BK1         0.0259
     28 H4         21.6260   19.2087   63.1715 H         1 BK1         0.0259
     29 H5         23.5284   16.6603   61.1366 H         1 BK1         0.0259
     30 H6         24.1052   18.3293   61.4654 H         1 BK1         0.0259
     31 H7         22.3877   18.0433   61.0235 H         1 BK1         0.0259
     32 H8         18.6898   13.0105   63.5516 H         1 BK1         0.1845
     33 H9         19.5980   11.4791   63.6640 H         1 BK1         0.1845
     34 H10        12.4789   15.8407   65.3861 H         1 BK1         0.0616
     35 H11        13.5041   16.4128   63.2063 H         1 BK1         0.0601
     36 H12        18.4931   14.1390   67.7690 H         1 BK1         0.0595
     37 H13        19.5244   14.6988   65.5993 H         1 BK1         0.0534
     38 H14        13.9011   15.0013   67.2329 H         1 BK1         0.0609
     39 H15        16.0533   14.3830   68.0924 H         1 BK1         0.0544
     40 H16        15.9397   16.1651   62.8738 H         1 BK1         0.0628
     41 H17        18.0066   16.6316   63.0207 H         1 BK1         0.0596
     42 H18        18.0086   14.8889   62.5854 H         1 BK1         0.0596
     43 H19        23.7862   17.0806   63.5747 H         1 BK1         0.0646
@<TRIPOS>BOND
     1    2    1 ar 
     2    6    1 ar 
     3    3    2 ar 
     4    4    3 ar 
     5    4    5 ar 
     6   24    4 1  
     7    5    6 ar 
     8   20    5 1  
     9    6    9 1  
    10   23    7 1  
    11   23    8 1  
    12   11   10 ar 
    13   14   10 ar 
    14   16   11 ar 
    15   13   12 ar 
    16   12   15 ar 
    17   19   13 ar 
    18   21   14 ar 
    19   21   15 ar 
    20   22   16 ar 
    21   17   19 1  
    22   20   17 1  
    23   18   20 2  
    24   24   18 1  
    25   19   22 ar 
    26   22   21 ar 
    27   23   24 1  
    28    2   25 1  
    29    7   26 1  
    30    7   27 1  
    31    7   28 1  
    32    8   29 1  
    33    8   30 1  
    34    8   31 1  
    35    9   32 1  
    36    9   33 1  
    37   10   34 1  
    38   11   35 1  
    39   12   36 1  
    40   13   37 1  
    41   14   38 1  
    42   15   39 1  
    43   16   40 1  
    44   17   41 1  
    45   17   42 1  
    46   23   43 1  
@<TRIPOS>SUBSTRUCTURE
     1 BK1         1

