### 
### Created by X-TOOL on Mon Sep 10 21:13:03 2018
### 

@<TRIPOS>MOLECULE
3i7c_ligand
   43    46     1     0     0
SMALL
GAST_HUCK


@<TRIPOS>ATOM
      1 N1         16.6060   11.6710   62.8010 N.ar      1 BK2        -0.2655
      2 C2         17.7100   12.2850   62.3630 C.ar      1 BK2         0.0566
      3 N3         17.7650   13.6030   62.1870 N.ar      1 BK2        -0.2673
      4 C4         16.6960   14.3720   62.4450 C.ar      1 BK2         0.1644
      5 C5         15.5260   13.7820   62.9080 C.ar      1 BK2         0.0877
      6 C6         15.5020   12.3940   63.0800 C.ar      1 BK2         0.1276
      7 CAA        16.7600   18.0930   61.9030 C.3       1 BK2        -0.0311
      8 CAB        18.6610   16.7270   62.8320 C.3       1 BK2        -0.0311
      9 CAC        17.8690   16.3850   60.4740 C.3       1 BK2        -0.0311
     10 NAD        14.4220   11.7620   63.5050 N.pl3     1 BK2        -0.3125
     11 CAE         8.9110   14.4790   65.8550 C.ar      1 BK2        -0.0614
     12 CAF         9.8370   13.7940   66.6360 C.ar      1 BK2        -0.0614
     13 CAH        12.4010   15.5520   62.7740 C.ar      1 BK2        -0.0532
     14 CAI         9.3360   15.0990   64.6860 C.ar      1 BK2        -0.0543
     15 CAJ        11.1790   13.7060   66.2680 C.ar      1 BK2        -0.0544
     16 CAK        11.0770   15.6250   63.1640 C.ar      1 BK2        -0.0537
     17 CAL        12.9410   14.2490   64.7210 C.ar      1 BK2        -0.0466
     18 NAO        15.3100   15.9630   62.7210 N.2       1 BK2        -0.1913
     19 CAQ        13.3390   14.8520   63.5260 C.ar      1 BK2        -0.0070
     20 CAR        14.6540   14.8630   63.0770 C.2       1 BK2         0.0737
     21 CAS        10.6700   15.0140   64.3240 C.ar      1 BK2        -0.0182
     22 CAT        11.6050   14.3260   65.1100 C.ar      1 BK2        -0.0181
     23 NAW        16.4640   15.6890   62.3740 N.pl3     1 BK2        -0.1771
     24 CAX        17.4460   16.7230   61.9080 C.3       1 BK2         0.0837
     25 H1         18.5891   11.6897   62.1441 H         1 BK2         0.1030
     26 H2         17.4726   18.8586   61.5624 H         1 BK2         0.0262
     27 H3         16.4190   18.3361   62.9202 H         1 BK2         0.0262
     28 H4         15.8959   18.0679   61.2228 H         1 BK2         0.0262
     29 H5         19.1352   15.7346   62.8184 H         1 BK2         0.0262
     30 H6         18.3415   16.9666   63.8569 H         1 BK2         0.0262
     31 H7         19.3819   17.4826   62.4866 H         1 BK2         0.0262
     32 H8         16.9839   16.3859   59.8208 H         1 BK2         0.0262
     33 H9         18.3378   15.3901   60.4548 H         1 BK2         0.0262
     34 H10        18.5888   17.1364   60.1172 H         1 BK2         0.0262
     35 H11        13.5672   12.2932   63.7243 H         1 BK2         0.1842
     36 H12        14.4350   10.7382   63.6170 H         1 BK2         0.1842
     37 H13         7.8705   14.5284   66.1549 H         1 BK2         0.0616
     38 H14         9.5072   13.3176   67.5521 H         1 BK2         0.0617
     39 H15        12.7148   16.0502   61.8639 H         1 BK2         0.0621
     40 H16         8.6323   15.6421   64.0656 H         1 BK2         0.0623
     41 H17        11.8809   13.1564   66.8847 H         1 BK2         0.0622
     42 H18        10.3608   16.1641   62.5546 H         1 BK2         0.0623
     43 H19        13.6628   13.7271   65.3388 H         1 BK2         0.0622
@<TRIPOS>BOND
     1    2    1 ar 
     2    6    1 ar 
     3    3    2 ar 
     4    4    3 ar 
     5    4    5 ar 
     6   23    4 1  
     7    5    6 ar 
     8   20    5 1  
     9    6   10 1  
    10   24    7 1  
    11   24    8 1  
    12   24    9 1  
    13   12   11 ar 
    14   14   11 ar 
    15   15   12 ar 
    16   13   16 ar 
    17   19   13 ar 
    18   21   14 ar 
    19   22   15 ar 
    20   16   21 ar 
    21   19   17 ar 
    22   17   22 ar 
    23   18   20 2  
    24   23   18 1  
    25   20   19 1  
    26   22   21 ar 
    27   23   24 1  
    28    2   25 1  
    29    7   26 1  
    30    7   27 1  
    31    7   28 1  
    32    8   29 1  
    33    8   30 1  
    34    8   31 1  
    35    9   32 1  
    36    9   33 1  
    37    9   34 1  
    38   10   35 1  
    39   10   36 1  
    40   11   37 1  
    41   12   38 1  
    42   13   39 1  
    43   14   40 1  
    44   15   41 1  
    45   16   42 1  
    46   17   43 1  
@<TRIPOS>SUBSTRUCTURE
     1 BK2         1

