### 
### Created by X-TOOL on Mon Sep 10 21:13:01 2018
### 

@<TRIPOS>MOLECULE
3i7e_ligand
   77    80     1     0     0
SMALL
GAST_HUCK


@<TRIPOS>ATOM
      1 C           2.2950    2.1710   10.5650 C.3       1 DJR         0.0449
      2 O           0.6820    3.2600   11.9230 O.3       1 DJR        -0.3480
      3 C27         1.6270    3.4820   10.8560 C.3       1 DJR         0.1648
      4 O9          2.6710    4.3860   11.2710 O.3       1 DJR        -0.3509
      5 C2          3.9710    3.7970   11.1030 C.3       1 DJR         0.0512
      6 C1          3.7630    2.5140   10.3000 C.3       1 DJR        -0.0191
      7 C3          0.5550    1.8450   12.1480 C.3       1 DJR         0.0815
      8 C5          1.8980    1.2460   11.7350 C.3       1 DJR         0.1189
      9 O4          2.8430    1.3390   12.8440 O.3       1 DJR        -0.2578
     10 C4          3.7420    0.3230   13.0970 C.2       1 DJR         0.3203
     11 O5          3.7620   -0.7870   12.5420 O.2       1 DJR        -0.3775
     12 N1          4.5940    0.7350   14.0290 N.am      1 DJR        -0.2550
     13 C6          5.6840   -0.1040   14.5700 C.3       1 DJR         0.0807
     14 C8          7.0420    0.6480   14.3950 C.3       1 DJR         0.0064
     15 C9          7.3660    1.0410   12.9470 C.ar      1 DJR        -0.0408
     16 C11         7.7990    0.0540   12.0160 C.ar      1 DJR        -0.0603
     17 C13         8.0890    0.4150   10.6800 C.ar      1 DJR        -0.0686
     18 C14         7.9520    1.7690   10.2600 C.ar      1 DJR        -0.0687
     19 C12         7.5230    2.7570   11.1740 C.ar      1 DJR        -0.0686
     20 C10         7.2270    2.3980   12.5180 C.ar      1 DJR        -0.0603
     21 C7          5.3000   -0.4350   16.0550 C.3       1 DJR         0.0967
     22 O6          5.4900    0.7160   16.8910 O.3       1 DJR        -0.3877
     23 C15         6.0830   -1.6290   16.6490 C.3       1 DJR         0.0578
     24 N2          5.8660   -2.8840   15.8860 N.am      1 DJR        -0.2325
     25 S           7.1990   -3.5630   14.9830 S.o2      1 DJR         0.0657
     26 O8          6.4920   -4.4430   13.8830 O.2       1 DJR        -0.1515
     27 O7          8.0210   -2.3940   14.3210 O.2       1 DJR        -0.1515
     28 C18         8.1940   -4.5280   16.0650 C.ar      1 DJR         0.0971
     29 C23         9.2750   -3.9340   16.7760 C.ar      1 DJR        -0.0440
     30 C22        10.0450   -4.7330   17.6570 C.ar      1 DJR        -0.0313
     31 C21         9.7400   -6.1200   17.8320 C.ar      1 DJR         0.0908
     32 O1         10.5640   -6.8120   18.7220 O.3       1 DJR        -0.3212
     33 C26        10.4330   -8.2230   19.0390 C.3       1 DJR         0.0594
     34 C20         8.6510   -6.6810   17.1060 C.ar      1 DJR        -0.0313
     35 C19         7.8800   -5.8920   16.2280 C.ar      1 DJR        -0.0440
     36 C16         4.5240   -3.5650   15.8830 C.3       1 DJR         0.0319
     37 C17         3.8570   -3.8080   17.2690 C.3       1 DJR        -0.0296
     38 C25         2.3510   -4.0960   17.1840 C.3       1 DJR        -0.0612
     39 C24         4.5080   -5.0030   17.9790 C.3       1 DJR        -0.0612
     40 H1          1.8903    1.7272    9.6435 H         1 DJR         0.0380
     41 H2          1.1116    3.8719    9.9659 H         1 DJR         0.0913
     42 H3          4.4130    3.5648   12.0832 H         1 DJR         0.0561
     43 H4          4.6325    4.4849   10.5561 H         1 DJR         0.0561
     44 H5          3.9408    2.6861    9.2282 H         1 DJR         0.0293
     45 H6          4.4263    1.7127   10.6577 H         1 DJR         0.0293
     46 H7         -0.2570    1.4290   11.5336 H         1 DJR         0.0590
     47 H8          0.3529    1.6408   13.2098 H         1 DJR         0.0590
     48 H9          1.8015    0.1995   11.4102 H         1 DJR         0.0675
     49 H10         4.4924    1.6642   14.3843 H         1 DJR         0.1873
     50 H11         5.7413   -1.0465   14.0057 H         1 DJR         0.0604
     51 H12         7.8471   -0.0052   14.7627 H         1 DJR         0.0449
     52 H13         7.0082    1.5652   15.0012 H         1 DJR         0.0449
     53 H14         7.9066   -0.9771   12.3326 H         1 DJR         0.0557
     54 H15         8.4161   -0.3400    9.9743 H         1 DJR         0.0599
     55 H16         8.1777    2.0423    9.2356 H         1 DJR         0.0559
     56 H17         7.4196    3.7868   10.8516 H         1 DJR         0.0599
     57 H18         6.8951    3.1552   13.2191 H         1 DJR         0.0557
     58 H19         4.2320   -0.6979   16.0674 H         1 DJR         0.0634
     59 H20         5.2534    0.4991   17.7852 H         1 DJR         0.2100
     60 H21         5.7546   -1.7855   17.6871 H         1 DJR         0.0504
     61 H22         7.1564   -1.3890   16.6362 H         1 DJR         0.0504
     62 H23         9.5062   -2.8831   16.6449 H         1 DJR         0.0608
     63 H24        10.8708   -4.2905   18.2022 H         1 DJR         0.0542
     64 H25        11.2076   -8.5090   19.7658 H         1 DJR         0.0577
     65 H26        10.5536   -8.8177   18.1215 H         1 DJR         0.0577
     66 H27         9.4386   -8.4112   19.4699 H         1 DJR         0.0577
     67 H28         8.4111   -7.7308   17.2303 H         1 DJR         0.0542
     68 H29         7.0524   -6.3311   15.6828 H         1 DJR         0.0608
     69 H30         4.6487   -4.5441   15.3975 H         1 DJR         0.0480
     70 H31         3.8376   -2.9452   15.2875 H         1 DJR         0.0480
     71 H32         4.0054   -2.9036   17.8773 H         1 DJR         0.0311
     72 H33         1.9507   -4.2564   18.1959 H         1 DJR         0.0233
     73 H34         2.1838   -4.9976   16.5764 H         1 DJR         0.0233
     74 H35         1.8397   -3.2403   16.7189 H         1 DJR         0.0233
     75 H36         5.5921   -4.8351   18.0603 H         1 DJR         0.0233
     76 H37         4.3214   -5.9196   17.4002 H         1 DJR         0.0233
     77 H38         4.0772   -5.1107   18.9854 H         1 DJR         0.0233
@<TRIPOS>BOND
     1    1    3 1  
     2    1    6 1  
     3    1    8 1  
     4    3    2 1  
     5    2    7 1  
     6    3    4 1  
     7    4    5 1  
     8    5    6 1  
     9    7    8 1  
    10    8    9 1  
    11    9   10 1  
    12   10   11 2  
    13   10   12 am 
    14   12   13 1  
    15   13   14 1  
    16   13   21 1  
    17   14   15 1  
    18   15   16 ar 
    19   15   20 ar 
    20   16   17 ar 
    21   17   18 ar 
    22   18   19 ar 
    23   19   20 ar 
    24   21   22 1  
    25   21   23 1  
    26   23   24 1  
    27   24   25 am 
    28   24   36 1  
    29   25   26 2  
    30   25   27 2  
    31   25   28 1  
    32   28   29 ar 
    33   28   35 ar 
    34   29   30 ar 
    35   30   31 ar 
    36   31   32 1  
    37   31   34 ar 
    38   32   33 1  
    39   34   35 ar 
    40   36   37 1  
    41   37   38 1  
    42   37   39 1  
    43    1   40 1  
    44    3   41 1  
    45    5   42 1  
    46    5   43 1  
    47    6   44 1  
    48    6   45 1  
    49    7   46 1  
    50    7   47 1  
    51    8   48 1  
    52   12   49 1  
    53   13   50 1  
    54   14   51 1  
    55   14   52 1  
    56   16   53 1  
    57   17   54 1  
    58   18   55 1  
    59   19   56 1  
    60   20   57 1  
    61   21   58 1  
    62   22   59 1  
    63   23   60 1  
    64   23   61 1  
    65   29   62 1  
    66   30   63 1  
    67   33   64 1  
    68   33   65 1  
    69   33   66 1  
    70   34   67 1  
    71   35   68 1  
    72   36   69 1  
    73   36   70 1  
    74   37   71 1  
    75   38   72 1  
    76   38   73 1  
    77   38   74 1  
    78   39   75 1  
    79   39   76 1  
    80   39   77 1  
@<TRIPOS>SUBSTRUCTURE
     1 DJR         1

