### 
### Created by X-TOOL on Mon Sep 10 21:13:00 2018
### 

@<TRIPOS>MOLECULE
3i7g_ligand
   49    51     1     0     0
SMALL
GAST_HUCK


@<TRIPOS>ATOM
      1 C1         -8.4590   26.5590   51.5890 C.ar      1 732        -0.0526
      2 C2         -7.3710   27.2600   52.0850 C.ar      1 732         0.0138
      3 C3         -6.7270   28.1890   51.2790 C.ar      1 732        -0.0526
      4 C4         -7.1790   28.4200   49.9900 C.ar      1 732        -0.0490
      5 C5         -8.2650   27.7160   49.5100 C.ar      1 732         0.0388
      6 C6         -8.9080   26.7910   50.3090 C.ar      1 732        -0.0490
      7 C7         -6.8940   27.0290   53.4540 C.2       1 732         0.1279
      8 CL8        -8.8490   27.9920   47.9060 Cl        1 732        -0.0717
      9 C9         -6.7010   25.8480   54.1300 C.2       1 732        -0.0445
     10 C10        -6.1360   26.1780   55.3780 C.2       1 732        -0.0378
     11 C11        -6.2220   27.5510   55.4750 C.2       1 732         0.1873
     12 O12        -6.6190   28.0270   54.2870 O.3       1 732        -0.2433
     13 C13        -6.0240   28.4680   56.5890 C.2       1 732         0.2333
     14 O14        -5.6190   28.1520   57.7110 O.2       1 732        -0.3882
     15 N15        -6.3620   29.7190   56.2060 N.am      1 732        -0.2644
     16 C16        -6.3750   30.9430   56.9880 C.3       1 732         0.1327
     17 C17        -5.1070   31.7480   56.6810 C.3       1 732        -0.0007
     18 C18        -7.6530   31.6220   56.5350 C.2       1 732         0.2016
     19 O19        -7.8640   31.8920   55.3500 O.2       1 732        -0.3945
     20 N20        -8.5980   31.8840   57.4610 N.am      1 732        -0.2881
     21 C21        -9.8590   32.5210   57.0520 C.3       1 732         0.0196
     22 C22        -5.4230   33.2420   56.5690 C.3       1 732        -0.0460
     23 C23        -4.1290   34.0070   56.2850 C.3       1 732        -0.0526
     24 C24        -3.1640   33.8010   57.4540 C.3       1 732        -0.0530
     25 C25        -2.8220   32.3130   57.6040 C.3       1 732        -0.0526
     26 C26        -4.1030   31.5010   57.8200 C.3       1 732        -0.0460
     27 H1         -8.9581   25.8253   52.2116 H         1 732         0.0611
     28 H2         -5.8701   28.7338   51.6584 H         1 732         0.0611
     29 H3         -6.6822   29.1501   49.3613 H         1 732         0.0619
     30 H4         -9.7656   26.2482   49.9282 H         1 732         0.0619
     31 H5         -6.9392   24.8482   53.7699 H         1 732         0.0410
     32 H6         -5.7183   25.4916   56.1130 H         1 732         0.0456
     33 H7         -6.6423   29.8156   55.2510 H         1 732         0.1869
     34 H8         -6.4158   30.7293   58.0663 H         1 732         0.0801
     35 H9         -4.6762   31.4021   55.7298 H         1 732         0.0348
     36 H10        -8.4422   31.6466   58.4198 H         1 732         0.1848
     37 H11       -10.5039   32.6563   57.9328 H         1 732         0.0484
     38 H12       -10.3711   31.8823   56.3173 H         1 732         0.0484
     39 H13        -9.6452   33.5008   56.6001 H         1 732         0.0484
     40 H14        -5.8615   33.5976   57.5130 H         1 732         0.0270
     41 H15        -6.1363   33.4072   55.7481 H         1 732         0.0270
     42 H16        -4.3506   35.0787   56.1738 H         1 732         0.0265
     43 H17        -3.6724   33.6289   55.3585 H         1 732         0.0265
     44 H18        -3.6344   34.1607   58.3810 H         1 732         0.0265
     45 H19        -2.2406   34.3688   57.2671 H         1 732         0.0265
     46 H20        -2.1548   32.1777   58.4680 H         1 732         0.0265
     47 H21        -2.3171   31.9614   56.6922 H         1 732         0.0265
     48 H22        -3.8502   30.4309   57.8518 H         1 732         0.0270
     49 H23        -4.5611   31.7981   58.7749 H         1 732         0.0270
@<TRIPOS>BOND
     1    1    2 ar 
     2    1    6 ar 
     3    2    3 ar 
     4    2    7 1  
     5    3    4 ar 
     6    4    5 ar 
     7    5    6 ar 
     8    5    8 1  
     9    7    9 2  
    10    7   12 1  
    11    9   10 1  
    12   10   11 2  
    13   11   12 1  
    14   11   13 1  
    15   13   14 2  
    16   13   15 am 
    17   15   16 1  
    18   16   17 1  
    19   16   18 1  
    20   17   22 1  
    21   17   26 1  
    22   18   19 2  
    23   18   20 am 
    24   20   21 1  
    25   22   23 1  
    26   23   24 1  
    27   24   25 1  
    28   25   26 1  
    29    1   27 1  
    30    3   28 1  
    31    4   29 1  
    32    6   30 1  
    33    9   31 1  
    34   10   32 1  
    35   15   33 1  
    36   16   34 1  
    37   17   35 1  
    38   20   36 1  
    39   21   37 1  
    40   21   38 1  
    41   21   39 1  
    42   22   40 1  
    43   22   41 1  
    44   23   42 1  
    45   23   43 1  
    46   24   44 1  
    47   24   45 1  
    48   25   46 1  
    49   25   47 1  
    50   26   48 1  
    51   26   49 1  
@<TRIPOS>SUBSTRUCTURE
     1 732         1

