### 
### Created by X-TOOL on Mon Sep 10 21:13:02 2018
### 

@<TRIPOS>MOLECULE
3i7i_ligand
   66    70     1     0     0
SMALL
GAST_HUCK


@<TRIPOS>ATOM
      1 C1         -8.5440   26.9610   49.2520 C.ar      1 518         0.0684
      2 C2         -8.8220   25.8610   50.0530 C.ar      1 518        -0.0392
      3 C3         -8.3350   25.7940   51.3350 C.ar      1 518        -0.0638
      4 C4         -7.5650   26.8310   51.8570 C.ar      1 518         0.0010
      5 C5         -7.2570   27.9220   51.0470 C.ar      1 518        -0.0638
      6 C6         -7.7530   27.9930   49.7570 C.ar      1 518        -0.0392
      7 C7         -7.0150   26.7130   53.2230 C.2       1 518         0.1181
      8 C8         -6.5040   25.5630   53.7700 C.2       1 518        -0.0504
      9 C9         -6.0730   25.8510   55.0730 C.2       1 518        -0.0432
     10 C10        -6.3440   27.1790   55.2560 C.2       1 518         0.1820
     11 O11        -6.9110   27.6780   54.1380 O.3       1 518        -0.2485
     12 C12        -6.1160   28.0040   56.4250 C.2       1 518         0.2296
     13 O13        -5.6910   27.5660   57.4790 O.2       1 518        -0.3906
     14 N14        -6.4510   29.2820   56.1930 N.am      1 518        -0.2651
     15 C15        -6.3990   30.4090   57.1000 C.3       1 518         0.1326
     16 C16        -7.7810   30.9860   56.8990 C.2       1 518         0.2015
     17 C17        -5.2760   31.2760   56.5140 C.3       1 518        -0.0007
     18 N18        -8.5140   31.3930   57.9510 N.am      1 518        -0.2881
     19 O19        -8.2680   31.0550   55.7830 O.2       1 518        -0.3945
     20 N20        -9.0370   26.9700   47.9430 N.am      1 518        -0.2296
     21 C21        -9.8600   31.9290   57.7410 C.3       1 518         0.0196
     22 C22        -5.7390   32.6500   56.0210 C.3       1 518        -0.0460
     23 C23        -4.6170   33.1710   55.1200 C.3       1 518        -0.0526
     24 C24        -3.2900   33.2580   55.8910 C.3       1 518        -0.0530
     25 C25        -2.9360   31.9560   56.6260 C.3       1 518        -0.0526
     26 C26        -4.1160   31.4910   57.4890 C.3       1 518        -0.0460
     27 C27       -10.0850   27.6600   47.4870 C.2       1 518         0.2666
     28 C28       -10.4290   27.4960   46.0620 C.2       1 518         0.1977
     29 O29       -10.7360   28.3510   48.2430 O.2       1 518        -0.3705
     30 O30        -9.5890   27.7160   45.0240 O.3       1 518        -0.2411
     31 C31       -11.6380   27.0830   45.5880 C.2       1 518        -0.0216
     32 C32       -11.5220   27.0520   44.1260 C.ar      1 518        -0.0008
     33 C33       -10.2020   27.4640   43.8450 C.ar      1 518         0.1284
     34 C34        -9.8000   27.5350   42.5180 C.ar      1 518        -0.0282
     35 C35       -10.6790   27.2040   41.5010 C.ar      1 518        -0.0709
     36 C36       -11.9770   26.7950   41.7740 C.ar      1 518        -0.0739
     37 C37       -12.3940   26.7180   43.0750 C.ar      1 518        -0.0670
     38 H1         -9.4272   25.0503   49.6636 H         1 518         0.0511
     39 H2         -8.5518   24.9258   51.9469 H         1 518         0.0584
     40 H3         -6.6270   28.7175   51.4284 H         1 518         0.0584
     41 H4         -7.5262   28.8530   49.1373 H         1 518         0.0511
     42 H5         -6.4436   24.5938   53.2772 H         1 518         0.0366
     43 H6         -5.6196   25.1643   55.7863 H         1 518         0.0444
     44 H7         -6.7806   29.4830   55.2705 H         1 518         0.1868
     45 H8         -6.2053   30.1439   58.1498 H         1 518         0.0801
     46 H9         -4.8829   30.7296   55.6440 H         1 518         0.0348
     47 H10        -8.1396   31.3294   58.8761 H         1 518         0.1848
     48 H11        -8.5536   26.3996   47.2789 H         1 518         0.2270
     49 H12       -10.2995   32.2065   58.7105 H         1 518         0.0484
     50 H13       -10.4878   31.1651   57.2590 H         1 518         0.0484
     51 H14        -9.8041   32.8182   57.0959 H         1 518         0.0484
     52 H15        -5.8936   33.3299   56.8718 H         1 518         0.0270
     53 H16        -6.6753   32.5568   55.4513 H         1 518         0.0270
     54 H17        -4.8860   34.1721   54.7521 H         1 518         0.0265
     55 H18        -4.4936   32.4878   54.2668 H         1 518         0.0265
     56 H19        -3.3670   34.0683   56.6309 H         1 518         0.0265
     57 H20        -2.4847   33.4879   55.1778 H         1 518         0.0265
     58 H21        -2.0619   32.1299   57.2707 H         1 518         0.0265
     59 H22        -2.6977   31.1763   55.8876 H         1 518         0.0265
     60 H23        -3.8682   30.5516   58.0049 H         1 518         0.0270
     61 H24        -4.3755   32.2598   58.2317 H         1 518         0.0270
     62 H25       -12.5167   26.8266   46.1780 H         1 518         0.0460
     63 H26        -8.7917   27.8515   42.2768 H         1 518         0.0568
     64 H27       -10.3470   27.2655   40.4709 H         1 518         0.0563
     65 H28       -12.6527   26.5395   40.9658 H         1 518         0.0535
     66 H29       -13.4052   26.3968   43.2971 H         1 518         0.0568
@<TRIPOS>BOND
     1    1    2 ar 
     2    1    6 ar 
     3    1   20 1  
     4    2    3 ar 
     5    3    4 ar 
     6    4    5 ar 
     7    4    7 1  
     8    5    6 ar 
     9    7    8 2  
    10    7   11 1  
    11    8    9 1  
    12    9   10 2  
    13   10   11 1  
    14   10   12 1  
    15   12   13 2  
    16   12   14 am 
    17   14   15 1  
    18   15   16 1  
    19   15   17 1  
    20   16   18 am 
    21   16   19 2  
    22   17   22 1  
    23   17   26 1  
    24   18   21 1  
    25   20   27 am 
    26   22   23 1  
    27   23   24 1  
    28   24   25 1  
    29   25   26 1  
    30   27   28 1  
    31   27   29 2  
    32   28   30 1  
    33   28   31 2  
    34   30   33 1  
    35   31   32 1  
    36   32   33 ar 
    37   32   37 ar 
    38   33   34 ar 
    39   34   35 ar 
    40   35   36 ar 
    41   36   37 ar 
    42    2   38 1  
    43    3   39 1  
    44    5   40 1  
    45    6   41 1  
    46    8   42 1  
    47    9   43 1  
    48   14   44 1  
    49   15   45 1  
    50   17   46 1  
    51   18   47 1  
    52   20   48 1  
    53   21   49 1  
    54   21   50 1  
    55   21   51 1  
    56   22   52 1  
    57   22   53 1  
    58   23   54 1  
    59   23   55 1  
    60   24   56 1  
    61   24   57 1  
    62   25   58 1  
    63   25   59 1  
    64   26   60 1  
    65   26   61 1  
    66   31   62 1  
    67   34   63 1  
    68   35   64 1  
    69   36   65 1  
    70   37   66 1  
@<TRIPOS>SUBSTRUCTURE
     1 518         1

