### 
### Created by X-TOOL on Mon Sep 10 21:13:01 2018
### 

@<TRIPOS>MOLECULE
3i81_ligand
   56    61     1     0     0
SMALL
GAST_HUCK


@<TRIPOS>ATOM
      1 N1        -18.3780    3.4520   13.7700 N.2       1 EBI        -0.2321
      2 C2        -17.6390    3.7730   12.6790 C.2       1 EBI         0.0963
      3 C3        -17.2040    2.5050   12.1730 C.2       1 EBI        -0.0279
      4 C4        -17.7180    1.4640   13.0040 C.2       1 EBI         0.0681
      5 N5        -18.4220    2.1130   13.9560 N.pl3     1 EBI        -0.2354
      6 N6        -17.4110    5.1500   12.2280 N.pl3     1 EBI        -0.2482
      7 C7        -17.5350   -0.0710   12.8850 C.3       1 EBI         0.0593
      8 C8        -18.6680   -0.1660   11.9120 C.2       1 EBI        -0.0571
      9 C9        -17.2610   -0.2710   11.4390 C.2       1 EBI        -0.0571
     10 C10       -15.8040    8.8640   10.0900 C.2       1 EBI         0.0444
     11 C11       -16.5430    9.2850   11.2170 C.2       1 EBI        -0.0790
     12 C12       -17.0310    8.1530   11.8650 C.2       1 EBI        -0.0638
     13 C13       -16.5550    7.0380   11.0830 C.2       1 EBI         0.1405
     14 N14       -15.8110    7.5010   10.0080 N.pl3     1 EBI        -0.1840
     15 C15       -16.6790    5.6400   11.1720 C.2       1 EBI         0.1684
     16 N16       -16.1060    4.7940   10.2630 N.2       1 EBI        -0.2522
     17 N17       -15.2490    6.6110    9.1110 N.2       1 EBI        -0.1714
     18 C18       -15.3930    5.2770    9.2330 C.2       1 EBI         0.1760
     19 C19       -13.8850    4.9180    7.3560 C.3       1 EBI         0.0310
     20 C20       -13.2930    3.6710    6.7320 C.3       1 EBI        -0.0314
     21 C21       -14.3100    2.5760    7.0490 C.3       1 EBI        -0.0180
     22 C22       -15.1380    3.0050    8.2610 C.3       1 EBI         0.1362
     23 N23       -14.8300    4.4390    8.3370 N.pl3     1 EBI        -0.2718
     24 C24       -14.6090    2.0970    9.4260 C.2       1 EBI         0.2500
     25 N25       -13.5470    2.6210   10.1150 N.am      1 EBI        -0.2281
     26 O26       -15.1490    1.0140    9.6510 O.2       1 EBI        -0.3330
     27 C27       -16.6560    2.8120    8.0030 C.3       1 EBI        -0.0317
     28 C28       -12.8020    1.9700   11.0410 C.ar      1 EBI         0.0884
     29 C29       -11.3870    2.0410   11.0840 C.ar      1 EBI        -0.0241
     30 C30       -10.6260    1.3750   12.0340 C.ar      1 EBI        -0.0099
     31 C31       -11.3330    0.6180   12.9630 C.ar      1 EBI         0.1967
     32 N32       -12.7050    0.5260   12.9520 N.ar      1 EBI        -0.2810
     33 C33       -13.4300    1.1870   12.0130 C.ar      1 EBI         0.0262
     34 F34       -10.5700   -0.0180   13.8730 F         1 EBI        -0.1659
     35 H1        -16.5795    2.3584   11.2930 H         1 EBI         0.0191
     36 H2        -18.9271    1.6486   14.7242 H         1 EBI         0.2432
     37 H3        -17.8772    5.8705   12.7976 H         1 EBI         0.2168
     38 H4        -17.2267   -0.6999   13.7332 H         1 EBI         0.0634
     39 H5        -19.7368   -0.1616   11.7034 H         1 EBI         0.0633
     40 H6        -16.5490   -0.4003   10.6252 H         1 EBI         0.0633
     41 H7        -15.3019    9.5290    9.3888 H         1 EBI         0.0813
     42 H8        -16.7037   10.3168   11.5262 H         1 EBI         0.0317
     43 H9        -17.6402    8.1172   12.7670 H         1 EBI         0.0300
     44 H10       -14.3949    5.5257    6.5940 H         1 EBI         0.0519
     45 H11       -13.0994    5.5181    7.8383 H         1 EBI         0.0519
     46 H12       -12.3155    3.4371    7.1790 H         1 EBI         0.0284
     47 H13       -13.1789    3.7949    5.6450 H         1 EBI         0.0284
     48 H14       -13.7834    1.6372    7.2752 H         1 EBI         0.0277
     49 H15       -14.9724    2.4256    6.1838 H         1 EBI         0.0277
     50 H16       -13.2993    3.5693    9.9167 H         1 EBI         0.2275
     51 H17       -17.2221    3.1289    8.8913 H         1 EBI         0.0241
     52 H18       -16.8609    1.7511    7.7969 H         1 EBI         0.0241
     53 H19       -16.9611    3.4192    7.1380 H         1 EBI         0.0241
     54 H20       -10.8763    2.6429   10.3410 H         1 EBI         0.0613
     55 H21        -9.5441    1.4406   12.0514 H         1 EBI         0.0639
     56 H22       -14.5110    1.1060   12.0176 H         1 EBI         0.0689
@<TRIPOS>BOND
     1    2    1 2  
     2    1    5 1  
     3    2    3 1  
     4    6    2 1  
     5    3    4 2  
     6    4    5 1  
     7    4    7 1  
     8   15    6 1  
     9    7    8 1  
    10    7    9 1  
    11    9    8 2  
    12   10   11 2  
    13   14   10 1  
    14   12   11 1  
    15   13   12 2  
    16   14   13 1  
    17   15   13 1  
    18   17   14 1  
    19   16   15 2  
    20   18   16 1  
    21   18   17 2  
    22   23   18 1  
    23   19   20 1  
    24   19   23 1  
    25   20   21 1  
    26   21   22 1  
    27   22   23 1  
    28   22   24 1  
    29   22   27 1  
    30   24   25 am 
    31   24   26 2  
    32   25   28 1  
    33   28   29 ar 
    34   28   33 ar 
    35   29   30 ar 
    36   30   31 ar 
    37   31   32 ar 
    38   31   34 1  
    39   32   33 ar 
    40    3   35 1  
    41    5   36 1  
    42    6   37 1  
    43    7   38 1  
    44    8   39 1  
    45    9   40 1  
    46   10   41 1  
    47   11   42 1  
    48   12   43 1  
    49   19   44 1  
    50   19   45 1  
    51   20   46 1  
    52   20   47 1  
    53   21   48 1  
    54   21   49 1  
    55   25   50 1  
    56   27   51 1  
    57   27   52 1  
    58   27   53 1  
    59   29   54 1  
    60   30   55 1  
    61   33   56 1  
@<TRIPOS>SUBSTRUCTURE
     1 EBI         1

