### 
### Created by X-TOOL on Mon Sep 10 21:13:06 2018
### 

@<TRIPOS>MOLECULE
3i8t_ligand
   45    46     1     0     0
SMALL
GAST_HUCK


@<TRIPOS>ATOM
      1 C1         -1.0970   75.1660   21.3100 C.3       1 LBT         0.1884
      2 C2         -0.1650   75.9540   20.3790 C.3       1 LBT         0.1341
      3 C3         -0.1630   75.2540   19.0070 C.3       1 LBT         0.1141
      4 C4          0.1020   73.7560   19.1530 C.3       1 LBT         0.1119
      5 C5         -0.9200   73.1400   20.0960 C.3       1 LBT         0.1130
      6 C6         -0.8120   71.5940   20.2170 C.3       1 LBT         0.0730
      7 O1         -1.0060   75.6920   22.6070 O.3       1 LBT        -0.3401
      8 O2         -0.5990   77.3000   20.2360 O.3       1 LBT        -0.3841
      9 O3          0.8090   75.8110   18.1590 O.3       1 LBT        -0.3864
     10 O4          1.3860   73.5060   19.6730 O.3       1 LBT        -0.3865
     11 O5         -0.7440   73.7710   21.3470 O.3       1 LBT        -0.3405
     12 O6         -1.6520   71.1550   21.2660 O.3       1 LBT        -0.3924
     13 C1'        -3.2190   75.5210   26.1340 C.3       1 LBT         0.1854
     14 C2'        -2.0890   74.5100   25.9460 C.3       1 LBT         0.1339
     15 C3'        -1.1290   74.9400   24.8430 C.3       1 LBT         0.1144
     16 C4'        -1.9130   75.2320   23.5750 C.3       1 LBT         0.1184
     17 C5'        -3.0630   76.2430   23.8410 C.3       1 LBT         0.1134
     18 C6'        -3.9840   76.4580   22.6260 C.3       1 LBT         0.0730
     19 O1'        -2.6860   76.7170   26.6810 O.3       1 LBT        -0.3649
     20 O2'        -1.4010   74.4110   27.1660 O.3       1 LBT        -0.3841
     21 O3'        -0.1840   73.9230   24.6490 O.3       1 LBT        -0.3864
     22 O5'        -3.8820   75.7820   24.9080 O.3       1 LBT        -0.3407
     23 O6'        -4.6870   75.2570   22.2790 O.3       1 LBT        -0.3924
     24 H          -2.1142   75.2555   20.9286 H         1 LBT         0.0938
     25 H           0.8389   75.9770   20.8030 H         1 LBT         0.0671
     26 H          -1.1504   75.4018   18.5695 H         1 LBT         0.0648
     27 H           0.0278   73.3141   18.1594 H         1 LBT         0.0647
     28 H          -1.9215   73.3050   19.6986 H         1 LBT         0.0647
     29 H           0.2194   71.3130   20.4298 H         1 LBT         0.0584
     30 H          -1.1201   71.1294   19.2803 H         1 LBT         0.0584
     31 H          -0.5973   77.7286   21.0950 H         1 LBT         0.2101
     32 H           0.7614   75.3883   17.2984 H         1 LBT         0.2100
     33 H           1.4596   73.9016   20.5446 H         1 LBT         0.2100
     34 H          -1.3754   71.5649   22.0888 H         1 LBT         0.2095
     35 H          -3.9568   75.1050   26.8200 H         1 LBT         0.0935
     36 H          -2.5078   73.5480   25.6505 H         1 LBT         0.0671
     37 H          -0.6013   75.8520   25.1220 H         1 LBT         0.0648
     38 H          -2.3991   74.3270   23.2107 H         1 LBT         0.0651
     39 H          -2.5722   77.1869   24.0782 H         1 LBT         0.0647
     40 H          -3.3699   76.7559   21.7762 H         1 LBT         0.0584
     41 H          -4.7158   77.2250   22.8794 H         1 LBT         0.0584
     42 H          -2.2422   76.5189   27.5089 H         1 LBT         0.2126
     43 H          -0.6994   73.7607   27.0846 H         1 LBT         0.2101
     44 H          -0.6325   73.1181   24.3795 H         1 LBT         0.2100
     45 H          -4.0542   74.5683   22.0627 H         1 LBT         0.2095
@<TRIPOS>BOND
     1    1    2 1  
     2    7    1 1  
     3    1   11 1  
     4    2    3 1  
     5    2    8 1  
     6    3    4 1  
     7    3    9 1  
     8    5    4 1  
     9    4   10 1  
    10    5    6 1  
    11   11    5 1  
    12    6   12 1  
    13   16    7 1  
    14   14   13 1  
    15   13   19 1  
    16   13   22 1  
    17   15   14 1  
    18   14   20 1  
    19   15   16 1  
    20   15   21 1  
    21   16   17 1  
    22   17   18 1  
    23   17   22 1  
    24   18   23 1  
    25    1   24 1  
    26    2   25 1  
    27    3   26 1  
    28    4   27 1  
    29    5   28 1  
    30    6   29 1  
    31    6   30 1  
    32    8   31 1  
    33    9   32 1  
    34   10   33 1  
    35   12   34 1  
    36   13   35 1  
    37   14   36 1  
    38   15   37 1  
    39   16   38 1  
    40   17   39 1  
    41   18   40 1  
    42   18   41 1  
    43   19   42 1  
    44   20   43 1  
    45   21   44 1  
    46   23   45 1  
@<TRIPOS>SUBSTRUCTURE
     1 LBT         1

