### 
### Created by X-TOOL on Mon Sep 10 21:13:02 2018
### 

@<TRIPOS>MOLECULE
3ia6_ligand
   54    57     1     0     0
SMALL
GAST_HUCK


@<TRIPOS>ATOM
      1 O1         20.1120   63.1870   20.2090 O.co2     1 UNT        -0.5657
      2 C2         18.9330   63.4150   19.8110 C.2       1 UNT         0.0750
      3 O3         17.8920   63.5780   20.5050 O.co2     1 UNT        -0.5657
      4 C4         18.7030   63.5170   18.3010 C.3       1 UNT         0.1604
      5 N5         19.8650   64.1860   17.7290 N.pl3     1 UNT        -0.1090
      6 N6         19.8420   65.5210   17.5970 N.2       1 UNT        -0.1733
      7 C7         21.0370   65.7440   17.0510 C.2       1 UNT         0.0348
      8 C8         21.7190   64.5160   16.8840 C.2       1 UNT         0.0348
      9 N9         20.9550   63.5160   17.3230 N.2       1 UNT        -0.1733
     10 C10        18.6030   62.0530   17.8940 C.3       1 UNT         0.0245
     11 C11        18.2670   61.9260   16.4370 C.ar      1 UNT        -0.0448
     12 C12        16.9700   62.0320   15.9730 C.ar      1 UNT        -0.0666
     13 C13        16.6920   61.9110   14.6290 C.ar      1 UNT        -0.0668
     14 C14        17.7190   61.6840   13.7330 C.ar      1 UNT        -0.0496
     15 C15        19.0100   61.5750   14.1940 C.ar      1 UNT        -0.0668
     16 C16        19.2810   61.6940   15.5330 C.ar      1 UNT        -0.0666
     17 C17        17.5050   61.5320   12.2670 C.3       1 UNT        -0.0212
     18 C18        16.5400   62.5180   11.6710 C.3       1 UNT        -0.0390
     19 C19        16.7020   62.4240   10.1710 C.3       1 UNT        -0.0248
     20 C20        17.2150   63.6770    9.6000 C.2       1 UNT         0.0132
     21 N21        16.4230   64.7950    9.5350 N.2       1 UNT        -0.3130
     22 C22        17.2020   65.6960    8.9790 C.2       1 UNT         0.1880
     23 O23        18.4500   65.2560    8.6670 O.3       1 UNT        -0.2356
     24 C24        18.4520   63.9600    9.0690 C.2       1 UNT         0.1140
     25 C25        19.6910   63.1950    8.8590 C.3       1 UNT        -0.0015
     26 C26        16.9140   67.0690    8.6560 C.ar      1 UNT         0.0316
     27 C27        17.8920   67.8860    8.1270 C.ar      1 UNT        -0.0496
     28 C28        17.6060   69.1990    7.8220 C.ar      1 UNT        -0.0613
     29 C29        16.3430   69.7010    8.0460 C.ar      1 UNT        -0.0620
     30 C30        15.3640   68.8890    8.5740 C.ar      1 UNT        -0.0613
     31 C31        15.6520   67.5770    8.8790 C.ar      1 UNT        -0.0496
     32 H1         17.7835   64.0663   18.0506 H         1 UNT         0.0893
     33 H2         21.4286   66.7221   16.7755 H         1 UNT         0.0727
     34 H3         22.7164   64.4047   16.4612 H         1 UNT         0.0727
     35 H4         17.8163   61.5663   18.4891 H         1 UNT         0.0464
     36 H5         19.5668   61.5588   18.0861 H         1 UNT         0.0464
     37 H6         16.1627   62.2122   16.6736 H         1 UNT         0.0540
     38 H7         15.6706   61.9936   14.2756 H         1 UNT         0.0540
     39 H8         19.8183   61.3939   13.4947 H         1 UNT         0.0540
     40 H9         20.3028   61.6047   15.8838 H         1 UNT         0.0540
     41 H10        17.1201   60.5188   12.0795 H         1 UNT         0.0414
     42 H11        18.4755   61.6545   11.7639 H         1 UNT         0.0414
     43 H12        16.7753   63.5358   12.0155 H         1 UNT         0.0300
     44 H13        15.5095   62.2625   11.9586 H         1 UNT         0.0300
     45 H14        15.7238   62.2011    9.7201 H         1 UNT         0.0359
     46 H15        17.4065   61.6118    9.9387 H         1 UNT         0.0359
     47 H16        20.4463   63.8421    8.3892 H         1 UNT         0.0409
     48 H17        19.4850   62.3362    8.2033 H         1 UNT         0.0409
     49 H18        20.0682   62.8348    9.8275 H         1 UNT         0.0409
     50 H19        18.8873   67.4942    7.9510 H         1 UNT         0.0626
     51 H20        18.3762   69.8378    7.4051 H         1 UNT         0.0617
     52 H21        16.1198   70.7345    7.8068 H         1 UNT         0.0615
     53 H22        14.3689   69.2815    8.7492 H         1 UNT         0.0617
     54 H23        14.8812   66.9397    9.2971 H         1 UNT         0.0626
@<TRIPOS>BOND
     1    1    2 ar 
     2    2    3 ar 
     3    2    4 1  
     4    4    5 1  
     5    4   10 1  
     6    5    6 1  
     7    5    9 1  
     8    6    7 2  
     9    7    8 1  
    10    8    9 2  
    11   10   11 1  
    12   11   12 ar 
    13   11   16 ar 
    14   12   13 ar 
    15   13   14 ar 
    16   14   15 ar 
    17   14   17 1  
    18   15   16 ar 
    19   17   18 1  
    20   18   19 1  
    21   19   20 1  
    22   20   21 1  
    23   20   24 2  
    24   21   22 2  
    25   22   23 1  
    26   22   26 1  
    27   23   24 1  
    28   24   25 1  
    29   26   27 ar 
    30   26   31 ar 
    31   27   28 ar 
    32   28   29 ar 
    33   29   30 ar 
    34   30   31 ar 
    35    4   32 1  
    36    7   33 1  
    37    8   34 1  
    38   10   35 1  
    39   10   36 1  
    40   12   37 1  
    41   13   38 1  
    42   15   39 1  
    43   16   40 1  
    44   17   41 1  
    45   17   42 1  
    46   18   43 1  
    47   18   44 1  
    48   19   45 1  
    49   19   46 1  
    50   25   47 1  
    51   25   48 1  
    52   25   49 1  
    53   27   50 1  
    54   28   51 1  
    55   29   52 1  
    56   30   53 1  
    57   31   54 1  
@<TRIPOS>SUBSTRUCTURE
     1 UNT         1

