### 
### Created by X-TOOL on Mon Sep 10 21:13:04 2018
### 

@<TRIPOS>MOLECULE
3iad_ligand
   47    49     1     0     0
SMALL
GAST_HUCK


@<TRIPOS>ATOM
      1 C1         22.7280   -6.9260   32.5510 C.ar      1 15X        -0.0023
      2 C2         23.7980   -7.6260   32.0000 C.ar      1 15X        -0.0197
      3 C3         24.0620   -8.9420   32.3790 C.ar      1 15X         0.0856
      4 C4         23.2290   -9.5510   33.3150 C.ar      1 15X        -0.0274
      5 C5         22.1500   -8.8520   33.8610 C.ar      1 15X        -0.0529
      6 C6         21.8910   -7.5420   33.4750 C.ar      1 15X        -0.0483
      7 C13        21.9200   -2.9210   31.0500 C.ar      1 15X        -0.0270
      8 C14        21.9750   -3.9730   30.1330 C.ar      1 15X         0.0545
      9 C15        22.2490   -5.3420   30.6390 C.ar      1 15X         0.1740
     10 C16        22.4640   -5.5410   32.0890 C.ar      1 15X         0.0770
     11 C17        22.3830   -4.3650   32.9880 C.ar      1 15X         0.1362
     12 C18        22.1160   -3.1070   32.4250 C.ar      1 15X        -0.0035
     13 C26        21.7650   -3.7260   28.6470 C.3       1 15X         0.0783
     14 C28        20.6390   -4.5900   28.1350 C.ar      1 15X         0.0753
     15 C30        20.8920   -5.7970   27.4800 C.ar      1 15X         0.0397
     16 C31        19.8420   -6.5970   27.0240 C.ar      1 15X         0.0799
     17 C32        18.5120   -6.1960   27.2040 C.ar      1 15X         0.2426
     18 C33        18.2840   -4.9860   27.8660 C.ar      1 15X         0.0799
     19 C34        19.3260   -4.1850   28.3270 C.ar      1 15X         0.0397
     20 C43        22.8380   -3.4540   35.2200 C.3       1 15X         0.0701
     21 O43        22.5770   -4.5430   34.3370 O.3       1 15X        -0.2950
     22 N47        25.1590   -9.6290   31.8220 N.2       1 15X        -0.2161
     23 O49        25.3700  -10.8050   32.0950 O.2       1 15X        -0.4884
     24 N51        17.3810   -6.8720   26.8370 N.am      1 15X        -0.1113
     25 O51        26.0270   -8.9730   30.9450 O.2       1 15X        -0.4884
     26 C53        17.2050   -8.1250   26.3590 C.2       1 15X         0.3931
     27 N55        18.1480   -9.0010   25.9820 N.am      1 15X        -0.2592
     28 O57        16.0460   -8.5010   26.2890 O.2       1 15X        -0.3317
     29 F59        22.3170   -6.4070   29.8180 F         1 15X        -0.1751
     30 H          24.4373   -7.1395   31.2633 H         1 15X         0.0697
     31 H          23.4204  -10.5789   33.6230 H         1 15X         0.0695
     32 H          21.5065   -9.3372   34.5949 H         1 15X         0.0635
     33 H          21.0404   -7.0030   33.8924 H         1 15X         0.0665
     34 H          21.7166   -1.9155   30.6816 H         1 15X         0.0719
     35 H          22.0589   -2.2404   33.0837 H         1 15X         0.0635
     36 H          22.6802   -3.9735   28.1092 H         1 15X         0.1014
     37 H          21.5127   -2.6773   28.4897 H         1 15X         0.1014
     38 H          21.9215   -6.1187   27.3227 H         1 15X         0.0930
     39 H          20.0592   -7.5409   26.5241 H         1 15X         0.1089
     40 H          17.2568   -4.6586   28.0267 H         1 15X         0.1089
     41 H          19.1111   -3.2453   28.8357 H         1 15X         0.0930
     42 H          23.7521   -2.9476   34.9100 H         1 15X         0.0603
     43 H          22.0038   -2.7532   35.1870 H         1 15X         0.0603
     44 H          22.9569   -3.8318   36.2355 H         1 15X         0.0603
     45 H          16.5188   -6.3373   26.9423 H         1 15X         0.3597
     46 H          17.8803   -9.9299   25.6567 H         1 15X         0.1843
     47 H          19.1328   -8.7383   26.0206 H         1 15X         0.1843
@<TRIPOS>BOND
     1    1    2 ar 
     2    1    6 ar 
     3   10    1 1  
     4    2    3 ar 
     5    3    4 ar 
     6    3   22 1  
     7    5    4 ar 
     8    6    5 ar 
     9    8    7 ar 
    10    7   12 ar 
    11    9    8 ar 
    12    8   13 1  
    13    9   10 ar 
    14    9   29 1  
    15   10   11 ar 
    16   11   12 ar 
    17   11   21 1  
    18   13   14 1  
    19   14   15 ar 
    20   14   19 ar 
    21   15   16 ar 
    22   16   17 ar 
    23   17   18 ar 
    24   17   24 1  
    25   18   19 ar 
    26   21   20 1  
    27   22   23 2  
    28   22   25 2  
    29   24   26 am 
    30   26   27 am 
    31   26   28 2  
    32    2   30 1  
    33    4   31 1  
    34    5   32 1  
    35    6   33 1  
    36    7   34 1  
    37   12   35 1  
    38   13   36 1  
    39   13   37 1  
    40   15   38 1  
    41   16   39 1  
    42   18   40 1  
    43   19   41 1  
    44   20   42 1  
    45   20   43 1  
    46   20   44 1  
    47   24   45 1  
    48   27   46 1  
    49   27   47 1  
@<TRIPOS>SUBSTRUCTURE
     1 15X         1

