### 
### Created by X-TOOL on Mon Sep 10 21:13:01 2018
### 

@<TRIPOS>MOLECULE
3ibc_ligand
   68    68     1     0     0
SMALL
GAST_HUCK


@<TRIPOS>ATOM
      1 C          58.3130  -29.6500   -1.3870 C.2       1 ACE         0.1752
      2 O          59.2820  -29.1560   -0.8530 O.2       1 ACE        -0.3972
      3 CH3        58.5140  -30.7860   -2.3560 C.3       1 ACE         0.0258
      4 N          57.0460  -29.5540   -0.8340 N.am      1 TYR        -0.2643
      5 CA         56.4850  -28.2810   -0.3460 C.3       1 TYR         0.1389
      6 C          56.5200  -27.0970   -1.3130 C.2       1 TYR         0.2057
      7 O          57.5780  -26.5600   -1.6330 O.2       1 TYR        -0.3942
      8 CB         57.2550  -28.0170    0.9510 C.3       1 TYR         0.0163
      9 CG         56.9040  -28.9940    2.0510 C.ar      1 TYR        -0.0493
     10 CD1        57.8730  -29.4500    2.9430 C.ar      1 TYR        -0.0685
     11 CD2        55.5920  -29.4520    2.2110 C.ar      1 TYR        -0.0685
     12 CE1        57.5480  -30.3390    3.9720 C.ar      1 TYR        -0.0398
     13 CE2        55.2540  -30.3370    3.2340 C.ar      1 TYR        -0.0398
     14 CZ         56.2350  -30.7770    4.1130 C.ar      1 TYR         0.0805
     15 OH         55.8990  -31.6340    5.1410 O.3       1 TYR        -0.3376
     16 N          55.3350  -26.7030   -1.7660 N.am      1 VAL        -0.2633
     17 CA         55.1660  -25.5960   -2.6970 C.3       1 VAL         0.1333
     18 C          54.0210  -24.7380   -2.1580 C.2       1 VAL         0.2041
     19 O          53.4160  -25.0850   -1.1490 O.2       1 VAL        -0.3944
     20 CB         54.7920  -26.1240   -4.1040 C.3       1 VAL        -0.0063
     21 CG1        54.8320  -24.9980   -5.1220 C.3       1 VAL        -0.0584
     22 CG2        55.7310  -27.2490   -4.4990 C.3       1 VAL        -0.0584
     23 N          53.7280  -23.6220   -2.8220 N.am      1 ALA        -0.2640
     24 CA         52.6420  -22.7400   -2.3930 C.3       1 ALA         0.1281
     25 C          51.5800  -22.6350   -3.4940 C.2       1 ALA         0.2018
     26 O          51.8940  -22.7570   -4.6800 O.2       1 ALA        -0.3945
     27 CB         53.1940  -21.3560   -2.0460 C.3       1 ALA        -0.0244
     28 N          50.3240  -22.4230   -3.0980 N.am      1 ASP        -0.2782
     29 CA         49.2140  -22.3090   -4.0540 C.3       1 ASP         0.0764
     30 C          48.5600  -20.9310   -4.0420 C.3       1 ASP         0.0687
     31 O          48.6870  -20.2960   -5.3290 O.3       1 ASP        -0.3926
     32 CB         48.1180  -23.3380   -3.7480 C.3       1 ASP         0.0254
     33 CG         48.3740  -24.6780   -4.3980 C.2       1 ASP         0.0371
     34 OD1        47.9020  -25.6950   -3.8470 O.co2     1 ASP        -0.5689
     35 OD2        49.0440  -24.7140   -5.4540 O.co2     1 ASP        -0.5689
     36 H1         57.5384  -31.1130   -2.7451 H         1 ACE         0.0467
     37 H2         59.0032  -31.6256   -1.8404 H         1 ACE         0.0467
     38 H3         59.1470  -30.4489   -3.1900 H         1 ACE         0.0467
     39 H4         56.4896  -30.3819   -0.7631 H         1 TYR         0.1884
     40 H5         55.4256  -28.4477   -0.1015 H         1 TYR         0.0821
     41 H6         57.0215  -26.9994    1.2973 H         1 TYR         0.0453
     42 H7         58.3322  -28.0952    0.7422 H         1 TYR         0.0453
     43 H8         58.8966  -29.1094    2.8371 H         1 TYR         0.0530
     44 H9         54.8232  -29.1123    1.5264 H         1 TYR         0.0530
     45 H10        58.3145  -30.6850    4.6559 H         1 TYR         0.0525
     46 H11        54.2313  -30.6797    3.3426 H         1 TYR         0.0525
     47 H12        56.6760  -31.8389    5.6478 H         1 TYR         0.2458
     48 H13        54.5198  -27.1900   -1.4526 H         1 VAL         0.1883
     49 H14        56.0923  -25.0059   -2.7572 H         1 VAL         0.0802
     50 H15        53.7672  -26.5220   -4.0680 H         1 VAL         0.0343
     51 H16        54.5641  -25.3908   -6.1139 H         1 VAL         0.0234
     52 H17        55.8455  -24.5719   -5.1579 H         1 VAL         0.0234
     53 H18        54.1154  -24.2156   -4.8317 H         1 VAL         0.0234
     54 H19        55.6819  -28.0491   -3.7457 H         1 VAL         0.0234
     55 H20        56.7598  -26.8641   -4.5585 H         1 VAL         0.0234
     56 H21        55.4320  -27.6492   -5.4790 H         1 VAL         0.0234
     57 H22        54.2621  -23.3810   -3.6323 H         1 ALA         0.1883
     58 H23        52.1746  -23.1675   -1.4937 H         1 ALA         0.0797
     59 H24        52.3695  -20.7023   -1.7252 H         1 ALA         0.0277
     60 H25        53.6817  -20.9231   -2.9318 H         1 ALA         0.0277
     61 H26        53.9276  -21.4475   -1.2314 H         1 ALA         0.0277
     62 H27        50.1319  -22.3391   -2.1202 H         1 ASP         0.1857
     63 H28        49.6135  -22.4996   -5.0610 H         1 ASP         0.0597
     64 H29        49.0494  -20.3056   -3.2809 H         1 ASP         0.0581
     65 H30        47.4932  -21.0397   -3.7967 H         1 ASP         0.0581
     66 H31        48.2628  -20.8321   -5.9886 H         1 ASP         0.2095
     67 H32        47.1572  -22.9475   -4.1146 H         1 ASP         0.0454
     68 H33        48.0642  -23.4806   -2.6586 H         1 ASP         0.0454
@<TRIPOS>BOND
     1    1    2 2  
     2    1    3 1  
     3    1    4 am 
     4    4    5 1  
     5    5    6 1  
     6    5    8 1  
     7    6    7 2  
     8    6   16 am 
     9    8    9 1  
    10    9   10 ar 
    11    9   11 ar 
    12   10   12 ar 
    13   11   13 ar 
    14   12   14 ar 
    15   13   14 ar 
    16   14   15 1  
    17   16   17 1  
    18   17   18 1  
    19   17   20 1  
    20   18   19 2  
    21   18   23 am 
    22   20   21 1  
    23   20   22 1  
    24   23   24 1  
    25   24   25 1  
    26   24   27 1  
    27   25   26 2  
    28   25   28 am 
    29   28   29 1  
    30   29   30 1  
    31   29   32 1  
    32   30   31 1  
    33   32   33 1  
    34   33   34 ar 
    35   33   35 ar 
    36    3   36 1  
    37    3   37 1  
    38    3   38 1  
    39    4   39 1  
    40    5   40 1  
    41    8   41 1  
    42    8   42 1  
    43   10   43 1  
    44   11   44 1  
    45   12   45 1  
    46   13   46 1  
    47   15   47 1  
    48   16   48 1  
    49   17   49 1  
    50   20   50 1  
    51   21   51 1  
    52   21   52 1  
    53   21   53 1  
    54   22   54 1  
    55   22   55 1  
    56   22   56 1  
    57   23   57 1  
    58   24   58 1  
    59   27   59 1  
    60   27   60 1  
    61   27   61 1  
    62   28   62 1  
    63   29   63 1  
    64   30   64 1  
    65   30   65 1  
    66   31   66 1  
    67   32   67 1  
    68   32   68 1  
@<TRIPOS>SUBSTRUCTURE
     1 ACE         1

