### 
### Created by X-TOOL on Mon Sep 10 21:12:59 2018
### 

@<TRIPOS>MOLECULE
3ibi_ligand
   32    31     1     0     0
SMALL
GAST_HUCK


@<TRIPOS>ATOM
      1 C1         -4.6580    1.9510   14.4930 C.3       1 BOW         0.0782
      2 N1         -5.2710   -0.5540   16.0610 N.am      1 BOW        -0.2415
      3 O1         -7.0460    1.1170   16.2820 O.2       1 BOW        -0.1270
      4 S1         -5.7060    0.8470   16.6520 S.o2      1 BOW         0.1597
      5 C2         -5.3980    3.1770   13.9770 C.3       1 BOW        -0.0271
      6 O2         -5.3650    0.8830   18.0280 O.2       1 BOW        -0.1270
      7 C3         -4.8030    4.4940   14.4150 C.3       1 BOW        -0.0509
      8 O3         -4.7890    1.9390   15.9590 O.3       1 BOW        -0.2228
      9 C4         -3.6880    4.9990   13.5300 C.3       1 BOW        -0.0530
     10 C5         -2.8810    6.1030   14.1580 C.3       1 BOW        -0.0531
     11 C6         -2.1790    6.9960   13.1630 C.3       1 BOW        -0.0533
     12 C7         -1.0890    7.8710   13.7560 C.3       1 BOW        -0.0559
     13 C8         -1.5530    8.8460   14.8090 C.3       1 BOW        -0.0653
     14 H1         -3.5961    2.0072   14.2114 H         1 BOW         0.0584
     15 H2         -5.1020    1.0383   14.0689 H         1 BOW         0.0584
     16 H3         -5.7281   -1.3893   16.3666 H         1 BOW         0.1654
     17 H4         -4.5389   -0.6046   15.3817 H         1 BOW         0.1654
     18 H5         -6.4355    3.1306   14.3394 H         1 BOW         0.0288
     19 H6         -5.3918    3.1453   12.8775 H         1 BOW         0.0288
     20 H7         -4.4052    4.3704   15.4331 H         1 BOW         0.0266
     21 H8         -5.6040    5.2478   14.4233 H         1 BOW         0.0266
     22 H9         -4.1283    5.3770   12.5956 H         1 BOW         0.0265
     23 H10        -3.0142    4.1593   13.3045 H         1 BOW         0.0265
     24 H11        -2.1209    5.6476   14.8098 H         1 BOW         0.0265
     25 H12        -3.5577    6.7246   14.7627 H         1 BOW         0.0265
     26 H13        -2.9313    7.6518   12.7005 H         1 BOW         0.0265
     27 H14        -1.7243    6.3580   12.3909 H         1 BOW         0.0265
     28 H15        -0.6307    8.4458   12.9378 H         1 BOW         0.0263
     29 H16        -0.3334    7.2132   14.2101 H         1 BOW         0.0263
     30 H17        -0.6940    9.4289   15.1730 H         1 BOW         0.0230
     31 H18        -2.0030    8.2938   15.6472 H         1 BOW         0.0230
     32 H19        -2.3003    9.5265   14.3749 H         1 BOW         0.0230
@<TRIPOS>BOND
     1    1    5 1  
     2    8    1 1  
     3    4    2 am 
     4    4    3 2  
     5    4    6 2  
     6    4    8 1  
     7    5    7 1  
     8    7    9 1  
     9    9   10 1  
    10   10   11 1  
    11   11   12 1  
    12   12   13 1  
    13    1   14 1  
    14    1   15 1  
    15    2   16 1  
    16    2   17 1  
    17    5   18 1  
    18    5   19 1  
    19    7   20 1  
    20    7   21 1  
    21    9   22 1  
    22    9   23 1  
    23   10   24 1  
    24   10   25 1  
    25   11   26 1  
    26   11   27 1  
    27   12   28 1  
    28   12   29 1  
    29   13   30 1  
    30   13   31 1  
    31   13   32 1  
@<TRIPOS>SUBSTRUCTURE
     1 BOW         1

