### 
### Created by X-TOOL on Mon Sep 10 21:13:00 2018
### 

@<TRIPOS>MOLECULE
3ibl_ligand
   38    37     1     0     0
SMALL
GAST_HUCK


@<TRIPOS>ATOM
      1 C1         -4.7710    1.9230   14.5970 C.3       1 O59         0.0782
      2 N1         -5.3700   -0.4660   16.2230 N.am      1 O59        -0.2415
      3 O1         -7.1920    1.1550   16.3950 O.2       1 O59        -0.1270
      4 S1         -5.8350    0.9300   16.7690 S.o2      1 O59         0.1597
      5 C2         -4.1010    3.1800   14.1260 C.3       1 O59        -0.0271
      6 N2         -0.9460   11.6960   11.9910 N.am      1 O59        -0.2415
      7 O2         -5.4500    1.0310   18.1450 O.2       1 O59        -0.1270
      8 S2         -1.6330   11.7780   13.4050 S.o2      1 O59         0.1597
      9 C3         -4.9880    4.3970   14.1490 C.3       1 O59        -0.0509
     10 O3         -5.0200    2.0690   16.0500 O.3       1 O59        -0.2228
     11 C4         -4.3700    5.6210   13.5210 C.3       1 O59        -0.0530
     12 O4         -1.9850   10.3210   13.9010 O.3       1 O59        -0.2228
     13 C5         -3.2310    6.2150   14.3050 C.3       1 O59        -0.0530
     14 O5         -0.6810   12.2730   14.3520 O.2       1 O59        -0.1270
     15 C6         -2.4360    7.2380   13.5510 C.3       1 O59        -0.0509
     16 O6         -2.9000   12.4200   13.2530 O.2       1 O59        -0.1270
     17 C7         -1.5010    8.0300   14.4230 C.3       1 O59        -0.0271
     18 C8         -0.9550    9.2670   13.7690 C.3       1 O59         0.0782
     19 H1         -4.1176    1.0575   14.4131 H         1 O59         0.0584
     20 H2         -5.7235    1.7830   14.0649 H         1 O59         0.0584
     21 H3         -5.7871   -1.3043   16.5740 H         1 O59         0.1654
     22 H4         -4.6566   -0.5171   15.5241 H         1 O59         0.1654
     23 H5         -3.7583    3.0222   13.0927 H         1 O59         0.0288
     24 H6         -3.2337    3.3727   14.7746 H         1 O59         0.0288
     25 H7         -0.6559   12.5329   11.5268 H         1 O59         0.1654
     26 H8         -0.7997   10.8070   11.5570 H         1 O59         0.1654
     27 H9         -5.2277    4.6301   15.1969 H         1 O59         0.0266
     28 H10        -5.9142    4.1599   13.6050 H         1 O59         0.0266
     29 H11        -5.1527    6.3870   13.4177 H         1 O59         0.0265
     30 H12        -3.9943    5.3440   12.5250 H         1 O59         0.0265
     31 H13        -2.5534    5.4005   14.6007 H         1 O59         0.0265
     32 H14        -3.6439    6.6935   15.2053 H         1 O59         0.0265
     33 H15        -3.1354    7.9352   13.0665 H         1 O59         0.0266
     34 H16        -1.8423    6.7211   12.7827 H         1 O59         0.0266
     35 H17        -0.6553    7.3834   14.6999 H         1 O59         0.0288
     36 H18        -2.0455    8.3303   15.3304 H         1 O59         0.0288
     37 H19        -0.0278    9.5808   14.2707 H         1 O59         0.0584
     38 H20        -0.7490    9.0720   12.7062 H         1 O59         0.0584
@<TRIPOS>BOND
     1    5    1 1  
     2    1   10 1  
     3    4    2 am 
     4    4    3 2  
     5    4    7 2  
     6   10    4 1  
     7    9    5 1  
     8    8    6 am 
     9   12    8 1  
    10    8   14 2  
    11    8   16 2  
    12   11    9 1  
    13   13   11 1  
    14   18   12 1  
    15   15   13 1  
    16   17   15 1  
    17   17   18 1  
    18    1   19 1  
    19    1   20 1  
    20    2   21 1  
    21    2   22 1  
    22    5   23 1  
    23    5   24 1  
    24    6   25 1  
    25    6   26 1  
    26    9   27 1  
    27    9   28 1  
    28   11   29 1  
    29   11   30 1  
    30   13   31 1  
    31   13   32 1  
    32   15   33 1  
    33   15   34 1  
    34   17   35 1  
    35   17   36 1  
    36   18   37 1  
    37   18   38 1  
@<TRIPOS>SUBSTRUCTURE
     1 O59         1

