### 
### Created by X-TOOL on Mon Sep 10 21:13:00 2018
### 

@<TRIPOS>MOLECULE
3ibn_ligand
   44    43     1     0     0
SMALL
GAST_HUCK


@<TRIPOS>ATOM
      1 C1         -4.9460    1.8050   14.4600 C.3       1 O60         0.0782
      2 N1         -5.3180   -0.5460   16.0850 N.am      1 O60        -0.2415
      3 O1         -7.1370    1.0470   16.4420 O.2       1 O60        -0.1270
      4 S1         -5.7620    0.8380   16.7080 S.o2      1 O60         0.1597
      5 C2         -4.3150    3.0270   13.9130 C.3       1 O60        -0.0271
      6 N2         -2.0740   12.5430   10.5550 N.am      1 O60        -0.2415
      7 O2         -5.2890    0.8990   18.0460 O.2       1 O60        -0.1270
      8 S2         -2.4700   13.1470   11.9690 S.o2      1 O60         0.1597
      9 C3         -5.1070    4.2790   14.1520 C.3       1 O60        -0.0509
     10 O3         -4.9990    1.9510   15.9130 O.3       1 O60        -0.2228
     11 C4         -4.4740    5.5070   13.5580 C.3       1 O60        -0.0530
     12 O4         -2.4550   11.9550   12.9930 O.3       1 O60        -0.2228
     13 C5         -3.1600    5.8790   14.1790 C.3       1 O60        -0.0531
     14 O5         -1.4450   14.0450   12.3870 O.2       1 O60        -0.1270
     15 C6         -2.5190    7.0420   13.5440 C.3       1 O60        -0.0531
     16 O6         -3.8210   13.5980   11.9070 O.2       1 O60        -0.1270
     17 C7         -1.2880    7.5110   14.2610 C.3       1 O60        -0.0530
     18 C8         -0.7140    8.7900   13.7140 C.3       1 O60        -0.0509
     19 C9         -1.6160    9.9720   13.8960 C.3       1 O60        -0.0271
     20 C10        -1.2730   11.1070   13.0280 C.3       1 O60         0.0782
     21 H1         -4.3476    0.9215   14.1929 H         1 O60         0.0584
     22 H2         -5.9633    1.6946   14.0563 H         1 O60         0.0584
     23 H3         -5.6901   -1.4002   16.4482 H         1 O60         0.1654
     24 H4         -4.6651   -0.5670   15.3279 H         1 O60         0.1654
     25 H5         -4.1916    2.8971   12.8277 H         1 O60         0.0288
     26 H6         -3.3275    3.1469   14.3826 H         1 O60         0.0288
     27 H7         -2.0232   13.1386    9.7533 H         1 O60         0.1654
     28 H8         -1.8754   11.5670   10.4661 H         1 O60         0.1654
     29 H9         -5.2057    4.4276   15.2374 H         1 O60         0.0266
     30 H10        -6.1049    4.1509   13.7072 H         1 O60         0.0266
     31 H11        -5.1682    6.3505   13.6868 H         1 O60         0.0265
     32 H12        -4.3106    5.3271   12.4852 H         1 O60         0.0265
     33 H13        -2.4798    5.0185   14.0966 H         1 O60         0.0265
     34 H14        -3.3300    6.1117   15.2406 H         1 O60         0.0265
     35 H15        -3.2439    7.8689   13.5192 H         1 O60         0.0265
     36 H16        -2.2401    6.7678   12.5159 H         1 O60         0.0265
     37 H17        -0.5214    6.7260   14.1828 H         1 O60         0.0265
     38 H18        -1.5430    7.6705   15.3191 H         1 O60         0.0265
     39 H19        -0.5270    8.6564   12.6383 H         1 O60         0.0266
     40 H20         0.2364    8.9941   14.2289 H         1 O60         0.0266
     41 H21        -1.5513   10.3020   14.9433 H         1 O60         0.0288
     42 H22        -2.6473    9.6614   13.6725 H         1 O60         0.0288
     43 H23        -0.4174   11.6604   13.4424 H         1 O60         0.0584
     44 H24        -1.0258   10.7535   12.0161 H         1 O60         0.0584
@<TRIPOS>BOND
     1    5    1 1  
     2    1   10 1  
     3    4    2 am 
     4    4    3 2  
     5    4    7 2  
     6   10    4 1  
     7    9    5 1  
     8    8    6 am 
     9   12    8 1  
    10    8   14 2  
    11    8   16 2  
    12   11    9 1  
    13   13   11 1  
    14   20   12 1  
    15   15   13 1  
    16   17   15 1  
    17   18   17 1  
    18   19   18 1  
    19   19   20 1  
    20    1   21 1  
    21    1   22 1  
    22    2   23 1  
    23    2   24 1  
    24    5   25 1  
    25    5   26 1  
    26    6   27 1  
    27    6   28 1  
    28    9   29 1  
    29    9   30 1  
    30   11   31 1  
    31   11   32 1  
    32   13   33 1  
    33   13   34 1  
    34   15   35 1  
    35   15   36 1  
    36   17   37 1  
    37   17   38 1  
    38   18   39 1  
    39   18   40 1  
    40   19   41 1  
    41   19   42 1  
    42   20   43 1  
    43   20   44 1  
@<TRIPOS>SUBSTRUCTURE
     1 O60         1

