### 
### Created by X-TOOL on Mon Sep 10 21:13:00 2018
### 

@<TRIPOS>MOLECULE
3ibu_ligand
   38    37     1     0     0
SMALL
GAST_HUCK


@<TRIPOS>ATOM
      1 C1         -4.6680    1.9020   14.5860 C.3       1 O48         0.0782
      2 N1         -5.3980   -0.4970   16.2450 N.am      1 O48        -0.2415
      3 O1         -7.1440    1.2230   16.4020 O.2       1 O48        -0.1270
      4 S1         -5.8020    0.9370   16.7630 S.o2      1 O48         0.1597
      5 C2         -5.4780    2.9970   13.9150 C.3       1 O48        -0.0271
      6 O2         -5.4290    1.0410   18.1290 O.2       1 O48        -0.1270
      7 C3         -5.1300    4.4160   14.3470 C.3       1 O48        -0.0509
      8 O3         -4.8870    1.9950   16.0290 O.3       1 O48        -0.2228
      9 C4         -3.8390    4.9640   13.7830 C.3       1 O48        -0.0530
     10 C5         -3.5370    6.3600   14.2650 C.3       1 O48        -0.0531
     11 C6         -2.2240    6.9060   13.7890 C.3       1 O48        -0.0531
     12 C7         -1.9070    8.2760   14.3350 C.3       1 O48        -0.0531
     13 C8         -0.5010    8.7210   14.0400 C.3       1 O48        -0.0533
     14 C9         -0.2680   10.2040   14.1970 C.3       1 O48        -0.0559
     15 C10         0.1650   10.6270   15.5670 C.3       1 O48        -0.0653
     16 H1         -3.5997    2.0375   14.3615 H         1 O48         0.0584
     17 H2         -4.9974    0.9178   14.2215 H         1 O48         0.0584
     18 H3         -5.8690   -1.3064   16.5958 H         1 O48         0.1654
     19 H4         -4.6709   -0.5968   15.5658 H         1 O48         0.1654
     20 H5         -6.5401    2.8227   14.1418 H         1 O48         0.0288
     21 H6         -5.3179    2.9225   12.8293 H         1 O48         0.0288
     22 H7         -5.0539    4.4283   15.4443 H         1 O48         0.0266
     23 H8         -5.9483    5.0786   14.0287 H         1 O48         0.0266
     24 H9         -3.9135    4.9795   12.6856 H         1 O48         0.0265
     25 H10        -3.0143    4.3018   14.0852 H         1 O48         0.0265
     26 H11        -3.5278    6.3504   15.3649 H         1 O48         0.0265
     27 H12        -4.3364    7.0274   13.9108 H         1 O48         0.0265
     28 H13        -2.2499    6.9666   12.6910 H         1 O48         0.0265
     29 H14        -1.4266    6.2148   14.0994 H         1 O48         0.0265
     30 H15        -2.0463    8.2583   15.4260 H         1 O48         0.0265
     31 H16        -2.6038    9.0003   13.8880 H         1 O48         0.0265
     32 H17        -0.2635    8.4439   13.0023 H         1 O48         0.0265
     33 H18         0.1777    8.1922   14.7253 H         1 O48         0.0265
     34 H19        -1.2064   10.7257   13.9578 H         1 O48         0.0263
     35 H20         0.5119   10.5060   13.4825 H         1 O48         0.0263
     36 H21         0.3095   11.7173   15.5855 H         1 O48         0.0230
     37 H22         1.1109   10.1274   15.8232 H         1 O48         0.0230
     38 H23        -0.6074   10.3471   16.2985 H         1 O48         0.0230
@<TRIPOS>BOND
     1    1    5 1  
     2    8    1 1  
     3    4    2 am 
     4    4    3 2  
     5    4    6 2  
     6    4    8 1  
     7    5    7 1  
     8    7    9 1  
     9    9   10 1  
    10   10   11 1  
    11   11   12 1  
    12   12   13 1  
    13   13   14 1  
    14   14   15 1  
    15    1   16 1  
    16    1   17 1  
    17    2   18 1  
    18    2   19 1  
    19    5   20 1  
    20    5   21 1  
    21    7   22 1  
    22    7   23 1  
    23    9   24 1  
    24    9   25 1  
    25   10   26 1  
    26   10   27 1  
    27   11   28 1  
    28   11   29 1  
    29   12   30 1  
    30   12   31 1  
    31   13   32 1  
    32   13   33 1  
    33   14   34 1  
    34   14   35 1  
    35   15   36 1  
    36   15   37 1  
    37   15   38 1  
@<TRIPOS>SUBSTRUCTURE
     1 O48         1

