### 
### Created by X-TOOL on Mon Sep 10 21:13:01 2018
### 

@<TRIPOS>MOLECULE
3idp_ligand
   54    59     1     0     0
SMALL
GAST_HUCK


@<TRIPOS>ATOM
      1 C5         24.2920   38.8990   39.7170 C.ar      1 L1E         0.0672
      2 C7         26.4640   41.8060   39.4810 C.ar      1 L1E         0.0551
      3 C8         27.8340   42.0940   39.4910 C.ar      1 L1E        -0.0395
      4 C10        27.3430   44.4120   39.0390 C.ar      1 L1E         0.0001
      5 C15        23.2710   43.7030   37.3040 C.ar      1 L1E         0.0102
      6 C17        21.4560   45.2890   37.5460 C.ar      1 L1E        -0.0637
      7 C20        22.4530   44.1200   41.0060 C.3       1 L1E        -0.0338
      8 C21        24.1350   43.0030   36.4680 C.ar      1 L1E        -0.0521
      9 C22        24.0500   43.1760   35.0940 C.ar      1 L1E        -0.0181
     10 C24        22.3030   44.7060   35.3460 C.ar      1 L1E         0.1364
     11 C26        20.9820   45.3750   33.5270 C.ar      1 L1E         0.0646
     12 C28        20.2800   43.9820   31.6780 C.ar      1 L1E        -0.0574
     13 C27        20.7510   44.1050   32.9830 C.ar      1 L1E        -0.0374
     14 C29        20.0440   45.1360   30.9260 C.ar      1 L1E         0.0281
     15 CL32       19.4520   45.0050   29.3080 Cl        1 L1E        -0.0813
     16 C30        20.2720   46.4050   31.4620 C.ar      1 L1E        -0.0574
     17 C31        20.7400   46.5240   32.7670 C.ar      1 L1E        -0.0374
     18 N25        21.4300   45.5300   34.7740 N.pl3     1 L1E        -0.2561
     19 N23        23.1570   44.0070   34.5810 N.ar      1 L1E        -0.2939
     20 C16        22.3380   44.5740   36.7360 C.ar      1 L1E         0.0238
     21 C18        21.5150   45.1260   38.9230 C.ar      1 L1E        -0.0676
     22 C19        22.4460   44.2560   39.4890 C.ar      1 L1E        -0.0198
     23 C14        23.3420   43.5350   38.6830 C.ar      1 L1E         0.0789
     24 N13        24.2400   42.6770   39.2040 N.pl3     1 L1E        -0.2574
     25 C12        25.5670   42.8800   39.2280 C.ar      1 L1E         0.1472
     26 N11        26.0420   44.1350   39.0230 N.ar      1 L1E        -0.2763
     27 C9         28.2720   43.3990   39.2710 C.ar      1 L1E        -0.0434
     28 C3         26.0290   40.4760   39.6840 C.ar      1 L1E         0.0706
     29 N4         24.7260   40.1470   39.5450 N.ar      1 L1E        -0.2801
     30 N6         25.1060   37.9010   40.0140 N.ar      1 L1E        -0.2547
     31 C1         26.4200   38.1420   40.1530 C.ar      1 L1E         0.1686
     32 C2         26.9180   39.4350   39.9940 C.ar      1 L1E         0.0892
     33 N35        28.2360   39.3630   40.1860 N.2       1 L1E        -0.2906
     34 C34        28.5690   38.1000   40.4560 C.2       1 L1E         0.1119
     35 N33        27.4600   37.3560   40.4360 N.pl3     1 L1E        -0.2305
     36 H1         23.2328   38.6948   39.6094 H         1 L1E         0.1034
     37 H2         28.5534   41.3031   39.6696 H         1 L1E         0.0732
     38 H3         27.6816   45.4280   38.8712 H         1 L1E         0.0808
     39 H4         20.7322   45.9647   37.1048 H         1 L1E         0.0523
     40 H5         21.6755   44.7687   41.4359 H         1 L1E         0.0367
     41 H6         23.4370   44.4189   41.3964 H         1 L1E         0.0367
     42 H7         22.2515   43.0743   41.2814 H         1 L1E         0.0367
     43 H8         24.8705   42.3262   36.8877 H         1 L1E         0.0555
     44 H9         24.7175   42.6285   34.4384 H         1 L1E         0.0685
     45 H10        20.0986   43.0025   31.2506 H         1 L1E         0.0594
     46 H11        20.9387   43.2182   33.5775 H         1 L1E         0.0538
     47 H12        20.0858   47.2910   30.8658 H         1 L1E         0.0594
     48 H13        20.9166   47.5048   33.1936 H         1 L1E         0.0538
     49 H14        21.0816   46.3294   35.3222 H         1 L1E         0.2168
     50 H15        20.8342   45.6775   39.5613 H         1 L1E         0.0538
     51 H16        23.8830   41.8020   39.6136 H         1 L1E         0.2153
     52 H17        29.3321   43.6254   39.2803 H         1 L1E         0.0612
     53 H18        29.5754   37.7367   40.6586 H         1 L1E         0.1386
     54 H19        27.4151   36.3419   40.6104 H         1 L1E         0.2406
@<TRIPOS>BOND
     1   29    1 ar 
     2    1   30 ar 
     3    2    3 ar 
     4    2   25 ar 
     5   28    2 1  
     6    3   27 ar 
     7   26    4 ar 
     8   27    4 ar 
     9    5    8 ar 
    10    5   20 ar 
    11   23    5 ar 
    12   20    6 ar 
    13   21    6 ar 
    14   22    7 1  
    15    8    9 ar 
    16    9   19 ar 
    17   10   18 1  
    18   10   19 ar 
    19   20   10 ar 
    20   11   13 ar 
    21   11   17 ar 
    22   18   11 1  
    23   13   12 ar 
    24   12   14 ar 
    25   14   15 1  
    26   16   14 ar 
    27   17   16 ar 
    28   22   21 ar 
    29   23   22 ar 
    30   24   23 1  
    31   25   24 1  
    32   25   26 ar 
    33   28   29 ar 
    34   28   32 ar 
    35   30   31 ar 
    36   31   32 ar 
    37   31   35 1  
    38   32   33 1  
    39   33   34 2  
    40   34   35 1  
    41    1   36 1  
    42    3   37 1  
    43    4   38 1  
    44    6   39 1  
    45    7   40 1  
    46    7   41 1  
    47    7   42 1  
    48    8   43 1  
    49    9   44 1  
    50   12   45 1  
    51   13   46 1  
    52   16   47 1  
    53   17   48 1  
    54   18   49 1  
    55   21   50 1  
    56   24   51 1  
    57   27   52 1  
    58   34   53 1  
    59   35   54 1  
@<TRIPOS>SUBSTRUCTURE
     1 L1E         1

