### 
### Created by X-TOOL on Fri Sep 26 17:34:43 2014
### 

@<TRIPOS>MOLECULE
3ie3_ligand
   35    36     1     0     0
SMALL
GAST_HUCK


@<TRIPOS>ATOM
      1 OA5         1.6910    5.4340   32.3440 O.3       1 N11        -0.3950
      2 CE1         2.0640    4.2940   31.5600 C.3       1 N11         0.0442
      3 CE2         3.5340    3.9620   31.8000 C.3       1 N11        -0.0297
      4 CE3         4.2550    3.6830   30.4850 C.3       1 N11        -0.0510
      5 CE4         5.6860    3.2160   30.7300 C.3       1 N11        -0.0521
      6 CE5         6.1090    2.1530   29.7210 C.3       1 N11        -0.0418
      7 CE6         7.0730    2.7230   28.6840 C.3       1 N11         0.0082
      8 S1          7.0010    1.7510   27.2140 S.3       1 N11        -0.0957
      9 CF4         7.6530    2.6200   25.9120 C.ar      1 N11         0.0403
     10 CL          6.8460    3.6610   25.2130 C.ar      1 N11         0.1012
     11 NA3         5.5910    4.1260   25.3930 N.2       1 N11        -0.0880
     12 OA2         5.4430    5.1250   24.3820 O.3       1 N11        -0.0328
     13 NA1         6.6040    5.2890   23.5670 N.2       1 N11        -0.0815
     14 CI          7.4780    4.3920   24.0700 C.ar      1 N11         0.1185
     15 CF5         8.9520    2.3480   25.4850 C.ar      1 N11        -0.0399
     16 CF6         9.5360    3.0270   24.4090 C.ar      1 N11        -0.0232
     17 CF7         8.8720    4.0290   23.6960 C.ar      1 N11         0.2112
     18 NA4         9.4990    4.6910   22.6320 N.2       1 N11         0.3108
     19 OA4         8.7810    5.5900   21.8500 O.2       1 N11         0.1751
     20 OA3        10.8430    4.4710   22.3510 O.2       1 N11         0.1751
     21 H1          0.7755    5.6363   32.1910 H         1 N11         0.2094
     22 H2          1.9091    4.5170   30.4941 H         1 N11         0.0557
     23 H3          1.4431    3.4330   31.8485 H         1 N11         0.0557
     24 H4          3.6011    3.0717   32.4425 H         1 N11         0.0287
     25 H5          4.0175    4.8134   32.3013 H         1 N11         0.0287
     26 H6          4.2760    4.6044   29.8846 H         1 N11         0.0266
     27 H7          3.7109    2.9001   29.9364 H         1 N11         0.0266
     28 H8          5.7555    2.7942   31.7435 H         1 N11         0.0266
     29 H9          6.3629    4.0788   30.6447 H         1 N11         0.0266
     30 H10         5.2146    1.7714   29.2067 H         1 N11         0.0275
     31 H11         6.6043    1.3290   30.2554 H         1 N11         0.0275
     32 H12         8.0967    2.7038   29.0860 H         1 N11         0.0403
     33 H13         6.7897    3.7601   28.4515 H         1 N11         0.0403
     34 H14         9.5270    1.5880   26.0016 H         1 N11         0.0582
     35 H15        10.5462    2.7644   24.1164 H         1 N11         0.0676
@<TRIPOS>BOND
     1    1    2 1  
     2    2    3 1  
     3    3    4 1  
     4    4    5 1  
     5    5    6 1  
     6    6    7 1  
     7    7    8 1  
     8    8    9 1  
     9    9   10 ar 
    10    9   15 ar 
    11   10   11 2  
    12   10   14 ar 
    13   11   12 1  
    14   12   13 1  
    15   13   14 2  
    16   14   17 ar 
    17   15   16 ar 
    18   16   17 ar 
    19   17   18 1  
    20   18   19 2  
    21   18   20 2  
    22    1   21 1  
    23    2   22 1  
    24    2   23 1  
    25    3   24 1  
    26    3   25 1  
    27    4   26 1  
    28    4   27 1  
    29    5   28 1  
    30    5   29 1  
    31    6   30 1  
    32    6   31 1  
    33    7   32 1  
    34    7   33 1  
    35   15   34 1  
    36   16   35 1  
@<TRIPOS>SUBSTRUCTURE
     1 N11         1

