### 
### Created by X-TOOL on Mon Sep 10 21:13:00 2018
### 

@<TRIPOS>MOLECULE
3iej_ligand
   69    73     1     0     0
SMALL
GAST_HUCK


@<TRIPOS>ATOM
      1 C1         -5.1660  -22.1770    8.8400 C.3       1 599        -0.0078
      2 N2         -4.9770  -21.3910    7.6340 N.4       1 599         0.2386
      3 C3         -6.1370  -20.6820    7.0940 C.3       1 599        -0.0078
      4 C4         -6.5570  -19.7320    8.2340 C.3       1 599         0.0878
      5 O5         -6.6950  -20.4170    9.4980 O.3       1 599        -0.3693
      6 C6         -5.5600  -21.1750    9.9310 C.3       1 599         0.0878
      7 C13        -3.6530  -21.2560    7.0430 C.3       1 599        -0.0291
      8 C14        -3.5080  -22.2970    5.9520 C.3       1 599         0.0165
      9 C15        -2.1600  -22.1560    5.2430 C.3       1 599         0.0726
     10 N16        -1.3020  -23.2720    5.6430 N.pl3     1 599        -0.2117
     11 N21        -0.4110  -22.9710    6.6630 N.2       1 599        -0.2275
     12 C22         0.2870  -24.0990    6.9070 C.2       1 599         0.0309
     13 C23        -0.1870  -25.1060    6.0780 C.2       1 599        -0.0024
     14 C24        -1.1890  -24.5610    5.2870 C.2       1 599         0.0712
     15 C30        -1.9300  -25.3460    4.2330 C.3       1 599         0.0253
     16 C31        -1.5950  -26.8350    4.3500 C.3       1 599         0.0466
     17 N32        -0.1430  -26.9390    4.5710 N.am      1 599        -0.2652
     18 C33         0.2610  -26.5510    5.9380 C.3       1 599         0.0508
     19 C39         1.3300  -24.1640    7.9480 C.ar      1 599        -0.0172
     20 C41         2.2520  -23.1200    8.0180 C.ar      1 599        -0.0555
     21 C42         3.2290  -23.1230    8.9990 C.ar      1 599        -0.0477
     22 C43         3.2630  -24.1680    9.9250 C.ar      1 599         0.0544
     23 C44         2.3400  -25.2100    9.8640 C.ar      1 599         0.0380
     24 C45         1.3550  -25.2110    8.8720 C.ar      1 599        -0.0403
     25 C52         2.3660  -26.1530   10.7410 C.1       1 599        -0.0611
     26 C53         2.4790  -26.8770   11.6820 C.1       1 599        -0.0610
     27 C54         2.4340  -27.6420   12.7210 C.ar      1 599         0.0254
     28 C58         1.6180  -28.7780   12.7190 C.ar      1 599        -0.0459
     29 C59         1.5870  -29.6230   13.8320 C.ar      1 599        -0.0467
     30 C60         2.3820  -29.3360   14.9450 C.ar      1 599         0.0406
     31 C61         3.2090  -28.2040   14.9350 C.ar      1 599        -0.0467
     32 C62         3.2260  -27.3550   13.8250 C.ar      1 599        -0.0459
     33 C69         0.7440  -27.3020    3.6440 C.2       1 599         0.2054
     34 C70         0.3280  -27.4090    2.1890 C.3       1 599         0.1334
     35 O71         1.5010  -27.4360    1.3560 O.3       1 599        -0.3746
     36 O77         1.8950  -27.5290    3.9310 O.2       1 599        -0.3942
     37 CL81        4.5270  -24.1460   11.1880 Cl        1 599        -0.0698
     38 CL83        2.3300  -30.4130   16.3840 Cl        1 599        -0.0703
     39 H1         -4.2332  -22.6927    9.1118 H         1 599         0.0837
     40 H2         -5.9654  -22.9182    8.6933 H         1 599         0.0837
     41 H3         -5.1684  -22.1910    7.0514 H         1 599         0.2035
     42 H4         -6.9476  -21.3853    6.8524 H         1 599         0.0837
     43 H5         -5.8634  -20.1141    6.1925 H         1 599         0.0837
     44 H6         -7.5221  -19.2727    7.9738 H         1 599         0.0613
     45 H7         -5.7937  -18.9469    8.3391 H         1 599         0.0613
     46 H8         -4.7177  -20.4947   10.1251 H         1 599         0.0613
     47 H9         -5.8127  -21.7183   10.8535 H         1 599         0.0613
     48 H10        -2.8842  -21.4157    7.8134 H         1 599         0.0815
     49 H11        -3.5386  -20.2497    6.6138 H         1 599         0.0815
     50 H12        -4.3169  -22.1656    5.2183 H         1 599         0.0345
     51 H13        -3.5774  -23.2998    6.3987 H         1 599         0.0345
     52 H14        -1.6882  -21.2047    5.5301 H         1 599         0.0633
     53 H15        -2.3105  -22.1766    4.1536 H         1 599         0.0633
     54 H16        -1.6356  -24.9846    3.2367 H         1 599         0.0468
     55 H17        -3.0124  -25.2053    4.3691 H         1 599         0.0468
     56 H18        -1.8734  -27.3578    3.4231 H         1 599         0.0547
     57 H19        -2.1378  -27.2779    5.1980 H         1 599         0.0547
     58 H20        -0.2383  -27.1859    6.6847 H         1 599         0.0592
     59 H21         1.3514  -26.6323    6.0578 H         1 599         0.0592
     60 H22         2.2037  -22.3058    7.3040 H         1 599         0.0610
     61 H23         3.9593  -22.3234    9.0478 H         1 599         0.0620
     62 H24         0.6240  -26.0098    8.8209 H         1 599         0.0622
     63 H25         1.0079  -29.0037   11.8519 H         1 599         0.0629
     64 H26         0.9480  -30.4986   13.8319 H         1 599         0.0623
     65 H27         3.8374  -27.9865   15.7911 H         1 599         0.0623
     66 H28         3.8567  -26.4734   13.8258 H         1 599         0.0629
     67 H29        -0.2927  -26.5416    1.9203 H         1 599         0.0801
     68 H30        -0.2492  -28.3334    2.0396 H         1 599         0.0801
     69 H31         2.0363  -28.1854    1.5890 H         1 599         0.2129
@<TRIPOS>BOND
     1    1    2 1  
     2    1    6 1  
     3    2    3 1  
     4    2    7 1  
     5    3    4 1  
     6    4    5 1  
     7    5    6 1  
     8    7    8 1  
     9    8    9 1  
    10    9   10 1  
    11   10   11 1  
    12   10   14 1  
    13   11   12 2  
    14   12   13 1  
    15   12   19 1  
    16   13   14 2  
    17   13   18 1  
    18   14   15 1  
    19   15   16 1  
    20   16   17 1  
    21   17   18 1  
    22   17   33 am 
    23   19   20 ar 
    24   19   24 ar 
    25   20   21 ar 
    26   21   22 ar 
    27   22   23 ar 
    28   22   37 1  
    29   23   24 ar 
    30   23   25 1  
    31   25   26 3  
    32   26   27 1  
    33   27   28 ar 
    34   27   32 ar 
    35   28   29 ar 
    36   29   30 ar 
    37   30   31 ar 
    38   30   38 1  
    39   31   32 ar 
    40   33   34 1  
    41   33   36 2  
    42   34   35 1  
    43    1   39 1  
    44    1   40 1  
    45    2   41 1  
    46    3   42 1  
    47    3   43 1  
    48    4   44 1  
    49    4   45 1  
    50    6   46 1  
    51    6   47 1  
    52    7   48 1  
    53    7   49 1  
    54    8   50 1  
    55    8   51 1  
    56    9   52 1  
    57    9   53 1  
    58   15   54 1  
    59   15   55 1  
    60   16   56 1  
    61   16   57 1  
    62   18   58 1  
    63   18   59 1  
    64   20   60 1  
    65   21   61 1  
    66   24   62 1  
    67   28   63 1  
    68   29   64 1  
    69   31   65 1  
    70   32   66 1  
    71   34   67 1  
    72   34   68 1  
    73   35   69 1  
@<TRIPOS>SUBSTRUCTURE
     1 599         1

