### 
### Created by X-TOOL on Mon Sep 10 21:13:04 2018
### 

@<TRIPOS>MOLECULE
3ieo_ligand
   36    36     1     0     0
SMALL
GAST_HUCK


@<TRIPOS>ATOM
      1 C          -5.7070    8.1990   12.0880 C.2       1 AMJ         0.2058
      2 N          -5.1340    6.0750   13.1670 N.am      1 AMJ        -0.2637
      3 O          -6.2950    9.1100   12.6680 O.2       1 AMJ        -0.3943
      4 CA         -4.6100    7.3960   12.7910 C.3       1 AMJ         0.1541
      5 CB         -3.4180    7.2240   11.8470 C.3       1 AMJ         0.0874
      6 CAA        -3.6230    4.9190   11.4990 C.3       1 AMJ         0.0367
      7 CAB        -7.0550    7.2340   14.0610 C.3       1 AMJ         0.0258
      8 OAC        -6.7780    4.8430   14.1110 O.2       1 AMJ        -0.3972
      9 CAE        -5.0600   10.9920    7.0690 C.ar      1 AMJ        -0.0687
     10 CAF        -6.0070   11.5360    7.9290 C.ar      1 AMJ        -0.0685
     11 CAG        -4.7320    9.6450    7.1590 C.ar      1 AMJ        -0.0685
     12 CAH        -6.6250   10.7320    8.8790 C.ar      1 AMJ        -0.0584
     13 CAI        -5.3500    8.8410    8.1090 C.ar      1 AMJ        -0.0584
     14 CAJ        -6.9780    8.4990   10.0150 C.3       1 AMJ         0.0645
     15 NAL        -5.9550    7.8320   10.8340 N.am      1 AMJ        -0.2736
     16 OAN        -2.8090    5.9440   12.0740 O.3       1 AMJ        -0.3783
     17 CAO        -6.3050    5.9300   13.7810 C.2       1 AMJ         0.1752
     18 CAQ        -6.2970    9.3840    8.9690 C.ar      1 AMJ        -0.0210
     19 H          -4.5829    5.2444   12.9505 H         1 AMJ         0.1883
     20 H          -4.2887    7.9271   13.6870 H         1 AMJ         0.0823
     21 H          -2.6887    8.0119   12.0352 H         1 AMJ         0.0608
     22 H          -3.7606    7.2854   10.8141 H         1 AMJ         0.0608
     23 H          -4.6102    4.9389   11.9608 H         1 AMJ         0.0524
     24 H          -3.7184    5.0912   10.4269 H         1 AMJ         0.0524
     25 H          -3.1589    3.9481   11.6725 H         1 AMJ         0.0524
     26 H          -8.0199    7.2126   13.5545 H         1 AMJ         0.0467
     27 H          -7.2092    7.3396   15.1349 H         1 AMJ         0.0467
     28 H          -6.4683    8.0754   13.6924 H         1 AMJ         0.0467
     29 H          -4.5747   11.6224    6.3239 H         1 AMJ         0.0559
     30 H          -6.2647   12.5927    7.8582 H         1 AMJ         0.0599
     31 H          -3.9897    9.2187    6.4842 H         1 AMJ         0.0599
     32 H          -7.3672   11.1583    9.5539 H         1 AMJ         0.0557
     33 H          -5.0920    7.7843    8.1797 H         1 AMJ         0.0557
     34 H          -7.6111    9.1140   10.6545 H         1 AMJ         0.0683
     35 H          -7.5883    7.7479    9.5135 H         1 AMJ         0.0683
     36 H          -5.4194    7.0647   10.4281 H         1 AMJ         0.1878
@<TRIPOS>BOND
     1    1    3 2  
     2    1    4 1  
     3   15    1 am 
     4    4    2 1  
     5    2   17 am 
     6    4    5 1  
     7    5   16 1  
     8   16    6 1  
     9   17    7 1  
    10   17    8 2  
    11   10    9 ar 
    12   11    9 ar 
    13   12   10 ar 
    14   13   11 ar 
    15   18   12 ar 
    16   18   13 ar 
    17   14   15 1  
    18   14   18 1  
    19    2   19 1  
    20    4   20 1  
    21    5   21 1  
    22    5   22 1  
    23    6   23 1  
    24    6   24 1  
    25    6   25 1  
    26    7   26 1  
    27    7   27 1  
    28    7   28 1  
    29    9   29 1  
    30   10   30 1  
    31   11   31 1  
    32   12   32 1  
    33   13   33 1  
    34   14   34 1  
    35   14   35 1  
    36   15   36 1  
@<TRIPOS>SUBSTRUCTURE
     1 AMJ         1

