### 
### Created by X-TOOL on Mon Sep 10 21:13:00 2018
### 

@<TRIPOS>MOLECULE
3ifl_ligand
  111   112     1     0     0
SMALL
GAST_HUCK


@<TRIPOS>ATOM
      1 N           8.8210  -18.0450   14.5720 N.4       1 ASP         0.2391
      2 CA          8.3700  -16.9020   13.7260 C.3       1 ASP         0.0764
      3 C           6.8780  -16.5910   13.8640 C.2       1 ASP         0.2284
      4 O           6.2430  -16.1410   12.9060 O.2       1 ASP        -0.3906
      5 CB          8.7420  -17.1400   12.2520 C.3       1 ASP         0.0607
      6 CG          8.0690  -18.3740   11.6520 C.2       1 ASP         0.0425
      7 OD1         7.0800  -18.8850   12.2210 O.co2     1 ASP        -0.5686
      8 OD2         8.5280  -18.8380   10.5860 O.co2     1 ASP        -0.5686
      9 N           6.3260  -16.8110   15.0570 N.am      1 ALA        -0.2612
     10 CA          4.8920  -16.6230   15.2770 C.3       1 ALA         0.1283
     11 C           4.4130  -15.1950   14.9760 C.2       1 ALA         0.2036
     12 O           4.9240  -14.2300   15.5390 O.2       1 ALA        -0.3944
     13 CB          4.5270  -17.0320   16.7000 C.3       1 ALA        -0.0244
     14 N           3.4470  -15.0670   14.0720 N.am      1 GLU        -0.2636
     15 CA          2.8100  -13.7860   13.7760 C.3       1 GLU         0.1325
     16 C           1.6260  -13.5000   14.6980 C.2       1 GLU         0.2041
     17 O           0.9000  -14.4060   15.1030 O.2       1 GLU        -0.3944
     18 CB          2.2770  -13.7770   12.3460 C.3       1 GLU        -0.0008
     19 CG          3.2920  -13.5100   11.2580 C.3       1 GLU         0.0044
     20 CD          2.6030  -13.2500    9.9330 C.2       1 GLU         0.0350
     21 OE1         1.5350  -13.8480    9.6680 O.co2     1 GLU        -0.5690
     22 OE2         3.1130  -12.4210    9.1600 O.co2     1 GLU        -0.5690
     23 N           1.4070  -12.2250   15.0100 N.am      1 PHE        -0.2619
     24 CA          0.2510  -11.8300   15.8170 C.3       1 PHE         0.1404
     25 C          -0.9570  -11.7470   14.8940 C.2       1 PHE         0.2060
     26 O          -0.8150  -11.5760   13.6890 O.2       1 PHE        -0.3942
     27 CB          0.5080  -10.4910   16.5320 C.3       1 PHE         0.0214
     28 CG         -0.5780  -10.0970   17.4960 C.ar      1 PHE        -0.0386
     29 CD1        -1.2430   -8.8900   17.3630 C.ar      1 PHE        -0.0601
     30 CD2        -0.9300  -10.9390   18.5410 C.ar      1 PHE        -0.0601
     31 CE1        -2.2450   -8.5140   18.2490 C.ar      1 PHE        -0.0686
     32 CE2        -1.9210  -10.5740   19.4310 C.ar      1 PHE        -0.0686
     33 CZ         -2.5880   -9.3700   19.2880 C.ar      1 PHE        -0.0687
     34 N          -2.1500  -11.8680   15.4640 N.am      1 ARG        -0.2636
     35 CA         -3.3850  -11.8830   14.6820 C.3       1 ARG         0.1311
     36 C          -3.8780  -10.4840   14.3000 C.2       1 ARG         0.2040
     37 O          -3.9070   -9.5850   15.1370 O.2       1 ARG        -0.3944
     38 CB         -4.4490  -12.6350   15.4900 C.3       1 ARG        -0.0092
     39 CG         -5.8210  -12.6630   14.8510 C.3       1 ARG        -0.0156
     40 CD         -6.7250  -13.5500   15.6870 C.3       1 ARG         0.0627
     41 NE         -8.1140  -13.4400   15.2580 N.pl3     1 ARG        -0.2723
     42 CZ         -9.1320  -13.9550   15.9400 C.cat     1 ARG         0.2882
     43 NH1        -8.8980  -14.6140   17.0660 N.pl3     1 ARG        -0.2849
     44 NH2       -10.3750  -13.8150   15.4970 N.pl3     1 ARG        -0.2849
     45 N          -4.2850  -10.3090   13.0420 N.am      1 HIS        -0.2625
     46 CA         -4.7680   -9.0160   12.5590 C.3       1 HIS         0.1369
     47 C          -6.0360   -9.0830   11.7030 C.2       1 HIS         0.2048
     48 O          -6.3370   -8.1550   10.9450 O.2       1 HIS        -0.3943
     49 CB         -3.6460   -8.2780   11.8250 C.3       1 HIS         0.0145
     50 CG         -2.5660   -7.7990   12.7400 C.2       1 HIS        -0.0027
     51 ND1        -2.6880   -6.6460   13.4860 N.2       1 HIS        -0.3252
     52 CD2        -1.3600   -8.3280   13.0520 C.2       1 HIS         0.0291
     53 CE1        -1.5960   -6.4820   14.2120 C.2       1 HIS         0.0907
     54 NE2        -0.7800   -7.4920   13.9720 N.pl3     1 HIS        -0.2752
     55 N          -6.7970  -10.1590   11.8590 N.am      1 ASP        -0.2696
     56 CA         -8.0370  -10.3400   11.1120 C.3       1 ASP         0.0916
     57 C          -8.9680  -11.2260   11.9200 C.2       1 ASP         0.0598
     58 O          -8.4910  -11.9600   12.7840 O.co2     1 ASP        -0.5666
     59 CB         -7.7680  -10.9930    9.7570 C.3       1 ASP        -0.0300
     60 OXT       -10.1830  -11.2220   11.7190 O.co2     1 ASP        -0.5666
     61 H1          9.8081  -18.1959   14.4343 H         1 ASP         0.2016
     62 H2          8.3144  -18.8765   14.3112 H         1 ASP         0.2016
     63 H3          8.6454  -17.8349   15.5421 H         1 ASP         0.2016
     64 H4          8.9178  -16.0115   14.0680 H         1 ASP         0.1117
     65 H5          9.8323  -17.2684   12.1831 H         1 ASP         0.0512
     66 H6          8.4390  -16.2582   11.6683 H         1 ASP         0.0512
     67 H7          6.9034  -17.1104   15.8166 H         1 ALA         0.1884
     68 H8          4.3625  -17.2958   14.5864 H         1 ALA         0.0797
     69 H9          3.4479  -16.8879   16.8575 H         1 ALA         0.0277
     70 H10         5.0879  -16.4122   17.4150 H         1 ALA         0.0277
     71 H11         4.7818  -18.0910   16.8539 H         1 ALA         0.0277
     72 H12         3.1442  -15.8800   13.5746 H         1 GLU         0.1883
     73 H13         3.5588  -12.9889   13.8939 H         1 GLU         0.0801
     74 H14         1.5027  -12.9984   12.2811 H         1 GLU         0.0330
     75 H15         1.8254  -14.7606   12.1498 H         1 GLU         0.0330
     76 H16         3.9509  -14.3850   11.1565 H         1 GLU         0.0433
     77 H17         3.8915  -12.6293   11.5319 H         1 GLU         0.0433
     78 H18         2.0433  -11.5242   14.6875 H         1 PHE         0.1885
     79 H19         0.0656  -12.6001   16.5803 H         1 PHE         0.0823
     80 H20         0.5974   -9.7028   15.7699 H         1 PHE         0.0474
     81 H21         1.4531  -10.5714   17.0890 H         1 PHE         0.0474
     82 H22        -0.9762   -8.2241   16.5503 H         1 PHE         0.0557
     83 H23        -0.4236  -11.8901   18.6598 H         1 PHE         0.0557
     84 H24        -2.7532   -7.5638   18.1309 H         1 PHE         0.0599
     85 H25        -2.1787  -11.2368   20.2491 H         1 PHE         0.0599
     86 H26        -3.3737   -9.0963   19.9828 H         1 PHE         0.0559
     87 H27        -2.2054  -11.9515   16.4590 H         1 ARG         0.1883
     88 H28        -3.1946  -12.4353   13.7500 H         1 ARG         0.0800
     89 H29        -4.5384  -12.1513   16.4739 H         1 ARG         0.0313
     90 H30        -4.1102  -13.6733   15.6212 H         1 ARG         0.0313
     91 H31        -5.7466  -13.0665   13.8304 H         1 ARG         0.0301
     92 H32        -6.2334  -11.6439   14.8133 H         1 ARG         0.0301
     93 H33        -6.6501  -13.2464   16.7416 H         1 ARG         0.0689
     94 H34        -6.3988  -14.5953   15.5822 H         1 ARG         0.0689
     95 H35        -8.3167  -12.9377   14.3819 H         1 ARG         0.2642
     96 H36        -9.6818  -15.0159   17.5999 H         1 ARG         0.2615
     97 H37        -7.9324  -14.7242   17.4071 H         1 ARG         0.2615
     98 H38       -10.5552  -13.3026   14.6218 H         1 ARG         0.2615
     99 H39       -11.1596  -14.2187   16.0283 H         1 ARG         0.2615
    100 H40        -4.2591  -11.0843   12.4109 H         1 HIS         0.1885
    101 H41        -5.0242   -8.4227   13.4491 H         1 HIS         0.0817
    102 H42        -4.0781   -7.4088   11.3076 H         1 HIS         0.0420
    103 H43        -3.2019   -8.9612   11.0861 H         1 HIS         0.0420
    104 H44        -0.9311   -9.2442   12.6489 H         1 HIS         0.0729
    105 H45        -1.4020   -5.6544   14.8927 H         1 HIS         0.1199
    106 H46         0.1439   -7.6300   14.4060 H         1 HIS         0.2361
    107 H47        -6.5124  -10.8656   12.5068 H         1 ASP         0.1875
    108 H48        -8.5093   -9.3596   10.9515 H         1 ASP         0.0723
    109 H49        -8.7172  -11.1178    9.2153 H         1 ASP         0.0270
    110 H50        -7.3013  -11.9772    9.9104 H         1 ASP         0.0270
    111 H51        -7.0920  -10.3541    9.1698 H         1 ASP         0.0270
@<TRIPOS>BOND
     1    1    2 1  
     2    2    3 1  
     3    2    5 1  
     4    3    4 2  
     5    3    9 am 
     6    5    6 1  
     7    6    7 ar 
     8    6    8 ar 
     9    9   10 1  
    10   10   11 1  
    11   10   13 1  
    12   11   12 2  
    13   11   14 am 
    14   14   15 1  
    15   15   16 1  
    16   15   18 1  
    17   16   17 2  
    18   16   23 am 
    19   18   19 1  
    20   19   20 1  
    21   20   21 ar 
    22   20   22 ar 
    23   23   24 1  
    24   24   25 1  
    25   24   27 1  
    26   25   26 2  
    27   25   34 am 
    28   27   28 1  
    29   28   29 ar 
    30   28   30 ar 
    31   29   31 ar 
    32   30   32 ar 
    33   31   33 ar 
    34   32   33 ar 
    35   34   35 1  
    36   35   36 1  
    37   35   38 1  
    38   36   37 2  
    39   36   45 am 
    40   38   39 1  
    41   39   40 1  
    42   40   41 1  
    43   41   42 ar 
    44   42   43 ar 
    45   42   44 ar 
    46   45   46 1  
    47   46   47 1  
    48   46   49 1  
    49   47   48 2  
    50   47   55 am 
    51   49   50 1  
    52   50   51 1  
    53   50   52 2  
    54   51   53 2  
    55   52   54 1  
    56   53   54 1  
    57   55   56 1  
    58   56   57 1  
    59   56   59 1  
    60   57   58 ar 
    61   57   60 ar 
    62    1   61 1  
    63    1   62 1  
    64    1   63 1  
    65    2   64 1  
    66    5   65 1  
    67    5   66 1  
    68    9   67 1  
    69   10   68 1  
    70   13   69 1  
    71   13   70 1  
    72   13   71 1  
    73   14   72 1  
    74   15   73 1  
    75   18   74 1  
    76   18   75 1  
    77   19   76 1  
    78   19   77 1  
    79   23   78 1  
    80   24   79 1  
    81   27   80 1  
    82   27   81 1  
    83   29   82 1  
    84   30   83 1  
    85   31   84 1  
    86   32   85 1  
    87   33   86 1  
    88   34   87 1  
    89   35   88 1  
    90   38   89 1  
    91   38   90 1  
    92   39   91 1  
    93   39   92 1  
    94   40   93 1  
    95   40   94 1  
    96   41   95 1  
    97   43   96 1  
    98   43   97 1  
    99   44   98 1  
   100   44   99 1  
   101   45  100 1  
   102   46  101 1  
   103   49  102 1  
   104   49  103 1  
   105   52  104 1  
   106   53  105 1  
   107   54  106 1  
   108   55  107 1  
   109   56  108 1  
   110   59  109 1  
   111   59  110 1  
   112   59  111 1  
@<TRIPOS>SUBSTRUCTURE
     1 ASP         1

