### 
### Created by X-TOOL on Mon Sep 10 21:13:04 2018
### 

@<TRIPOS>MOLECULE
3ig1_ligand
   25    25     1     0     0
SMALL
GAST_HUCK


@<TRIPOS>ATOM
      1 C1         11.3800   19.4830   12.6820 C.2       1 JTH         0.2285
      2 O1         10.8000   18.8820   11.7170 O.2       1 JTH        -0.3502
      3 C2         10.8460   20.8520   13.0200 C.2       1 JTH         0.1833
      4 O2          9.8560   21.1600   12.2170 O.2       1 JTH        -0.3737
      5 C3         11.1990   21.7520   13.9610 C.2       1 JTH        -0.0168
      6 C4         12.2270   21.7600   14.9990 C.2       1 JTH        -0.0407
      7 C5         13.1180   20.7280   15.2360 C.2       1 JTH        -0.0437
      8 C6         13.2390   19.4250   14.5280 C.2       1 JTH        -0.0113
      9 C7         12.5440   18.8570   13.4610 C.3       1 JTH         0.1787
     10 O7         12.8780   17.6110   12.9990 O.3       1 JTH        -0.3542
     11 C41        12.3090   24.4030   15.0000 C.3       1 JTH        -0.0503
     12 C42        12.2300   23.0630   15.8470 C.3       1 JTH        -0.0089
     13 C43        10.9470   23.1410   16.7770 C.3       1 JTH        -0.0503
     14 H          10.5936   22.6582   13.9432 H         1 JTH         0.0365
     15 H          13.8250   20.8914   16.0493 H         1 JTH         0.0493
     16 H          14.0294   18.7865   14.9225 H         1 JTH         0.0928
     17 H          12.6889   19.6808   14.1599 H         1 JTH         0.1076
     18 H          12.3023   17.3774   12.2672 H         1 JTH         0.2181
     19 H          11.4096   24.5005   14.3920 H         1 JTH         0.0259
     20 H          12.3862   25.2546   15.6760 H         1 JTH         0.0259
     21 H          13.1852   24.3709   14.3524 H         1 JTH         0.0259
     22 H          13.1431   22.9967   16.4386 H         1 JTH         0.0496
     23 H          11.0331   24.0008   17.4414 H         1 JTH         0.0259
     24 H          10.0565   23.2468   16.1573 H         1 JTH         0.0259
     25 H          10.8730   22.2288   17.3690 H         1 JTH         0.0259
@<TRIPOS>BOND
     1    1    2 2  
     2    1    3 1  
     3    1    9 1  
     4    3    4 2  
     5    3    5 1  
     6    5    6 2  
     7    6    7 1  
     8    6   12 1  
     9    7    8 2  
    10    8    9 1  
    11    9   10 1  
    12   12   11 1  
    13   12   13 1  
    14    5   14 1  
    15    7   15 1  
    16    8   16 1  
    17    9   17 1  
    18   10   18 1  
    19   11   19 1  
    20   11   20 1  
    21   11   21 1  
    22   12   22 1  
    23   13   23 1  
    24   13   24 1  
    25   13   25 1  
@<TRIPOS>SUBSTRUCTURE
     1 JTH         1

