### 
### Created by X-TOOL on Mon Sep 10 21:13:00 2018
### 

@<TRIPOS>MOLECULE
3ig6_ligand
   80    84     1     0     0
SMALL
GAST_HUCK


@<TRIPOS>ATOM
      1 N1         14.6630    2.5310   -1.6670 N.4       1 438         0.2308
      2 C2         16.0800    2.1570   -1.7790 C.3       1 438        -0.0017
      3 C3         16.3480   -0.6640    0.8860 C.ar      1 438        -0.0270
      4 C4         16.7360   -1.7670    0.0510 C.ar      1 438        -0.0610
      5 C5         16.9000   -1.5950   -1.3520 C.ar      1 438        -0.0675
      6 C6         16.6820   -0.3220   -1.9450 C.ar      1 438        -0.0551
      7 C7         16.3010    0.7820   -1.1370 C.ar      1 438         0.0017
      8 C8         16.1350    0.6150    0.2700 C.ar      1 438        -0.0480
      9 C9         16.2030   -0.8280    2.3060 C.ar      1 438        -0.0274
     10 C10        17.0310   -1.7500    3.0280 C.ar      1 438        -0.0210
     11 C11        16.8810   -1.9230    4.4540 C.ar      1 438         0.1178
     12 C12        15.8850   -1.1760    5.1430 C.ar      1 438        -0.0279
     13 C13        15.0560   -0.2640    4.4390 C.ar      1 438        -0.0686
     14 C14        15.2130   -0.0880    3.0370 C.ar      1 438        -0.0644
     15 O15        17.7350   -2.7360    5.2120 O.3       1 438        -0.2484
     16 N16        19.3800   -3.9960    4.0400 N.ar      1 438        -0.2644
     17 C17        19.0340   -2.8730    4.7300 C.ar      1 438         0.1954
     18 C18        19.9720   -1.8200    4.8780 C.ar      1 438         0.1937
     19 C19        21.2800   -1.9430    4.3020 C.ar      1 438         0.1130
     20 C20        21.5870   -3.1510    3.5870 C.ar      1 438         0.1939
     21 C21        20.6180   -4.1560    3.4670 C.ar      1 438         0.1963
     22 F22        19.5910   -0.7020    5.5180 F         1 438        -0.1996
     23 N23        22.1950   -0.9100    4.3660 N.pl3     1 438        -0.2996
     24 F24        22.7830   -3.3390    2.9980 F         1 438        -0.1996
     25 O25        20.9010   -5.2430    2.6630 O.3       1 438        -0.2483
     26 C26        20.0530   -6.3310    2.7490 C.ar      1 438         0.1209
     27 C27        20.4910   -7.4980    3.4310 C.ar      1 438        -0.0078
     28 C28        19.7140   -8.7030    3.4060 C.ar      1 438         0.0348
     29 N29        20.1700   -9.8590    4.0210 N.pl3     1 438        -0.3153
     30 C30        18.4670   -8.6930    2.6890 C.ar      1 438        -0.0504
     31 C31        18.0230   -7.5350    2.0120 C.ar      1 438        -0.0661
     32 C32        18.8030   -6.3500    2.0240 C.ar      1 438         0.0303
     33 C33        18.3290   -5.1230    1.1960 C.2       1 438         0.0507
     34 O34        17.1170   -5.0530    0.8790 O.co2     1 438        -0.5674
     35 O35        19.1850   -4.2720    0.8550 O.co2     1 438        -0.5674
     36 C36        19.3860  -11.1220    3.9790 C.3       1 438         0.0156
     37 C37        21.4940   -9.9110    4.6950 C.3       1 438         0.0156
     38 C38        23.2270   -0.6110    3.3290 C.3       1 438         0.0702
     39 C39        23.9520    0.6380    3.8860 C.3       1 438         0.0006
     40 C40        23.7950    0.4740    5.3980 C.3       1 438         0.0120
     41 C41        22.3240    0.0850    5.4780 C.3       1 438         0.0327
     42 N42        25.4030    0.7680    3.4450 N.4       1 438         0.2345
     43 C43        26.2630   -0.4100    3.7870 C.3       1 438        -0.0430
     44 C44        25.5150    1.0220    1.9880 C.3       1 438        -0.0430
     45 H1         14.5197    3.4349   -2.0895 H         1 438         0.2008
     46 H2         14.4015    2.5695   -0.6943 H         1 438         0.2008
     47 H3         14.0960    1.8452   -2.1405 H         1 438         0.2008
     48 H4         16.6983    2.9059   -1.2624 H         1 438         0.0979
     49 H5         16.3649    2.1154   -2.8406 H         1 438         0.0979
     50 H6         16.9057   -2.7413    0.4949 H         1 438         0.0567
     51 H7         17.1918   -2.4366   -1.9697 H         1 438         0.0600
     52 H8         16.8065   -0.1937   -3.0142 H         1 438         0.0561
     53 H9         15.8450    1.4627    0.8803 H         1 438         0.0562
     54 H10        17.7800   -2.3252    2.4959 H         1 438         0.0556
     55 H11        15.7586   -1.3042    6.2119 H         1 438         0.0556
     56 H12        14.3000    0.3007    4.9726 H         1 438         0.0592
     57 H13        14.5762    0.6150    2.5123 H         1 438         0.0538
     58 H14        21.4264   -7.4771    3.9784 H         1 438         0.0453
     59 H15        17.8575   -9.5892    2.6677 H         1 438         0.0442
     60 H16        17.0791   -7.5521    1.4793 H         1 438         0.0593
     61 H17        19.9274  -11.9080    4.5260 H         1 438         0.0479
     62 H18        19.2469  -11.4326    2.9330 H         1 438         0.0479
     63 H19        18.4039  -10.9597    4.4470 H         1 438         0.0479
     64 H20        21.9648   -8.9176    4.6554 H         1 438         0.0479
     65 H21        22.1373  -10.6423    4.1837 H         1 438         0.0479
     66 H22        21.3596  -10.2114    5.7446 H         1 438         0.0479
     67 H23        22.7570   -0.3921    2.3589 H         1 438         0.0572
     68 H24        23.9258   -1.4529    3.2162 H         1 438         0.0572
     69 H25        23.4248    1.5450    3.5554 H         1 438         0.0871
     70 H26        23.9971    1.4139    5.9325 H         1 438         0.0340
     71 H27        24.4477   -0.3192    5.7914 H         1 438         0.0340
     72 H28        22.0851   -0.3710    6.4501 H         1 438         0.0517
     73 H29        21.6724    0.9554    5.3112 H         1 438         0.0517
     74 H30        25.7820    1.5672    3.9284 H         1 438         0.2031
     75 H31        27.2888   -0.2301    3.4329 H         1 438         0.0778
     76 H32        25.8603   -1.3112    3.3016 H         1 438         0.0778
     77 H33        26.2714   -0.5536    4.8775 H         1 438         0.0778
     78 H34        24.8892    1.8851    1.7171 H         1 438         0.0778
     79 H35        25.1753    0.1346    1.4339 H         1 438         0.0778
     80 H36        26.5635    1.2347    1.7324 H         1 438         0.0778
@<TRIPOS>BOND
     1    2    1 1  
     2    7    2 1  
     3    4    3 ar 
     4    3    8 ar 
     5    3    9 1  
     6    5    4 ar 
     7    6    5 ar 
     8    6    7 ar 
     9    7    8 ar 
    10    9   10 ar 
    11    9   14 ar 
    12   10   11 ar 
    13   11   12 ar 
    14   11   15 1  
    15   12   13 ar 
    16   13   14 ar 
    17   15   17 1  
    18   17   16 ar 
    19   16   21 ar 
    20   17   18 ar 
    21   18   19 ar 
    22   18   22 1  
    23   19   20 ar 
    24   19   23 1  
    25   20   21 ar 
    26   20   24 1  
    27   21   25 1  
    28   23   38 1  
    29   23   41 1  
    30   25   26 1  
    31   26   27 ar 
    32   26   32 ar 
    33   27   28 ar 
    34   28   29 1  
    35   28   30 ar 
    36   29   36 1  
    37   29   37 1  
    38   30   31 ar 
    39   31   32 ar 
    40   32   33 1  
    41   33   34 ar 
    42   33   35 ar 
    43   38   39 1  
    44   39   40 1  
    45   39   42 1  
    46   40   41 1  
    47   42   43 1  
    48   42   44 1  
    49    1   45 1  
    50    1   46 1  
    51    1   47 1  
    52    2   48 1  
    53    2   49 1  
    54    4   50 1  
    55    5   51 1  
    56    6   52 1  
    57    8   53 1  
    58   10   54 1  
    59   12   55 1  
    60   13   56 1  
    61   14   57 1  
    62   27   58 1  
    63   30   59 1  
    64   31   60 1  
    65   36   61 1  
    66   36   62 1  
    67   36   63 1  
    68   37   64 1  
    69   37   65 1  
    70   37   66 1  
    71   38   67 1  
    72   38   68 1  
    73   39   69 1  
    74   40   70 1  
    75   40   71 1  
    76   41   72 1  
    77   41   73 1  
    78   42   74 1  
    79   43   75 1  
    80   43   76 1  
    81   43   77 1  
    82   44   78 1  
    83   44   79 1  
    84   44   80 1  
@<TRIPOS>SUBSTRUCTURE
     1 438         1

