### 
### Created by X-TOOL on Mon Sep 10 21:13:01 2018
### 

@<TRIPOS>MOLECULE
3ig7_ligand
   47    49     1     0     0
SMALL
GAST_HUCK


@<TRIPOS>ATOM
      1 C1         -1.4630   31.0240    8.4320 C.3       1 EFP         0.0681
      2 N3         -0.1160   30.9430    7.9000 N.pl3     1 EFP        -0.2662
      3 C4          0.6890   29.8230    8.0140 C.2       1 EFP         0.0450
      4 C6          1.8520   30.1660    7.3230 C.2       1 EFP         0.1015
      5 N7          3.0190   29.4310    7.2010 N.am      1 EFP        -0.2436
      6 C9          3.3100   28.1670    7.6870 C.2       1 EFP         0.2056
      7 C10         4.7450   27.7230    7.4290 C.3       1 EFP         0.0697
      8 C13         4.7800   26.6560    6.3800 C.ar      1 EFP        -0.0347
      9 C14         5.0960   27.0780    5.0820 C.ar      1 EFP        -0.0664
     10 C16         5.1210   26.1810    4.0270 C.ar      1 EFP        -0.0391
     11 C18         4.8450   24.8300    4.2640 C.ar      1 EFP         0.0840
     12 O19         4.8660   23.9010    3.2590 O.3       1 EFP        -0.3255
     13 C20         6.1550   23.6860    2.6690 C.3       1 EFP         0.0579
     14 C24         4.5510   24.4030    5.5570 C.ar      1 EFP        -0.0391
     15 C26         4.4940   25.3150    6.6330 C.ar      1 EFP        -0.0664
     16 O28         2.5770   27.3580    8.2740 O.2       1 EFP        -0.3864
     17 N29         1.7530   31.4700    6.8750 N.2       1 EFP        -0.3027
     18 C30         0.5540   31.9080    7.2260 C.2       1 EFP         0.0899
     19 C32        -1.4680   30.7480    9.9510 C.3       1 EFP         0.0008
     20 C35        -2.8580   30.0560    9.7250 C.3       1 EFP         0.0476
     21 N37        -2.9220   28.7610   10.4620 N.am      1 EFP        -0.2839
     22 C39        -3.7890   28.6780   11.5390 C.2       1 EFP         0.1731
     23 C40        -4.0620   27.2620   12.0070 C.3       1 EFP         0.0257
     24 O44        -4.2600   29.6800   12.0900 O.2       1 EFP        -0.3974
     25 C45        -2.4350   29.8440    8.2320 C.3       1 EFP         0.0008
     26 H1         -1.9019   31.9888    8.1378 H         1 EFP         0.0653
     27 H2          0.4660   28.8880    8.5258 H         1 EFP         0.0606
     28 H3          3.7552   29.8751    6.6903 H         1 EFP         0.2159
     29 H4          5.1758   27.3290    8.3613 H         1 EFP         0.0642
     30 H5          5.3358   28.5860    7.0881 H         1 EFP         0.0642
     31 H6          5.3243   28.1221    4.9007 H         1 EFP         0.0534
     32 H7          5.3527   26.5232    3.0249 H         1 EFP         0.0526
     33 H8          6.0735   22.9278    1.8762 H         1 EFP         0.0575
     34 H9          6.8574   23.3363    3.4399 H         1 EFP         0.0575
     35 H10         6.5229   24.6288    2.2381 H         1 EFP         0.0575
     36 H11         4.3626   23.3513    5.7402 H         1 EFP         0.0526
     37 H12         4.2344   24.9811    7.6311 H         1 EFP         0.0534
     38 H13         0.1632   32.9001    7.0049 H         1 EFP         0.1191
     39 H14        -1.4967   31.6470   10.5842 H         1 EFP         0.0318
     40 H15        -0.6695   30.0777   10.3018 H         1 EFP         0.0318
     41 H16        -3.7516   30.6736    9.8984 H         1 EFP         0.0558
     42 H17        -2.3593   27.9809   10.1885 H         1 EFP         0.1854
     43 H18        -4.7557   27.2852   12.8604 H         1 EFP         0.0467
     44 H19        -3.1178   26.7891   12.3148 H         1 EFP         0.0467
     45 H20        -4.5107   26.6843   11.1854 H         1 EFP         0.0467
     46 H21        -1.9519   28.8784    8.0217 H         1 EFP         0.0318
     47 H22        -3.2330   30.0227    7.4963 H         1 EFP         0.0318
@<TRIPOS>BOND
     1    1    2 1  
     2    1   19 1  
     3    1   25 1  
     4    2    3 1  
     5    2   18 1  
     6    3    4 2  
     7    4    5 1  
     8    4   17 1  
     9    5    6 am 
    10    6    7 1  
    11    6   16 2  
    12    7    8 1  
    13    8    9 ar 
    14    8   15 ar 
    15    9   10 ar 
    16   10   11 ar 
    17   11   12 1  
    18   11   14 ar 
    19   12   13 1  
    20   14   15 ar 
    21   17   18 2  
    22   19   20 1  
    23   20   21 1  
    24   20   25 1  
    25   21   22 am 
    26   22   23 1  
    27   22   24 2  
    28    1   26 1  
    29    3   27 1  
    30    5   28 1  
    31    7   29 1  
    32    7   30 1  
    33    9   31 1  
    34   10   32 1  
    35   13   33 1  
    36   13   34 1  
    37   13   35 1  
    38   14   36 1  
    39   15   37 1  
    40   18   38 1  
    41   19   39 1  
    42   19   40 1  
    43   20   41 1  
    44   21   42 1  
    45   23   43 1  
    46   23   44 1  
    47   23   45 1  
    48   25   46 1  
    49   25   47 1  
@<TRIPOS>SUBSTRUCTURE
     1 EFP         1

