### 
### Created by X-TOOL on Mon Sep 10 21:13:00 2018
### 

@<TRIPOS>MOLECULE
3igb_ligand
   41    44     1     0     0
SMALL
GAST_HUCK


@<TRIPOS>ATOM
      1 C1          9.9100   -7.7440   16.0740 C.ar      1 454         0.0009
      2 N1         14.1760   -6.1000   18.6390 N.2       1 454        -0.2552
      3 C2         10.6400   -8.6090   16.8850 C.ar      1 454         0.0024
      4 N2         15.3640   -5.3080   16.7130 N.pl3     1 454        -0.2501
      5 C3         12.0270   -8.4660   16.9910 C.ar      1 454        -0.0072
      6 N3         14.8410   -6.8160   15.1370 N.pl3     1 454        -0.3781
      7 C4         12.7170   -7.4550   16.2860 C.ar      1 454         0.0016
      8 N4         16.3620   -5.0820   14.5680 N.pl3     1 454        -0.3538
      9 C5         11.9570   -6.5950   15.4750 C.ar      1 454        -0.0072
     10 C6         10.5720   -6.7420   15.3720 C.ar      1 454         0.0024
     11 C7         14.2430   -7.3390   16.4470 C.3       1 454         0.1367
     12 C8         14.6700   -6.2290   17.4510 C.2       1 454         0.1426
     13 C9         14.5390   -4.8500   19.3420 C.3       1 454         0.0426
     14 C10        15.8130   -4.1930   18.7830 C.3       1 454        -0.0090
     15 C11        15.6600   -4.0060   17.2780 C.3       1 454         0.0504
     16 C12        15.5330   -5.7400   15.4240 C.cat     1 454         0.1403
     17 C13        14.9280   -8.6750   16.7790 C.ar      1 454         0.0016
     18 C14        14.8620   -9.7420   15.8680 C.ar      1 454        -0.0072
     19 C15        15.4770  -10.9650   16.1360 C.ar      1 454         0.0024
     20 C16        16.1650  -11.1410   17.3310 C.ar      1 454         0.0009
     21 C17        16.2470  -10.0950   18.2440 C.ar      1 454         0.0024
     22 C18        15.6300   -8.8720   17.9730 C.ar      1 454        -0.0072
     23 H1          8.8345   -7.8506   15.9904 H         1 454         0.0997
     24 H2         10.1328   -9.3937   17.4345 H         1 454         0.0933
     25 H3         12.5838   -9.1446   17.6270 H         1 454         0.1036
     26 H4         14.7214   -7.2329   14.2028 H         1 454         0.1520
     27 H5         16.8666   -4.2414   14.8838 H         1 454         0.1654
     28 H6         16.4847   -5.4247   13.6045 H         1 454         0.1654
     29 H7         12.4530   -5.8060   14.9213 H         1 454         0.1036
     30 H8         10.0069   -6.0681   14.7383 H         1 454         0.0933
     31 H9         14.7013   -5.0805   20.4053 H         1 454         0.0488
     32 H10        13.7060   -4.1383   19.2441 H         1 454         0.0488
     33 H11        16.6801   -4.8382   18.9875 H         1 454         0.0307
     34 H12        15.9631   -3.2143   19.2621 H         1 454         0.0307
     35 H13        14.8371   -3.3073   17.0667 H         1 454         0.0595
     36 H14        16.5939   -3.6128   16.8501 H         1 454         0.0595
     37 H15        14.3218   -9.6124   14.9372 H         1 454         0.1036
     38 H16        15.4187  -11.7736   15.4164 H         1 454         0.0933
     39 H17        16.6368  -12.0919   17.5509 H         1 454         0.0997
     40 H18        16.7928  -10.2299   19.1708 H         1 454         0.0933
     41 H19        15.6957   -8.0666   18.6955 H         1 454         0.1036
@<TRIPOS>BOND
     1    3    1 ar 
     2    1   10 ar 
     3   12    2 2  
     4    2   13 1  
     5    5    3 ar 
     6    4   12 1  
     7    4   15 1  
     8   16    4 ar 
     9    7    5 ar 
    10   11    6 1  
    11    6   16 ar 
    12    7    9 ar 
    13    7   11 1  
    14   16    8 ar 
    15    9   10 ar 
    16   11   12 1  
    17   11   17 1  
    18   13   14 1  
    19   14   15 1  
    20   17   18 ar 
    21   17   22 ar 
    22   18   19 ar 
    23   19   20 ar 
    24   20   21 ar 
    25   21   22 ar 
    26    1   23 1  
    27    3   24 1  
    28    5   25 1  
    29    6   26 1  
    30    8   27 1  
    31    8   28 1  
    32    9   29 1  
    33   10   30 1  
    34   13   31 1  
    35   13   32 1  
    36   14   33 1  
    37   14   34 1  
    38   15   35 1  
    39   15   36 1  
    40   18   37 1  
    41   19   38 1  
    42   20   39 1  
    43   21   40 1  
    44   22   41 1  
@<TRIPOS>SUBSTRUCTURE
     1 454         1

