### 
### Created by X-TOOL on Mon Sep 10 21:13:01 2018
### 

@<TRIPOS>MOLECULE
3igg_ligand
   41    43     1     0     0
SMALL
GAST_HUCK


@<TRIPOS>ATOM
      1 C1         -1.4530   31.8920    8.6890 C.3       1 EFQ         0.0686
      2 N1         -0.1600   31.6100    8.1410 N.pl3     1 EFQ        -0.2662
      3 O1         -3.1600   30.3130   11.1490 O.3       1 EFQ        -0.3916
      4 C2          0.6210   30.5100    8.1670 C.2       1 EFQ         0.0450
      5 N2          1.6810   32.1370    7.0490 N.2       1 EFQ        -0.3027
      6 O2          2.4330   28.2990    8.5350 O.2       1 EFQ        -0.3864
      7 C3          0.5010   32.5740    7.4750 C.2       1 EFQ         0.0899
      8 N3          2.9960   30.0580    7.1750 N.am      1 EFQ        -0.2436
      9 O3          4.4810   24.6730    3.2720 O.3       1 EFQ        -0.3255
     10 C4         -2.4830   30.7350    8.7410 C.3       1 EFQ         0.0038
     11 C5         -1.4590   31.8270   10.2650 C.3       1 EFQ         0.0038
     12 C6          1.7950   30.8520    7.4630 C.2       1 EFQ         0.1015
     13 C7         -2.9160   31.2770   10.1230 C.3       1 EFQ         0.0609
     14 C8          3.2290   28.8950    7.8150 C.2       1 EFQ         0.2056
     15 C9          4.6330   28.3980    7.5700 C.3       1 EFQ         0.0697
     16 C10         4.5950   27.4500    6.4140 C.ar      1 EFQ        -0.0347
     17 C11         4.3850   26.1020    6.6270 C.ar      1 EFQ        -0.0664
     18 C12         4.7770   27.9140    5.1070 C.ar      1 EFQ        -0.0664
     19 C13         4.3690   25.1890    5.5890 C.ar      1 EFQ        -0.0391
     20 C14         4.7620   26.9930    4.0720 C.ar      1 EFQ        -0.0391
     21 C15         4.5260   25.6380    4.2890 C.ar      1 EFQ         0.0840
     22 C16         5.6580   24.7400    2.4610 C.3       1 EFQ         0.0579
     23 H1         -1.8413   32.8230    8.2504 H         1 EFQ         0.0653
     24 H2         -3.4176   30.7597   11.9469 H         1 EFQ         0.2098
     25 H3          0.3921   29.5539    8.6355 H         1 EFQ         0.0606
     26 H4          0.1191   33.5800    7.3072 H         1 EFQ         0.1191
     27 H5          3.6509   30.3851    6.4938 H         1 EFQ         0.2159
     28 H6         -2.0415   29.7277    8.7606 H         1 EFQ         0.0320
     29 H7         -3.2623   30.7788    7.9659 H         1 EFQ         0.0320
     30 H8         -1.3765   32.8002   10.7710 H         1 EFQ         0.0320
     31 H9         -0.7369   31.1230   10.7042 H         1 EFQ         0.0320
     32 H10        -3.7237   32.0231   10.0932 H         1 EFQ         0.0595
     33 H11         5.0066   27.8794    8.4653 H         1 EFQ         0.0642
     34 H12         5.2931   29.2460    7.3352 H         1 EFQ         0.0642
     35 H13         4.2278   25.7486    7.6397 H         1 EFQ         0.0534
     36 H14         4.9262   28.9692    4.9086 H         1 EFQ         0.0534
     37 H15         4.2349   24.1325    5.7910 H         1 EFQ         0.0526
     38 H16         4.9398   27.3387    3.0601 H         1 EFQ         0.0526
     39 H17         5.6029   23.9765    1.6710 H         1 EFQ         0.0575
     40 H18         6.5447   24.5577    3.0858 H         1 EFQ         0.0575
     41 H19         5.7312   25.7372    2.0026 H         1 EFQ         0.0575
@<TRIPOS>BOND
     1    2    1 1  
     2    1   10 1  
     3    1   11 1  
     4    4    2 1  
     5    7    2 1  
     6   13    3 1  
     7   12    4 2  
     8    5    7 2  
     9   12    5 1  
    10   14    6 2  
    11    8   12 1  
    12   14    8 am 
    13   21    9 1  
    14    9   22 1  
    15   10   13 1  
    16   11   13 1  
    17   15   14 1  
    18   16   15 1  
    19   17   16 ar 
    20   16   18 ar 
    21   19   17 ar 
    22   18   20 ar 
    23   19   21 ar 
    24   20   21 ar 
    25    1   23 1  
    26    3   24 1  
    27    4   25 1  
    28    7   26 1  
    29    8   27 1  
    30   10   28 1  
    31   10   29 1  
    32   11   30 1  
    33   11   31 1  
    34   13   32 1  
    35   15   33 1  
    36   15   34 1  
    37   17   35 1  
    38   18   36 1  
    39   19   37 1  
    40   20   38 1  
    41   22   39 1  
    42   22   40 1  
    43   22   41 1  
@<TRIPOS>SUBSTRUCTURE
     1 EFQ         1

