### 
### Created by X-TOOL on Mon Sep 10 21:13:02 2018
### 

@<TRIPOS>MOLECULE
3igp_ligand
   34    35     1     0     0
SMALL
GAST_HUCK


@<TRIPOS>ATOM
      1 CAA        -4.0610    7.2340   11.1240 C.3       1 DT7         0.0553
      2 CAB        -0.2620    4.3570   12.5330 C.3       1 DT7         0.0553
      3 NAD        -5.2910   -0.4010   16.1810 N.am      1 DT7        -0.2486
      4 OAE        -5.2360    1.2140   18.0710 O.2       1 DT7        -0.1354
      5 OAF        -7.3450    0.9480   16.7030 O.2       1 DT7        -0.1354
      6 CAG        -4.7030    5.5210   13.2720 C.ar      1 DT7        -0.0459
      7 CAH        -2.5690    3.8940   13.9890 C.ar      1 DT7        -0.0445
      8 CAI        -6.3290    4.0080   14.2810 C.3       1 DT7        -0.0117
      9 CAJ        -6.4400    3.2210   15.5690 C.3       1 DT7         0.0396
     10 OAK        -3.1710    7.0700   12.2540 O.3       1 DT7        -0.3310
     11 OAL        -1.0760    5.4600   12.9630 O.3       1 DT7        -0.3310
     12 CAM        -4.9130    4.3290   13.9690 C.ar      1 DT7        -0.0572
     13 CAN        -3.4100    5.8970   12.9320 C.ar      1 DT7         0.1060
     14 CAO        -2.3460    5.0820   13.2960 C.ar      1 DT7         0.1061
     15 CAP        -3.8470    3.5110   14.3320 C.ar      1 DT7        -0.0416
     16 CAQ        -4.1050    2.1750   15.0780 C.3       1 DT7         0.0550
     17 NAR        -5.3080    2.3140   15.9320 N.am      1 DT7        -0.2124
     18 SAS        -5.8520    0.9620   16.7650 S.o2      1 DT7         0.1173
     19 H1         -3.8346    8.1817   10.6135 H         1 DT7         0.0570
     20 H2         -5.1028    7.2473   11.4767 H         1 DT7         0.0570
     21 H3         -3.9218    6.3977   10.4232 H         1 DT7         0.0570
     22 H4          0.7446    4.7211   12.2795 H         1 DT7         0.0570
     23 H5         -0.7166    3.8892   11.6473 H         1 DT7         0.0570
     24 H6         -0.1907    3.6162   13.3430 H         1 DT7         0.0570
     25 H7         -4.3046   -0.5618   16.1465 H         1 DT7         0.1648
     26 H8         -5.9235   -1.0999   15.8472 H         1 DT7         0.1648
     27 H9         -5.5435    6.1484   12.9983 H         1 DT7         0.0434
     28 H10        -1.7289    3.2652   14.2608 H         1 DT7         0.0435
     29 H11        -6.8954    4.9454   14.3832 H         1 DT7         0.0405
     30 H12        -6.7515    3.4120   13.4586 H         1 DT7         0.0405
     31 H13        -7.3465    2.6019   15.4981 H         1 DT7         0.0499
     32 H14        -6.5545    3.9465   16.3879 H         1 DT7         0.0499
     33 H15        -3.2353    1.9310   15.7057 H         1 DT7         0.0604
     34 H16        -4.2658    1.3704   14.3454 H         1 DT7         0.0604
@<TRIPOS>BOND
     1   10    1 1  
     2   11    2 1  
     3   18    3 am 
     4   18    4 2  
     5   18    5 2  
     6   12    6 ar 
     7    6   13 ar 
     8    7   14 ar 
     9   15    7 ar 
    10    9    8 1  
    11    8   12 1  
    12   17    9 1  
    13   13   10 1  
    14   14   11 1  
    15   15   12 ar 
    16   14   13 ar 
    17   16   15 1  
    18   17   16 1  
    19   17   18 am 
    20    1   19 1  
    21    1   20 1  
    22    1   21 1  
    23    2   22 1  
    24    2   23 1  
    25    2   24 1  
    26    3   25 1  
    27    3   26 1  
    28    6   27 1  
    29    7   28 1  
    30    8   29 1  
    31    8   30 1  
    32    9   31 1  
    33    9   32 1  
    34   16   33 1  
    35   16   34 1  
@<TRIPOS>SUBSTRUCTURE
     1 DT7         1

