### 
### Created by X-TOOL on Mon Sep 10 21:13:02 2018
### 

@<TRIPOS>MOLECULE
3igv_ligand
   58    61     1     0     0
SMALL
GAST_HUCK


@<TRIPOS>ATOM
      1 O31        96.0130    7.0700   62.9810 O.2       1 B80        -0.1505
      2 S35        96.6500    8.3690   63.3160 S.o2      1 B80         0.0554
      3 O30        96.1820    8.7890   64.6570 O.2       1 B80        -0.1505
      4 C20        98.3040    8.2080   63.3880 C.3       1 B80         0.0784
      5 N26        96.3100    9.4620   62.2940 N.am      1 B80        -0.1980
      6 C10        96.1380    9.3040   60.9440 C.ar      1 B80         0.0533
      7 C4         95.4330   10.2980   60.2670 C.ar      1 B80        -0.0534
      8 C3         95.2190   10.2060   58.8940 C.ar      1 B80        -0.0505
      9 C7         96.6370    8.2100   60.2170 C.ar      1 B80        -0.0282
     10 C12        96.4270    8.1090   58.8350 C.ar      1 B80         0.1043
     11 C9         95.7170    9.1200   58.1770 C.ar      1 B80         0.0745
     12 N23        95.4850    9.0690   56.8440 N.pl3     1 B80        -0.2626
     13 S34        96.9860    6.8610   57.9900 S.o2      1 B80         0.0324
     14 O28        98.3880    6.5720   58.3470 O.2       1 B80        -0.1648
     15 O29        96.1700    5.6670   58.2640 O.2       1 B80        -0.1648
     16 N24        96.9130    7.2270   56.4320 N.2       1 B80        -0.2576
     17 C15        96.1430    8.2500   55.9790 C.2       1 B80         0.1140
     18 C13        95.9980    8.4860   54.4920 C.2       1 B80         0.1244
     19 C14        96.2560    7.5040   53.6150 C.2       1 B80         0.1393
     20 O32        96.7620    6.3430   54.0180 O.3       1 B80        -0.2900
     21 C17        95.9680    7.6900   52.1410 C.3       1 B80         0.0609
     22 C18        96.2070    9.1300   51.6760 C.3       1 B80         0.0666
     23 C22        97.7070    9.4370   51.6380 C.3       1 B80        -0.0291
     24 C19        98.2960    9.1300   50.2770 C.3       1 B80        -0.0629
     25 C16        95.5630    9.8020   53.9870 C.2       1 B80         0.1847
     26 O27        95.1960   10.6760   54.7590 O.2       1 B80        -0.4112
     27 N25        95.5640   10.0190   52.6620 N.am      1 B80        -0.2629
     28 C21        94.9070   11.1520   52.0220 C.3       1 B80         0.0645
     29 C8         93.5300   10.7390   51.5570 C.ar      1 B80        -0.0248
     30 C1         93.2180   10.8130   50.1990 C.ar      1 B80        -0.0601
     31 C5         91.9590   10.4300   49.7530 C.ar      1 B80        -0.0348
     32 C2         92.5860   10.2830   52.4750 C.ar      1 B80        -0.0601
     33 C6         91.3270    9.8980   52.0300 C.ar      1 B80        -0.0348
     34 C11        91.0160    9.9730   50.6730 C.ar      1 B80         0.1248
     35 F33        89.7970    9.6060   50.2460 F         1 B80        -0.1893
     36 H1         98.6851    7.8958   62.4045 H         1 B80         0.0487
     37 H2         98.5662    7.4496   64.1404 H         1 B80         0.0487
     38 H3         98.7545    9.1721   63.6666 H         1 B80         0.0487
     39 H4         96.2024   10.3895   62.6519 H         1 B80         0.2118
     40 H5         95.0477   11.1506   60.8145 H         1 B80         0.0458
     41 H6         94.6628   10.9823   58.3811 H         1 B80         0.0500
     42 H7         97.1917    7.4339   60.7318 H         1 B80         0.0477
     43 H8         94.7614    9.6924   56.4585 H         1 B80         0.2138
     44 H9         97.6015    6.4929   54.4365 H         1 B80         0.2757
     45 H10        94.9170    7.4273   51.9506 H         1 B80         0.0622
     46 H11        96.6236    7.0197   51.5657 H         1 B80         0.0622
     47 H12        95.7699    9.2830   50.6782 H         1 B80         0.0599
     48 H13        98.2176    8.8248   52.3960 H         1 B80         0.0287
     49 H14        97.8607   10.5027   51.8630 H         1 B80         0.0287
     50 H15        99.3716    9.3605   50.2825 H         1 B80         0.0231
     51 H16        97.7937    9.7422   49.5135 H         1 B80         0.0231
     52 H17        98.1506    8.0643   50.0464 H         1 B80         0.0231
     53 H18        95.5025   11.4808   51.1576 H         1 B80         0.0676
     54 H19        94.8181   11.9789   52.7419 H         1 B80         0.0676
     55 H20        93.9581   11.1694   49.4917 H         1 B80         0.0548
     56 H21        91.7120   10.4860   48.6990 H         1 B80         0.0587
     57 H22        92.8321   10.2289   53.5293 H         1 B80         0.0548
     58 H23        90.5876    9.5398   52.7372 H         1 B80         0.0587
@<TRIPOS>BOND
     1    1    2 2  
     2    2    3 2  
     3    2    4 1  
     4    2    5 am 
     5    5    6 1  
     6    6    7 ar 
     7    6    9 ar 
     8    7    8 ar 
     9    8   11 ar 
    10    9   10 ar 
    11   10   11 ar 
    12   10   13 1  
    13   11   12 1  
    14   12   17 1  
    15   13   14 2  
    16   13   15 2  
    17   13   16 1  
    18   16   17 2  
    19   17   18 1  
    20   18   19 2  
    21   18   25 1  
    22   19   20 1  
    23   19   21 1  
    24   21   22 1  
    25   22   23 1  
    26   22   27 1  
    27   23   24 1  
    28   25   26 2  
    29   25   27 am 
    30   27   28 1  
    31   28   29 1  
    32   29   30 ar 
    33   29   32 ar 
    34   30   31 ar 
    35   31   34 ar 
    36   32   33 ar 
    37   33   34 ar 
    38   34   35 1  
    39    4   36 1  
    40    4   37 1  
    41    4   38 1  
    42    5   39 1  
    43    7   40 1  
    44    8   41 1  
    45    9   42 1  
    46   12   43 1  
    47   20   44 1  
    48   21   45 1  
    49   21   46 1  
    50   22   47 1  
    51   23   48 1  
    52   23   49 1  
    53   24   50 1  
    54   24   51 1  
    55   24   52 1  
    56   28   53 1  
    57   28   54 1  
    58   30   55 1  
    59   31   56 1  
    60   32   57 1  
    61   33   58 1  
@<TRIPOS>SUBSTRUCTURE
     1 B80         1

