### 
### Created by X-TOOL on Mon Sep 10 21:13:03 2018
### 

@<TRIPOS>MOLECULE
3ihz_ligand
  132   135     1     0     0
SMALL
GAST_HUCK


@<TRIPOS>ATOM
      1 C1         -6.8790   -7.9670  -27.3520 C.2       1 FK5         0.2620
      2 C2         -6.2480   -8.1560  -26.0120 C.3       1 FK5         0.1451
      3 C3         -6.7740   -7.0780  -25.0390 C.3       1 FK5        -0.0108
      4 C4         -6.1320   -5.6930  -25.2100 C.3       1 FK5        -0.0469
      5 C5         -4.6070   -5.8330  -25.2740 C.3       1 FK5        -0.0321
      6 C6         -4.1170   -6.8060  -26.3570 C.3       1 FK5         0.0369
      7 C8         -4.0810   -9.2080  -25.8730 C.2       1 FK5         0.2152
      8 C9         -2.6970   -9.3120  -25.8920 C.3       1 FK5         0.1981
      9 C10        -1.9370   -9.5600  -27.1670 C.3       1 FK5         0.2148
     10 C11        -2.6390  -10.5320  -28.0950 C.3       1 FK5         0.0176
     11 C12        -1.9800  -10.4620  -29.4730 C.3       1 FK5        -0.0164
     12 C13        -1.9150   -9.0340  -30.0050 C.3       1 FK5         0.0874
     13 C14        -1.1480   -8.1980  -28.9810 C.3       1 FK5         0.1142
     14 C15        -1.0010   -6.7060  -29.3370 C.3       1 FK5         0.0873
     15 C16        -2.2650   -6.0270  -29.8410 C.3       1 FK5        -0.0198
     16 C17        -2.2140   -4.4820  -29.8830 C.3       1 FK5        -0.0331
     17 C18        -1.6710   -4.0070  -31.2340 C.3       1 FK5        -0.0259
     18 C19        -2.7620   -4.1010  -32.2780 C.2       1 FK5        -0.0835
     19 C20        -2.7810   -5.2270  -33.2130 C.2       1 FK5        -0.1035
     20 C21        -3.8880   -5.4280  -34.1930 C.3       1 FK5        -0.0090
     21 C22        -4.9330   -6.2320  -33.5030 C.3       1 FK5         0.0634
     22 C23        -6.1050   -5.5650  -32.8410 C.3       1 FK5         0.0012
     23 C24        -6.8840   -6.4830  -31.9080 C.3       1 FK5         0.0647
     24 C25        -6.2090   -6.7460  -30.5400 C.3       1 FK5         0.0216
     25 C26        -6.9660   -7.7410  -29.6400 C.3       1 FK5         0.1175
     26 C27        -6.9890   -9.1030  -30.2870 C.2       1 FK5        -0.0504
     27 C28        -8.3000   -9.6550  -30.6760 C.2       1 FK5        -0.1031
     28 C29        -8.4570  -11.0030  -31.3410 C.3       1 FK5        -0.0326
     29 C30        -9.7300  -11.6780  -30.7840 C.3       1 FK5        -0.0181
     30 C31        -9.9480  -13.0130  -31.4590 C.3       1 FK5         0.0855
     31 C32       -10.0840  -12.8350  -32.9700 C.3       1 FK5         0.0815
     32 C33        -8.8390  -12.1650  -33.5250 C.3       1 FK5        -0.0231
     33 C34        -8.6490  -10.8030  -32.8570 C.3       1 FK5        -0.0445
     34 C35        -2.6350  -11.9780  -27.5660 C.3       1 FK5        -0.0572
     35 C36        -1.3470   -3.8260  -28.7990 C.3       1 FK5        -0.0606
     36 C37        -3.8130   -3.0330  -32.3450 C.3       1 FK5        -0.0403
     37 C38        -3.3170   -6.1940  -35.3830 C.3       1 FK5        -0.0449
     38 C39        -2.3440   -5.2640  -36.1020 C.3       1 FK5        -0.0545
     39 C40        -2.3360   -5.1450  -37.5740 C.3       1 FK5        -0.0652
     40 C41        -5.9990   -5.4310  -29.7610 C.3       1 FK5        -0.0556
     41 C42        -5.7030   -9.8770  -30.5490 C.3       1 FK5        -0.0376
     42 C43        -2.0540   -9.5710  -32.2920 C.3       1 FK5         0.0369
     43 C44         1.3100   -6.6070  -29.6480 C.3       1 FK5         0.0369
     44 C45       -11.0740  -13.9990  -29.6430 C.3       1 FK5         0.0369
     45 N7         -4.7880   -8.1030  -26.1140 N.am      1 FK5        -0.2481
     46 O1         -6.2240   -7.9100  -28.4260 O.3       1 FK5        -0.2597
     47 O2         -8.2430   -7.8050  -27.3760 O.2       1 FK5        -0.3676
     48 O3         -4.7390  -10.3430  -25.5210 O.2       1 FK5        -0.3937
     49 O4         -2.0230   -9.2590  -24.7040 O.3       1 FK5        -0.3667
     50 O5         -1.8540   -8.2940  -27.7530 O.3       1 FK5        -0.3359
     51 O6         -0.6400  -10.0880  -26.8390 O.3       1 FK5        -0.3606
     52 O7         -1.2640   -8.9890  -31.2660 O.3       1 FK5        -0.3771
     53 O8          0.0360   -6.5130  -30.2830 O.3       1 FK5        -0.3771
     54 O9         -4.7670   -7.5910  -33.4660 O.3       1 FK5        -0.3901
     55 O10        -8.1490   -5.9050  -31.6850 O.3       1 FK5        -0.3912
     56 O11       -11.1650  -13.5830  -31.0060 O.3       1 FK5        -0.3771
     57 O12       -10.2540  -14.1230  -33.5650 O.3       1 FK5        -0.3892
     58 H1         -6.5323   -9.1460  -25.6258 H         1 FK5         0.0818
     59 H2         -6.5820   -7.4204  -24.0114 H         1 FK5         0.0314
     60 H3         -7.8580   -6.9750  -25.1947 H         1 FK5         0.0314
     61 H4         -6.4048   -5.0558  -24.3558 H         1 FK5         0.0268
     62 H5         -6.4961   -5.2339  -26.1410 H         1 FK5         0.0268
     63 H6         -4.2508   -6.1934  -24.2977 H         1 FK5         0.0285
     64 H7         -4.1763   -4.8417  -25.4784 H         1 FK5         0.0285
     65 H8         -3.0258   -6.9274  -26.2892 H         1 FK5         0.0524
     66 H9         -4.3824   -6.4251  -27.3542 H         1 FK5         0.0524
     67 H10        -2.5985   -8.2249  -26.0278 H         1 FK5         0.0893
     68 H11        -3.6875  -10.2140  -28.1921 H         1 FK5         0.0353
     69 H12        -2.5615  -11.0764  -30.1761 H         1 FK5         0.0295
     70 H13        -0.9571  -10.8595  -29.3978 H         1 FK5         0.0295
     71 H14        -2.9349   -8.6372  -30.1162 H         1 FK5         0.0623
     72 H15        -0.1409   -8.6253  -28.8668 H         1 FK5         0.0649
     73 H16        -0.7100   -6.1906  -28.4099 H         1 FK5         0.0623
     74 H17        -3.0949   -6.3217  -29.1819 H         1 FK5         0.0295
     75 H18        -2.4610   -6.3883  -30.8613 H         1 FK5         0.0295
     76 H19        -3.2443   -4.1161  -29.7619 H         1 FK5         0.0320
     77 H20        -0.8231   -4.6413  -31.5318 H         1 FK5         0.0413
     78 H21        -1.3354   -2.9630  -31.1476 H         1 FK5         0.0413
     79 H22        -1.9598   -5.9419  -33.1927 H         1 FK5         0.0246
     80 H23        -4.3021   -4.4642  -34.5240 H         1 FK5         0.0400
     81 H24        -5.5078   -6.3151  -34.4372 H         1 FK5         0.0612
     82 H25        -6.7881   -5.2051  -33.6245 H         1 FK5         0.0317
     83 H26        -5.7339   -4.7099  -32.2570 H         1 FK5         0.0317
     84 H27        -7.0120   -7.4518  -32.4129 H         1 FK5         0.0599
     85 H28        -5.2197   -7.1791  -30.7490 H         1 FK5         0.0373
     86 H29        -7.9857   -7.3803  -29.4400 H         1 FK5         0.0802
     87 H30        -9.1936   -9.0658  -30.4754 H         1 FK5         0.0246
     88 H31        -7.5731  -11.6283  -31.1469 H         1 FK5         0.0375
     89 H32       -10.5980  -11.0291  -30.9724 H         1 FK5         0.0308
     90 H33        -9.6157  -11.8324  -29.7009 H         1 FK5         0.0308
     91 H34        -9.1051  -13.6820  -31.2313 H         1 FK5         0.0623
     92 H35       -10.9616  -12.2094  -33.1900 H         1 FK5         0.0619
     93 H36        -8.9500  -12.0279  -34.6108 H         1 FK5         0.0292
     94 H37        -7.9619  -12.7974  -33.3230 H         1 FK5         0.0292
     95 H38        -7.7615  -10.3077  -33.2778 H         1 FK5         0.0283
     96 H39        -9.5368  -10.1787  -33.0360 H         1 FK5         0.0283
     97 H40        -3.1125  -12.0074  -26.5755 H         1 FK5         0.0234
     98 H41        -1.5980  -12.3355  -27.4838 H         1 FK5         0.0234
     99 H42        -3.1917  -12.6241  -28.2607 H         1 FK5         0.0234
    100 H43        -1.7017   -4.1398  -27.8062 H         1 FK5         0.0234
    101 H44        -1.4183   -2.7317  -28.8848 H         1 FK5         0.0234
    102 H45        -0.2998   -4.1366  -28.9292 H         1 FK5         0.0234
    103 H46        -4.5183   -3.2631  -33.1571 H         1 FK5         0.0375
    104 H47        -3.3361   -2.0608  -32.5381 H         1 FK5         0.0375
    105 H48        -4.3555   -2.9919  -31.3890 H         1 FK5         0.0375
    106 H49        -4.1285   -6.4884  -36.0647 H         1 FK5         0.0283
    107 H50        -2.7883   -7.0927  -35.0326 H         1 FK5         0.0283
    108 H51        -1.3335   -5.5870  -35.8112 H         1 FK5         0.0264
    109 H52        -2.5330   -4.2538  -35.7100 H         1 FK5         0.0264
    110 H53        -1.5620   -4.4255  -37.8795 H         1 FK5         0.0230
    111 H54        -3.3197   -4.7938  -37.9189 H         1 FK5         0.0230
    112 H55        -2.1202   -6.1270  -38.0201 H         1 FK5         0.0230
    113 H56        -5.4588   -4.7119  -30.3943 H         1 FK5         0.0236
    114 H57        -5.4123   -5.6326  -28.8527 H         1 FK5         0.0236
    115 H58        -6.9762   -5.0108  -29.4807 H         1 FK5         0.0236
    116 H59        -5.9445  -10.8391  -31.0244 H         1 FK5         0.0376
    117 H60        -5.1839  -10.0588  -29.5964 H         1 FK5         0.0376
    118 H61        -5.0522   -9.2919  -31.2154 H         1 FK5         0.0376
    119 H62        -1.5128   -9.5146  -33.2480 H         1 FK5         0.0524
    120 H63        -3.0053   -9.0253  -32.3765 H         1 FK5         0.0524
    121 H64        -2.2559  -10.6241  -32.0466 H         1 FK5         0.0524
    122 H65         2.1037   -6.4552  -30.3943 H         1 FK5         0.0524
    123 H66         1.4203   -7.6023  -29.1928 H         1 FK5         0.0524
    124 H67         1.3884   -5.8360  -28.8674 H         1 FK5         0.0524
    125 H68       -12.0336  -14.4347  -29.3278 H         1 FK5         0.0524
    126 H69       -10.8398  -13.1308  -29.0095 H         1 FK5         0.0524
    127 H70       -10.2786  -14.7520  -29.5418 H         1 FK5         0.0524
    128 H71        -1.5803  -10.0863  -24.5552 H         1 FK5         0.2135
    129 H72        -0.2076   -9.5047  -26.2264 H         1 FK5         0.2130
    130 H73        -5.5147   -8.0115  -33.8743 H         1 FK5         0.2100
    131 H74        -8.0434   -5.0865  -31.2144 H         1 FK5         0.2098
    132 H75        -9.4962  -14.6623  -33.3718 H         1 FK5         0.2099
@<TRIPOS>BOND
     1    2    1 1  
     2    1   46 1  
     3    1   47 2  
     4    2    3 1  
     5   45    2 1  
     6    3    4 1  
     7    5    4 1  
     8    6    5 1  
     9   45    6 1  
    10    7    8 1  
    11    7   45 am 
    12    7   48 2  
    13    8    9 1  
    14    8   49 1  
    15    9   10 1  
    16    9   50 1  
    17    9   51 1  
    18   10   11 1  
    19   10   34 1  
    20   11   12 1  
    21   12   13 1  
    22   12   52 1  
    23   13   14 1  
    24   13   50 1  
    25   14   15 1  
    26   14   53 1  
    27   15   16 1  
    28   16   17 1  
    29   16   35 1  
    30   17   18 1  
    31   18   19 2  
    32   18   36 1  
    33   19   20 1  
    34   20   21 1  
    35   20   37 1  
    36   21   22 1  
    37   21   54 1  
    38   22   23 1  
    39   23   24 1  
    40   23   55 1  
    41   24   25 1  
    42   24   40 1  
    43   25   26 1  
    44   25   46 1  
    45   26   27 2  
    46   26   41 1  
    47   27   28 1  
    48   28   29 1  
    49   28   33 1  
    50   29   30 1  
    51   30   31 1  
    52   30   56 1  
    53   31   32 1  
    54   31   57 1  
    55   32   33 1  
    56   37   38 1  
    57   38   39 1  
    58   52   42 1  
    59   53   43 1  
    60   56   44 1  
    61    2   58 1  
    62    3   59 1  
    63    3   60 1  
    64    4   61 1  
    65    4   62 1  
    66    5   63 1  
    67    5   64 1  
    68    6   65 1  
    69    6   66 1  
    70    8   67 1  
    71   10   68 1  
    72   11   69 1  
    73   11   70 1  
    74   12   71 1  
    75   13   72 1  
    76   14   73 1  
    77   15   74 1  
    78   15   75 1  
    79   16   76 1  
    80   17   77 1  
    81   17   78 1  
    82   19   79 1  
    83   20   80 1  
    84   21   81 1  
    85   22   82 1  
    86   22   83 1  
    87   23   84 1  
    88   24   85 1  
    89   25   86 1  
    90   27   87 1  
    91   28   88 1  
    92   29   89 1  
    93   29   90 1  
    94   30   91 1  
    95   31   92 1  
    96   32   93 1  
    97   32   94 1  
    98   33   95 1  
    99   33   96 1  
   100   34   97 1  
   101   34   98 1  
   102   34   99 1  
   103   35  100 1  
   104   35  101 1  
   105   35  102 1  
   106   36  103 1  
   107   36  104 1  
   108   36  105 1  
   109   37  106 1  
   110   37  107 1  
   111   38  108 1  
   112   38  109 1  
   113   39  110 1  
   114   39  111 1  
   115   39  112 1  
   116   40  113 1  
   117   40  114 1  
   118   40  115 1  
   119   41  116 1  
   120   41  117 1  
   121   41  118 1  
   122   42  119 1  
   123   42  120 1  
   124   42  121 1  
   125   43  122 1  
   126   43  123 1  
   127   43  124 1  
   128   44  125 1  
   129   44  126 1  
   130   44  127 1  
   131   49  128 1  
   132   51  129 1  
   133   54  130 1  
   134   55  131 1  
   135   57  132 1  
@<TRIPOS>SUBSTRUCTURE
     1 FK5         1

