### 
### Created by X-TOOL on Mon Sep 10 21:13:01 2018
### 

@<TRIPOS>MOLECULE
3ii5_ligand
   63    67     1     0     0
SMALL
GAST_HUCK


@<TRIPOS>ATOM
      1 C1        -11.9550    8.5420    9.0290 C.3       1 831        -0.0420
      2 F1         -8.5590   22.0150    1.2540 F         1 831        -0.2197
      3 N1        -12.8220    9.0000   10.1780 N.4       1 831         0.2421
      4 O1         -8.6300   20.8260    5.7140 O.2       1 831        -0.3722
      5 C2        -14.0960    9.6700    9.7310 C.3       1 831        -0.0420
      6 F2         -6.7380   22.5700    0.1950 F         1 831        -0.2197
      7 N2         -8.6910   16.8420    9.8400 N.2       1 831        -0.2053
      8 C3        -12.0500    9.7430   11.2660 C.3       1 831        -0.0017
      9 F3         -7.8680   24.0670    1.2580 F         1 831        -0.2197
     10 N3         -9.8980   17.3980   10.1210 N.pl3     1 831        -0.1282
     11 C4        -11.5880   11.1680   11.0270 C.ar      1 831        -0.0055
     12 N4        -12.1400   16.7890   10.7540 N.2       1 831        -0.2665
     13 C5        -12.2670   12.2670   11.5860 C.ar      1 831        -0.0627
     14 N5         -6.9640   21.3760    7.2520 N.am      1 831        -0.2318
     15 C6        -11.8360   13.5840   11.3620 C.ar      1 831        -0.0723
     16 C7        -10.7050   13.8370   10.5690 C.ar      1 831        -0.0491
     17 C8        -10.0250   12.7400   10.0190 C.ar      1 831        -0.0723
     18 C9        -10.4550   11.4270   10.2420 C.ar      1 831        -0.0627
     19 C10       -10.2060   15.1920   10.3450 C.2       1 831         0.0107
     20 C11        -8.8930   15.5400    9.9800 C.2       1 831        -0.0030
     21 C12       -10.8590   16.4200   10.4380 C.2       1 831         0.1741
     22 C13       -12.4000   18.0630   10.7380 C.2       1 831         0.0143
     23 C14       -11.4560   19.1600   10.4160 C.2       1 831         0.0118
     24 C15       -10.2040   18.7700   10.1080 C.2       1 831         0.1472
     25 C16        -9.1710   19.7890    9.8230 C.ar      1 831         0.0229
     26 C17        -8.7870   20.5510   10.9340 C.ar      1 831        -0.0585
     27 C18        -7.8270   21.5510   10.8460 C.ar      1 831        -0.0693
     28 C19        -7.2210   21.8130    9.6250 C.ar      1 831        -0.0364
     29 C20        -7.5730   21.0740    8.4930 C.ar      1 831         0.0712
     30 C21        -8.5550   20.0530    8.5830 C.ar      1 831        -0.0236
     31 C22        -7.5210   21.2500    5.9980 C.2       1 831         0.2394
     32 C23        -6.6740   21.7180    4.8850 C.ar      1 831         0.0853
     33 C24        -5.2890   21.8720    4.9640 C.ar      1 831        -0.0141
     34 C25        -4.5940   22.3280    3.8430 C.ar      1 831        -0.0272
     35 C26        -5.2730   22.6290    2.6590 C.ar      1 831        -0.0277
     36 C27        -6.6610   22.4770    2.5840 C.ar      1 831         0.0540
     37 C28        -7.3530   22.0220    3.7040 C.ar      1 831        -0.0107
     38 C29        -7.4380   22.7820    1.3400 C.3       1 831         0.3783
     39 H1        -12.5757    8.0174    8.2877 H         1 831         0.0778
     40 H2        -11.1780    7.8601    9.4050 H         1 831         0.0778
     41 H3        -11.4799    9.4149    8.5575 H         1 831         0.0778
     42 H4        -13.1278    8.1493   10.6239 H         1 831         0.2041
     43 H5        -14.6775    9.9773   10.6127 H         1 831         0.0778
     44 H6        -14.6885    8.9661    9.1282 H         1 831         0.0778
     45 H7        -13.8518   10.5556    9.1260 H         1 831         0.0778
     46 H8        -11.1495    9.1484   11.4793 H         1 831         0.0967
     47 H9        -12.6955    9.7632   12.1565 H         1 831         0.0967
     48 H10       -13.1413   12.0926   12.2026 H         1 831         0.0541
     49 H11        -6.0253   21.7189    7.2891 H         1 831         0.2251
     50 H12       -12.3797   14.4111   11.8040 H         1 831         0.0533
     51 H13        -9.1468   12.9133    9.4076 H         1 831         0.0533
     52 H14        -9.9065   10.6013    9.8033 H         1 831         0.0541
     53 H15        -8.1081   14.8011    9.8254 H         1 831         0.0668
     54 H16       -13.4190   18.3551   10.9875 H         1 831         0.0967
     55 H17       -11.7539   20.2074   10.4277 H         1 831         0.0624
     56 H18        -9.2537   20.3541   11.8924 H         1 831         0.0542
     57 H19        -7.5529   22.1230   11.7250 H         1 831         0.0591
     58 H20        -6.4724   22.5934    9.5497 H         1 831         0.0543
     59 H21        -8.8292   19.4804    7.7044 H         1 831         0.0546
     60 H22        -4.7612   21.6409    5.8822 H         1 831         0.0903
     61 H23        -3.5179   22.4498    3.8910 H         1 831         0.0708
     62 H24        -4.7213   22.9818    1.7952 H         1 831         0.0883
     63 H25        -8.4294   21.9028    3.6579 H         1 831         0.0912
@<TRIPOS>BOND
     1    3    1 1  
     2   38    2 1  
     3    3    5 1  
     4    8    3 1  
     5   31    4 2  
     6   38    6 1  
     7   10    7 1  
     8    7   20 2  
     9   11    8 1  
    10   38    9 1  
    11   10   21 1  
    12   24   10 1  
    13   13   11 ar 
    14   18   11 ar 
    15   21   12 1  
    16   22   12 2  
    17   15   13 ar 
    18   14   29 1  
    19   31   14 am 
    20   16   15 ar 
    21   16   17 ar 
    22   19   16 1  
    23   17   18 ar 
    24   19   20 1  
    25   21   19 2  
    26   23   22 1  
    27   24   23 2  
    28   25   24 1  
    29   25   26 ar 
    30   30   25 ar 
    31   27   26 ar 
    32   28   27 ar 
    33   29   28 ar 
    34   29   30 ar 
    35   32   31 1  
    36   32   33 ar 
    37   37   32 ar 
    38   34   33 ar 
    39   35   34 ar 
    40   36   35 ar 
    41   36   37 ar 
    42   36   38 1  
    43    1   39 1  
    44    1   40 1  
    45    1   41 1  
    46    3   42 1  
    47    5   43 1  
    48    5   44 1  
    49    5   45 1  
    50    8   46 1  
    51    8   47 1  
    52   13   48 1  
    53   14   49 1  
    54   15   50 1  
    55   17   51 1  
    56   18   52 1  
    57   20   53 1  
    58   22   54 1  
    59   23   55 1  
    60   26   56 1  
    61   27   57 1  
    62   28   58 1  
    63   30   59 1  
    64   33   60 1  
    65   34   61 1  
    66   35   62 1  
    67   37   63 1  
@<TRIPOS>SUBSTRUCTURE
     1 831         1

