### 
### Created by X-TOOL on Mon Sep 10 21:12:59 2018
### 

@<TRIPOS>MOLECULE
3iiw_ligand
   89    88     1     0     0
SMALL
GAST_HUCK


@<TRIPOS>ATOM
      1 N         -21.1360  -36.2940   25.7300 N.4       1 ALA         0.2377
      2 CA        -19.8020  -35.6730   25.9670 C.3       1 ALA         0.0621
      3 C         -19.9870  -34.2530   26.4810 C.2       1 ALA         0.2264
      4 O         -20.7850  -33.4970   25.9460 O.2       1 ALA        -0.3907
      5 CB        -18.9960  -35.6660   24.6810 C.3       1 ALA        -0.0040
      6 N         -19.2870  -33.9060   27.5510 N.am      1 ARG        -0.2610
      7 CA        -19.3900  -32.5720   28.1270 C.3       1 ARG         0.1312
      8 C         -18.2000  -31.7130   27.6790 C.2       1 ARG         0.2039
      9 O         -17.1080  -32.2300   27.4930 O.2       1 ARG        -0.3944
     10 CB        -19.4000  -32.6750   29.6470 C.3       1 ARG        -0.0092
     11 CG        -19.7460  -31.3610   30.3540 C.3       1 ARG        -0.0156
     12 CD        -21.0700  -30.7500   29.8850 C.3       1 ARG         0.0627
     13 NE        -20.9430  -29.3080   29.6630 N.pl3     1 ARG        -0.2723
     14 CZ        -21.0370  -28.7150   28.4760 C.cat     1 ARG         0.2882
     15 NH1       -21.2970  -29.4210   27.3800 N.pl3     1 ARG        -0.2849
     16 NH2       -20.8870  -27.3980   28.3920 N.pl3     1 ARG        -0.2849
     17 N         -18.4120  -30.4070   27.5360 N.am      1 M3L        -0.2637
     18 CA        -17.3030  -29.5000   27.2430 C.3       1 M3L         0.1310
     19 CB        -17.8300  -28.3020   26.4520 C.3       1 M3L        -0.0122
     20 CG        -16.6770  -27.4400   25.9200 C.3       1 M3L        -0.0440
     21 CD        -17.2490  -26.1840   25.2570 C.3       1 M3L        -0.0123
     22 CE        -16.1530  -25.3410   24.5820 C.3       1 M3L        -0.0309
     23 NZ        -16.6070  -24.1390   23.8380 N.4       1 M3L         0.2369
     24 C         -16.4880  -29.1270   28.4550 C.2       1 M3L         0.2040
     25 O         -15.3030  -28.8450   28.3330 O.2       1 M3L        -0.3944
     26 CM1       -15.4110  -23.4000   23.4000 C.3       1 M3L        -0.0418
     27 CM2       -17.4270  -23.2370   24.6730 C.3       1 M3L        -0.0418
     28 CM3       -17.3800  -24.4930   22.6340 C.3       1 M3L        -0.0418
     29 N         -17.0720  -29.1600   29.6530 N.am      1 SER        -0.2616
     30 CA        -16.2620  -28.9210   30.8590 C.3       1 SER         0.1539
     31 C         -16.4010  -29.9880   31.9500 C.2       1 SER         0.2056
     32 O         -17.4440  -30.6200   32.0560 O.2       1 SER        -0.3943
     33 CB        -16.5540  -27.5410   31.4410 C.3       1 SER         0.0843
     34 OG        -17.9480  -27.3320   31.5570 O.3       1 SER        -0.3903
     35 N         -15.3770  -30.1370   32.7910 N.am      1 ALA        -0.2697
     36 CA        -15.4520  -31.0140   33.9700 C.3       1 ALA         0.0916
     37 C         -16.1580  -30.3150   35.1260 C.2       1 ALA         0.0598
     38 O         -17.3410  -30.5600   35.3820 O.co2     1 ALA        -0.5666
     39 CB        -14.0560  -31.4740   34.4040 C.3       1 ALA        -0.0300
     40 H47       -15.6138  -29.5923   35.7322 O.co2     1 ALA        -0.5666
     41 H1        -21.0129  -37.2347   25.3895 H         1 ALA         0.2015
     42 H2        -21.6419  -35.7528   25.0465 H         1 ALA         0.2015
     43 H3        -21.6553  -36.3146   26.5937 H         1 ALA         0.2015
     44 H4        -19.2613  -36.2606   26.7235 H         1 ALA         0.1095
     45 H5        -18.0141  -35.2061   24.8662 H         1 ALA         0.0310
     46 H6        -19.5330  -35.0876   23.9148 H         1 ALA         0.0310
     47 H7        -18.8566  -36.6991   24.3300 H         1 ALA         0.0310
     48 H8        -18.6744  -34.5746   27.9725 H         1 ARG         0.1884
     49 H9        -20.3246  -32.1016   27.7875 H         1 ARG         0.0800
     50 H10       -18.4015  -32.9950   29.9794 H         1 ARG         0.0313
     51 H11       -20.1434  -33.4316   29.9384 H         1 ARG         0.0313
     52 H12       -18.9401  -30.6378   30.1605 H         1 ARG         0.0301
     53 H13       -19.8141  -31.5537   31.4348 H         1 ARG         0.0301
     54 H14       -21.8381  -30.9279   30.6521 H         1 ARG         0.0689
     55 H15       -21.3732  -31.2318   28.9438 H         1 ARG         0.0689
     56 H16       -20.7686  -28.7109   30.4839 H         1 ARG         0.2642
     57 H17       -21.3669  -28.9484   26.4675 H         1 ARG         0.2615
     58 H18       -21.4285  -30.4406   27.4433 H         1 ARG         0.2615
     59 H19       -20.6855  -26.8476   29.2389 H         1 ARG         0.2615
     60 H20       -20.9722  -26.9271   27.4799 H         1 ARG         0.2615
     61 H21       -19.3384  -30.0424   27.6298 H         1 M3L         0.1883
     62 H22       -16.6170  -30.0424   26.5758 H         1 M3L         0.0800
     63 H23       -18.4636  -27.6883   27.1092 H         1 M3L         0.0312
     64 H24       -18.4271  -28.6666   25.6031 H         1 M3L         0.0312
     65 H25       -16.0990  -28.0146   25.1813 H         1 M3L         0.0269
     66 H26       -16.0207  -27.1491   26.7534 H         1 M3L         0.0269
     67 H27       -17.7462  -25.5721   26.0240 H         1 M3L         0.0317
     68 H28       -17.9837  -26.4867   24.4963 H         1 M3L         0.0317
     69 H29       -15.6199  -25.9915   23.8730 H         1 M3L         0.0815
     70 H30       -15.4581  -25.0061   25.3662 H         1 M3L         0.0815
     71 H31       -15.7181  -22.5017   22.8444 H         1 M3L         0.0778
     72 H32       -14.8007  -24.0430   22.7488 H         1 M3L         0.0778
     73 H33       -14.8208  -23.1032   24.2795 H         1 M3L         0.0778
     74 H34       -18.3279  -23.7693   25.0121 H         1 M3L         0.0778
     75 H35       -17.7217  -22.3572   24.0821 H         1 M3L         0.0778
     76 H36       -16.8420  -22.9130   25.5464 H         1 M3L         0.0778
     77 H37       -16.7835  -25.1653   21.9999 H         1 M3L         0.0778
     78 H38       -17.6230  -23.5790   22.0723 H         1 M3L         0.0778
     79 H39       -18.3104  -24.9990   22.9312 H         1 M3L         0.0778
     80 H40       -18.0515  -29.3454   29.7318 H         1 SER         0.1884
     81 H41       -15.2099  -28.9305   30.5381 H         1 SER         0.0823
     82 H42       -16.1275  -26.7725   30.7795 H         1 SER         0.0606
     83 H43       -16.0933  -27.4643   32.4369 H         1 SER         0.0606
     84 H44       -18.1085  -26.4691   31.9205 H         1 SER         0.2097
     85 H45       -14.5298  -29.6359   32.6145 H         1 ALA         0.1875
     86 H46       -16.0378  -31.9040   33.6964 H         1 ALA         0.0723
     87 H48       -14.1425  -32.1266   35.2853 H         1 ALA         0.0270
     88 H49       -13.4427  -30.5964   34.6565 H         1 ALA         0.0270
     89 H50       -13.5808  -32.0292   33.5819 H         1 ALA         0.0270
@<TRIPOS>BOND
     1    1    2 1  
     2    2    3 1  
     3    2    5 1  
     4    3    4 2  
     5    3    6 am 
     6    6    7 1  
     7    7    8 1  
     8    7   10 1  
     9    8    9 2  
    10    8   17 am 
    11   10   11 1  
    12   11   12 1  
    13   12   13 1  
    14   13   14 ar 
    15   14   15 ar 
    16   14   16 ar 
    17   17   18 1  
    18   18   19 1  
    19   18   24 1  
    20   19   20 1  
    21   20   21 1  
    22   21   22 1  
    23   22   23 1  
    24   23   26 1  
    25   23   27 1  
    26   23   28 1  
    27   24   25 2  
    28   24   29 am 
    29   29   30 1  
    30   30   31 1  
    31   30   33 1  
    32   31   32 2  
    33   31   35 am 
    34   33   34 1  
    35   35   36 1  
    36   36   37 1  
    37   36   39 1  
    38   37   38 ar 
    39   37   40 ar 
    40    1   41 1  
    41    1   42 1  
    42    1   43 1  
    43    2   44 1  
    44    5   45 1  
    45    5   46 1  
    46    5   47 1  
    47    6   48 1  
    48    7   49 1  
    49   10   50 1  
    50   10   51 1  
    51   11   52 1  
    52   11   53 1  
    53   12   54 1  
    54   12   55 1  
    55   13   56 1  
    56   15   57 1  
    57   15   58 1  
    58   16   59 1  
    59   16   60 1  
    60   17   61 1  
    61   18   62 1  
    62   19   63 1  
    63   19   64 1  
    64   20   65 1  
    65   20   66 1  
    66   21   67 1  
    67   21   68 1  
    68   22   69 1  
    69   22   70 1  
    70   26   71 1  
    71   26   72 1  
    72   26   73 1  
    73   27   74 1  
    74   27   75 1  
    75   27   76 1  
    76   28   77 1  
    77   28   78 1  
    78   28   79 1  
    79   29   80 1  
    80   30   81 1  
    81   33   82 1  
    82   33   83 1  
    83   34   84 1  
    84   35   85 1  
    85   36   86 1  
    86   39   87 1  
    87   39   88 1  
    88   39   89 1  
@<TRIPOS>SUBSTRUCTURE
     1 ALA         1

