### 
### Created by X-TOOL on Mon Sep 10 21:13:03 2018
### 

@<TRIPOS>MOLECULE
3ijg_ligand
   35    36     1     0     0
SMALL
GAST_HUCK


@<TRIPOS>ATOM
      1 C          14.0140   43.3950   15.5940 C.2       1 AVR         0.1416
      2 N          11.9950   43.5600   14.2750 N.4       1 AVR         0.2356
      3 O          14.7820   43.8590   14.7510 O.2       1 AVR        -0.4028
      4 N1         14.6900   40.4830   17.7380 N.2       1 AVR        -0.2148
      5 C2         13.9780   41.0640   16.7700 C.2       1 AVR         0.0160
      6 C3         14.4940   42.3390   16.5900 C.2       1 AVR         0.0473
      7 C4         15.5260   42.4670   17.5080 C.2       1 AVR         0.1135
      8 N5         15.5670   41.2340   18.1750 N.pl3     1 AVR        -0.1582
      9 C6         16.5260   41.0370   19.1760 C.2       1 AVR         0.0985
     10 C7         17.4070   42.0630   19.4980 C.2       1 AVR        -0.0202
     11 C8         17.3500   43.2830   18.8350 C.2       1 AVR        -0.0576
     12 C9         16.4100   43.4910   17.8320 C.2       1 AVR        -0.0234
     13 CA         12.5450   43.8140   15.6160 C.3       1 AVR         0.0377
     14 CB         12.5090   45.3070   15.9470 C.3       1 AVR        -0.0067
     15 C10        12.7830   40.4720   16.0130 C.3       1 AVR        -0.0093
     16 C11        11.5050   40.6430   16.8400 C.3       1 AVR        -0.0527
     17 C12        13.0140   38.9930   15.6950 C.3       1 AVR        -0.0527
     18 H          12.0300   42.5598   14.0783 H         1 AVR         0.2013
     19 H          11.0275   43.8811   14.2392 H         1 AVR         0.2013
     20 H          12.5476   44.0637   13.5812 H         1 AVR         0.2013
     21 H          16.5815   40.0832   19.7006 H         1 AVR         0.1243
     22 H          18.1510   41.9088   20.2795 H         1 AVR         0.0575
     23 H          18.0445   44.0794   19.1022 H         1 AVR         0.0659
     24 H          16.3663   44.4447   17.3060 H         1 AVR         0.0596
     25 H          11.9590   43.2644   16.3527 H         1 AVR         0.1065
     26 H          13.1024   45.8546   15.2148 H         1 AVR         0.0308
     27 H          11.4780   45.6595   15.9179 H         1 AVR         0.0308
     28 H          12.9211   45.4670   16.9433 H         1 AVR         0.0308
     29 H          12.6734   41.0074   15.0699 H         1 AVR         0.0456
     30 H          10.6543   40.2622   16.2748 H         1 AVR         0.0254
     31 H          11.6006   40.0879   17.7732 H         1 AVR         0.0254
     32 H          11.3539   41.7001   17.0585 H         1 AVR         0.0254
     33 H          13.1133   38.4338   16.6254 H         1 AVR         0.0254
     34 H          12.1670   38.6082   15.1270 H         1 AVR         0.0254
     35 H          13.9256   38.8872   15.1070 H         1 AVR         0.0254
@<TRIPOS>BOND
     1    1    3 2  
     2    6    1 1  
     3    1   13 1  
     4   13    2 1  
     5    5    4 2  
     6    4    8 1  
     7    5    6 1  
     8    5   15 1  
     9    6    7 2  
    10    7    8 1  
    11    7   12 1  
    12    8    9 1  
    13    9   10 2  
    14   10   11 1  
    15   11   12 2  
    16   13   14 1  
    17   15   16 1  
    18   15   17 1  
    19    2   18 1  
    20    2   19 1  
    21    2   20 1  
    22    9   21 1  
    23   10   22 1  
    24   11   23 1  
    25   12   24 1  
    26   13   25 1  
    27   14   26 1  
    28   14   27 1  
    29   14   28 1  
    30   15   29 1  
    31   16   30 1  
    32   16   31 1  
    33   16   32 1  
    34   17   33 1  
    35   17   34 1  
    36   17   35 1  
@<TRIPOS>SUBSTRUCTURE
     1 AVR         1

