### 
### Created by X-TOOL on Mon Sep 10 21:13:01 2018
### 

@<TRIPOS>MOLECULE
3ijh_ligand
   39    39     1     0     0
SMALL
GAST_HUCK


@<TRIPOS>ATOM
      1 C1         -9.6380    0.4070   -0.0820 C.2       1 KO2         0.1068
      2 O1B        -8.7210    0.7670    0.6950 O.co2     1 KO2        -0.5426
      3 C2         -9.2740   -0.5000   -1.2580 C.3       1 KO2         0.2473
      4 O6        -10.4450   -0.6430   -2.0960 O.3       1 KO2        -0.3362
      5 C6        -10.2770   -1.5500   -3.2070 C.3       1 KO2         0.1171
      6 C7        -11.5590   -1.6080   -4.0400 C.3       1 KO2         0.1067
      7 C8        -11.8360   -0.2110   -4.6140 C.3       1 KO2         0.0727
      8 O8        -13.0230   -0.2280   -5.4060 O.3       1 KO2        -0.3924
      9 O7        -11.4190   -2.5550   -5.1000 O.3       1 KO2        -0.3869
     10 C5        -10.0220   -2.9640   -2.6570 C.3       1 KO2         0.1120
     11 O5        -11.1460   -3.3990   -1.8790 O.3       1 KO2        -0.3865
     12 C4         -8.7490   -2.8820   -1.8350 C.3       1 KO2         0.1139
     13 O4         -8.4880   -4.1600   -1.2500 O.3       1 KO2        -0.3865
     14 C3         -8.9290   -1.8740   -0.6850 C.3       1 KO2         0.1428
     15 O3         -9.8980   -2.3030    0.2650 O.3       1 KO2        -0.3844
     16 O2         -8.2770    0.0160   -2.1240 O.3       1 KO2        -0.3449
     17 C11        -4.9220    1.2150   -2.8320 C.3       1 KO2        -0.0632
     18 C10        -6.3900    0.8420   -2.9790 C.3       1 KO2        -0.0323
     19 C9         -6.9540    0.2490   -1.6810 C.3       1 KO2         0.0497
     20 O1A       -10.8580    0.6610    0.0520 O.co2     1 KO2        -0.5426
     21 H1         -9.4332   -1.2231   -3.8324 H         1 KO2         0.0649
     22 H2        -12.3980   -1.9110   -3.3964 H         1 KO2         0.0643
     23 H3        -10.9864    0.0992   -5.2400 H         1 KO2         0.0584
     24 H4        -11.9619    0.5030   -3.7867 H         1 KO2         0.0584
     25 H5        -12.9156   -0.8427   -6.1223 H         1 KO2         0.2095
     26 H6        -12.2207   -2.5797   -5.6090 H         1 KO2         0.2100
     27 H7         -9.8751   -3.6682   -3.4891 H         1 KO2         0.0647
     28 H8        -11.2782   -2.8003   -1.1533 H         1 KO2         0.2100
     29 H9         -7.9095   -2.5774   -2.4772 H         1 KO2         0.0647
     30 H10        -8.3840   -4.8067   -1.9380 H         1 KO2         0.2100
     31 H11        -7.9670   -1.7898   -0.1583 H         1 KO2         0.0667
     32 H12       -10.7375   -2.4097   -0.1667 H         1 KO2         0.2100
     33 H13        -4.5539    1.6354   -3.7795 H         1 KO2         0.0230
     34 H14        -4.3392    0.3173   -2.5782 H         1 KO2         0.0230
     35 H15        -4.8118    1.9620   -2.0321 H         1 KO2         0.0230
     36 H16        -6.4909    0.0994   -3.7842 H         1 KO2         0.0285
     37 H17        -6.9635    1.7442   -3.2382 H         1 KO2         0.0285
     38 H18        -6.4424   -0.6809   -1.3920 H         1 KO2         0.0559
     39 H19        -6.9149    0.9639   -0.8459 H         1 KO2         0.0559
@<TRIPOS>BOND
     1    1    2 ar 
     2    3    1 1  
     3    1   20 ar 
     4    3    4 1  
     5    3   14 1  
     6   16    3 1  
     7    4    5 1  
     8    5    6 1  
     9    5   10 1  
    10    6    7 1  
    11    6    9 1  
    12    7    8 1  
    13   10   11 1  
    14   12   10 1  
    15   12   13 1  
    16   14   12 1  
    17   14   15 1  
    18   19   16 1  
    19   18   17 1  
    20   18   19 1  
    21    5   21 1  
    22    6   22 1  
    23    7   23 1  
    24    7   24 1  
    25    8   25 1  
    26    9   26 1  
    27   10   27 1  
    28   11   28 1  
    29   12   29 1  
    30   13   30 1  
    31   14   31 1  
    32   15   32 1  
    33   17   33 1  
    34   17   34 1  
    35   17   35 1  
    36   18   36 1  
    37   18   37 1  
    38   19   38 1  
    39   19   39 1  
@<TRIPOS>SUBSTRUCTURE
     1 KO2         1

