### 
### Created by X-TOOL on Mon Sep 10 21:13:02 2018
### 

@<TRIPOS>MOLECULE
3ijy_ligand
   62    63     1     0     0
SMALL
GAST_HUCK


@<TRIPOS>ATOM
      1 C1          8.5000    6.3220   79.3780 C.2       1 KDA         0.1089
      2 O1A         9.3520    7.2290   79.5010 O.co2     1 KDA        -0.5423
      3 O1B         7.7800    6.1340   78.3690 O.co2     1 KDA        -0.5423
      4 C2          8.3200    5.3660   80.5760 C.3       1 KDA         0.2378
      5 C3          7.1840    5.8840   81.4720 C.3       1 KDA         0.0399
      6 C4          7.0250    4.9210   82.6480 C.3       1 KDA         0.0884
      7 O4          5.9690    5.3620   83.5000 O.3       1 KDA        -0.3891
      8 C5          6.6850    3.5440   82.1010 C.3       1 KDA         0.1096
      9 O5          5.4570    3.6090   81.3720 O.3       1 KDA        -0.3866
     10 C6          7.8150    3.0770   81.1850 C.3       1 KDA         0.1173
     11 O6          8.0170    4.0320   80.1060 O.3       1 KDA        -0.3347
     12 C7          7.5000    1.6880   80.6190 C.3       1 KDA         0.1070
     13 O7          7.2510    0.7750   81.6940 O.3       1 KDA        -0.3869
     14 C8          8.6610    1.1720   79.7620 C.3       1 KDA         0.0783
     15 O8          8.3520   -0.1370   79.2570 O.3       1 KDA        -0.3441
     16 O2          9.5230    5.3180   81.3590 O.3       1 KDA        -0.3023
     17 C9         10.5700    4.8460   80.6300 C.2       1 KDA         0.0369
     18 C10        11.8230    4.7250   81.2060 C.2       1 KDA        -0.0824
     19 C11        12.0070    5.0860   82.5440 C.3       1 KDA        -0.0537
     20 C1          9.7480    0.2110   77.2900 C.2       1 KDO         0.1041
     21 O1A         8.7870    0.8210   76.7740 O.co2     1 KDO        -0.5426
     22 O1B        10.9310    0.2440   76.8920 O.co2     1 KDO        -0.5426
     23 C2          9.4460   -0.6780   78.5090 C.3       1 KDO         0.2205
     24 C3          9.1100   -2.0870   78.0130 C.3       1 KDO         0.0356
     25 C4          8.8380   -2.9640   79.2320 C.3       1 KDO         0.0880
     26 O4          8.5510   -4.2960   78.8140 O.3       1 KDO        -0.3891
     27 C5         10.0800   -2.9810   80.1050 C.3       1 KDO         0.1096
     28 O5         11.1830   -3.4770   79.3460 O.3       1 KDO        -0.3866
     29 C6         10.4050   -1.5580   80.5470 C.3       1 KDO         0.1170
     30 O6         10.6070   -0.7320   79.3690 O.3       1 KDO        -0.3381
     31 C7         11.6610   -1.5880   81.4270 C.3       1 KDO         0.1067
     32 O7         11.4520   -2.4260   82.5690 O.3       1 KDO        -0.3869
     33 C8         12.0530   -0.1770   81.8770 C.3       1 KDO         0.0727
     34 O8         10.9830    0.4240   82.6010 O.3       1 KDO        -0.3924
     35 H1          6.2471    5.9275   80.8973 H         1 KDA         0.0340
     36 H2          7.4326    6.8886   81.8447 H         1 KDA         0.0340
     37 H3          7.9640    4.8747   83.2191 H         1 KDA         0.0621
     38 H4          5.1573    5.3913   83.0072 H         1 KDA         0.2099
     39 H5          6.5751    2.8351   82.9349 H         1 KDA         0.0646
     40 H6          4.7619    3.9006   81.9501 H         1 KDA         0.2100
     41 H7          8.7414    3.0133   81.7746 H         1 KDA         0.0649
     42 H8          6.5995    1.7570   79.9911 H         1 KDA         0.0643
     43 H9          7.0562   -0.0845   81.3393 H         1 KDA         0.2100
     44 H10         9.5725    1.1203   80.3756 H         1 KDA         0.0586
     45 H11         8.8252    1.8588   78.9186 H         1 KDA         0.0586
     46 H12        10.4219    4.5622   79.5891 H         1 KDA         0.0849
     47 H13        12.6610    4.3506   80.6199 H         1 KDA         0.0331
     48 H14        13.0577    4.9239   82.8263 H         1 KDA         0.0321
     49 H15        11.3566    4.4704   83.1827 H         1 KDA         0.0321
     50 H16        11.7516    6.1478   82.6758 H         1 KDA         0.0321
     51 H17         9.9577   -2.4938   77.4422 H         1 KDA         0.0336
     52 H18         8.2177   -2.0537   77.3706 H         1 KDA         0.0336
     53 H19         7.9859   -2.5604   79.7985 H         1 KDA         0.0621
     54 H20         8.3827   -4.8367   79.5768 H         1 KDA         0.2099
     55 H21         9.9097   -3.6194   80.9844 H         1 KDA         0.0646
     56 H22        10.9904   -4.3584   79.0485 H         1 KDA         0.2100
     57 H23         9.5656   -1.1526   81.1310 H         1 KDA         0.0649
     58 H24        12.4882   -2.0054   80.8341 H         1 KDA         0.0643
     59 H25        12.2378   -2.4338   83.1028 H         1 KDA         0.2100
     60 H26        12.2825    0.4357   80.9928 H         1 KDA         0.0584
     61 H27        12.9412   -0.2354   82.5233 H         1 KDA         0.0584
     62 H28        10.7845   -0.1029   83.3661 H         1 KDA         0.2095
@<TRIPOS>BOND
     1    1    2 ar 
     2    1    3 ar 
     3    4    1 1  
     4    4    5 1  
     5   11    4 1  
     6    4   16 1  
     7    6    5 1  
     8    6    7 1  
     9    8    6 1  
    10    8    9 1  
    11   10    8 1  
    12   10   11 1  
    13   12   10 1  
    14   12   13 1  
    15   14   12 1  
    16   15   14 1  
    17   23   15 1  
    18   16   17 1  
    19   17   18 2  
    20   18   19 1  
    21   20   21 ar 
    22   20   22 ar 
    23   20   23 1  
    24   23   24 1  
    25   23   30 1  
    26   24   25 1  
    27   25   26 1  
    28   25   27 1  
    29   27   28 1  
    30   27   29 1  
    31   29   30 1  
    32   29   31 1  
    33   31   32 1  
    34   31   33 1  
    35   33   34 1  
    36    5   35 1  
    37    5   36 1  
    38    6   37 1  
    39    7   38 1  
    40    8   39 1  
    41    9   40 1  
    42   10   41 1  
    43   12   42 1  
    44   13   43 1  
    45   14   44 1  
    46   14   45 1  
    47   17   46 1  
    48   18   47 1  
    49   19   48 1  
    50   19   49 1  
    51   19   50 1  
    52   24   51 1  
    53   24   52 1  
    54   25   53 1  
    55   26   54 1  
    56   27   55 1  
    57   28   56 1  
    58   29   57 1  
    59   31   58 1  
    60   32   59 1  
    61   33   60 1  
    62   33   61 1  
    63   34   62 1  
@<TRIPOS>SUBSTRUCTURE
     1 KDA         1

