### 
### Created by X-TOOL on Mon Sep 10 21:13:04 2018
### 

@<TRIPOS>MOLECULE
3ijz_ligand
   34    36     1     0     0
SMALL
GAST_HUCK


@<TRIPOS>ATOM
      1 C1         29.8970   -9.0770   30.1890 C.ar      1 15C        -0.0203
      2 C2         29.6850   -9.5840   31.4590 C.ar      1 15C        -0.0506
      3 C3         28.5390  -10.3410   31.7390 C.ar      1 15C        -0.0587
      4 C4         27.5210  -10.6460   30.8260 C.ar      1 15C        -0.0432
      5 C5         27.6580  -10.1770   29.5440 C.ar      1 15C         0.0733
      6 C6         28.8520   -9.3750   29.1730 C.ar      1 15C         0.0806
      7 C7         28.6100   -9.0780   27.7390 C.2       1 15C         0.2612
      8 C8         26.8470  -10.2730   28.2990 C.2       1 15C         0.2644
      9 N9         27.4630   -9.6220   27.2840 N.am      1 15C        -0.1295
     10 C10        31.1220   -8.2640   29.8620 C.3       1 15C        -0.0265
     11 O11        29.4440   -8.3880   27.0470 O.2       1 15C        -0.3602
     12 O12        25.7300  -10.9020   28.2390 O.2       1 15C        -0.3562
     13 C13        27.0390   -9.4570   26.0050 C.ar      1 15C         0.0987
     14 C14        26.6080  -10.4870   25.1570 C.ar      1 15C        -0.0298
     15 C15        26.2020  -10.2430   23.8390 C.ar      1 15C        -0.0548
     16 C16        26.2030   -8.9470   23.3070 C.ar      1 15C         0.0177
     17 C17        26.6280   -7.9000   24.1140 C.ar      1 15C        -0.0548
     18 C18        27.0270   -8.1740   25.4180 C.ar      1 15C        -0.0298
     19 C19        25.7630   -8.6450   21.8940 C.2       1 15C         0.1193
     20 C20        24.3930   -9.0450   21.4100 C.3       1 15C         0.0085
     21 O21        26.5340   -8.0470   21.1550 O.2       1 15C        -0.3860
     22 H1         30.4099   -9.3945   32.2424 H         1 15C         0.0603
     23 H2         28.4312  -10.7229   32.7477 H         1 15C         0.0645
     24 H3         26.6574  -11.2307   31.1215 H         1 15C         0.0626
     25 H4         31.7512   -8.1719   30.7595 H         1 15C         0.0405
     26 H5         30.8179   -7.2627   29.5231 H         1 15C         0.0405
     27 H6         31.6916   -8.7637   29.0646 H         1 15C         0.0405
     28 H7         26.5884  -11.5035   25.5331 H         1 15C         0.0534
     29 H8         25.8810  -11.0723   23.2191 H         1 15C         0.0636
     30 H9         26.6485   -6.8851   23.7337 H         1 15C         0.0636
     31 H10        27.3530   -7.3398   26.0287 H         1 15C         0.0534
     32 H11        24.2702   -8.7367   20.3612 H         1 15C         0.0447
     33 H12        23.6276   -8.5536   22.0286 H         1 15C         0.0447
     34 H13        24.2812  -10.1366   21.4867 H         1 15C         0.0447
@<TRIPOS>BOND
     1    1    2 ar 
     2    1    6 ar 
     3    1   10 1  
     4    2    3 ar 
     5    3    4 ar 
     6    4    5 ar 
     7    5    6 ar 
     8    5    8 1  
     9    6    7 1  
    10    7    9 am 
    11    7   11 2  
    12    8    9 am 
    13    8   12 2  
    14    9   13 1  
    15   13   14 ar 
    16   13   18 ar 
    17   14   15 ar 
    18   15   16 ar 
    19   16   17 ar 
    20   16   19 1  
    21   17   18 ar 
    22   19   20 1  
    23   19   21 2  
    24    2   22 1  
    25    3   23 1  
    26    4   24 1  
    27   10   25 1  
    28   10   26 1  
    29   10   27 1  
    30   14   28 1  
    31   15   29 1  
    32   17   30 1  
    33   18   31 1  
    34   20   32 1  
    35   20   33 1  
    36   20   34 1  
@<TRIPOS>SUBSTRUCTURE
     1 15C         1

