### 
### Created by X-TOOL on Mon Sep 10 21:13:04 2018
### 

@<TRIPOS>MOLECULE
3ik1_ligand
   32    34     1     0     0
SMALL
GAST_HUCK


@<TRIPOS>ATOM
      1 C1        -30.0980    8.7080   30.2130 C.ar      1 20C        -0.0203
      2 C2        -30.0070    9.1290   31.5260 C.ar      1 20C        -0.0506
      3 C3        -28.9900   10.0080   31.9110 C.ar      1 20C        -0.0587
      4 C4        -27.9930   10.5320   31.0760 C.ar      1 20C        -0.0433
      5 C5        -28.0130   10.1590   29.7570 C.ar      1 20C         0.0730
      6 C6        -29.0730    9.2330   29.2670 C.ar      1 20C         0.0804
      7 C7        -27.1760   10.4770   28.5660 C.2       1 20C         0.2633
      8 N8        -27.6470    9.8240   27.4760 N.am      1 20C        -0.1339
      9 C9        -28.7360    9.1070   27.8220 C.2       1 20C         0.2601
     10 C10       -27.1740    9.8680   26.2080 C.ar      1 20C         0.0874
     11 O11       -29.4200    8.3750   27.0190 O.2       1 20C        -0.3607
     12 O12       -26.1550   11.2470   28.6070 O.2       1 20C        -0.3567
     13 C13       -31.1910    7.7670   29.7930 C.3       1 20C        -0.0265
     14 C14       -26.6210   11.0280   25.6520 C.ar      1 20C        -0.0431
     15 C15       -26.1420   11.1170   24.3440 C.ar      1 20C        -0.0672
     16 C16       -26.2030   10.0230   23.4810 C.ar      1 20C         0.0245
     17 C17       -26.7900    8.7700   24.0220 C.ar      1 20C         0.0911
     18 C18       -27.2410    8.7630   25.3380 C.ar      1 20C        -0.0051
     19 O19       -26.8910    7.6470   23.2540 O.3       1 20C        -0.3332
     20 C20       -25.6750   10.1170   22.0640 C.2       1 20C         0.0494
     21 O21       -25.9590   11.1130   21.3480 O.co2     1 20C        -0.5679
     22 O22       -24.9390    9.1980   21.6320 O.co2     1 20C        -0.5679
     23 H1        -30.7248    8.7774   32.2583 H         1 20C         0.0603
     24 H2        -28.9706   10.3125   32.9512 H         1 20C         0.0645
     25 H3        -27.2354   11.2062   31.4587 H         1 20C         0.0626
     26 H4        -31.8188    7.5228   30.6626 H         1 20C         0.0405
     27 H5        -30.7464    6.8446   29.3912 H         1 20C         0.0405
     28 H6        -31.8082    8.2445   29.0177 H         1 20C         0.0405
     29 H7        -26.5611   11.9121   26.2764 H         1 20C         0.0440
     30 H8        -25.7162   12.0503   23.9937 H         1 20C         0.0590
     31 H9        -27.6731    7.8449   25.7193 H         1 20C         0.0443
     32 H10       -26.5392    7.8233   22.3893 H         1 20C         0.2494
@<TRIPOS>BOND
     1    1    2 ar 
     2    1    6 ar 
     3    1   13 1  
     4    2    3 ar 
     5    3    4 ar 
     6    4    5 ar 
     7    5    6 ar 
     8    5    7 1  
     9    6    9 1  
    10    7    8 am 
    11    7   12 2  
    12    8    9 am 
    13    8   10 1  
    14    9   11 2  
    15   10   14 ar 
    16   10   18 ar 
    17   14   15 ar 
    18   15   16 ar 
    19   16   17 ar 
    20   16   20 1  
    21   17   18 ar 
    22   17   19 1  
    23   20   21 ar 
    24   20   22 ar 
    25    2   23 1  
    26    3   24 1  
    27    4   25 1  
    28   13   26 1  
    29   13   27 1  
    30   13   28 1  
    31   14   29 1  
    32   15   30 1  
    33   18   31 1  
    34   19   32 1  
@<TRIPOS>SUBSTRUCTURE
     1 20C         1

