### 
### Created by X-TOOL on Mon Sep 10 21:13:01 2018
### 

@<TRIPOS>MOLECULE
3ik3_ligand
   68    72     1     0     0
SMALL
GAST_HUCK


@<TRIPOS>ATOM
      1 N1          4.0990   -7.3350   13.8870 N.2       1 0LI        -0.3247
      2 N3          7.3470    7.8260   19.1290 N.4       1 0LI         0.2588
      3 C4          3.1070   -2.6590   13.9120 C.1       1 0LI        -0.0766
      4 C5          3.1220   -1.2140   13.7470 C.ar      1 0LI         0.0257
      5 C6          2.5160   -0.5430   12.6120 C.ar      1 0LI        -0.0273
      6 C7          2.5780    0.8730   12.5170 C.ar      1 0LI        -0.0547
      7 C8          3.2500    1.6510   13.5530 C.ar      1 0LI        -0.0494
      8 C10         3.7740   -0.4660   14.7530 C.ar      1 0LI        -0.0347
      9 C13         5.5010    3.8910   16.4100 C.ar      1 0LI         0.0879
     10 C15         6.1520    6.1920   16.9990 C.ar      1 0LI        -0.0316
     11 C17         7.4800    4.2940   17.8870 C.ar      1 0LI         0.0386
     12 C20         8.1170    6.7780   18.4880 C.3       1 0LI         0.0130
     13 C21         6.4910    7.3580   20.2460 C.3       1 0LI         0.0114
     14 C22         5.6030    8.5190   20.7640 C.3       1 0LI         0.0092
     15 C24         8.2400    8.9150   19.6120 C.3       1 0LI         0.0114
     16 C81         2.3430   -8.4240   15.3410 C.2       1 0LI         0.0052
     17 C82         1.2250   -8.1130   16.1130 C.2       1 0LI        -0.0245
     18 C83         0.8010   -6.7460   16.2100 C.2       1 0LI         0.0552
     19 N81         1.3940   -5.7030   15.6090 N.2       1 0LI        -0.1413
     20 N82         2.4850   -6.0670   14.8640 N.pl3     1 0LI        -0.1187
     21 C84         3.0300   -7.3760   14.6720 C.2       1 0LI         0.1691
     22 C1          4.2680   -5.9990   13.5590 C.2       1 0LI        -0.0017
     23 C2          3.2990   -5.2430   14.1420 C.2       1 0LI         0.1589
     24 C3          3.1670   -3.8530   14.0240 C.1       1 0LI        -0.0467
     25 C9          3.8520    0.9650   14.6820 C.ar      1 0LI         0.0483
     26 C11         1.8100   -1.3310   11.4990 C.3       1 0LI        -0.0278
     27 C12         4.5590    1.6720   15.7800 C.2       1 0LI         0.2262
     28 O1          5.0710    1.0120   16.6910 O.2       1 0LI        -0.3767
     29 N2          4.5940    3.0340   15.7100 N.am      1 0LI        -0.2315
     30 C14         5.2890    5.2840   16.3210 C.ar      1 0LI        -0.0148
     31 C16         7.2440    5.7280   17.7840 C.ar      1 0LI         0.0246
     32 C18         6.5970    3.4030   17.1950 C.ar      1 0LI        -0.0202
     33 C19         8.6180    3.7040   18.7050 C.3       1 0LI         0.3645
     34 F1          8.4180    3.9600   19.9890 F         1 0LI        -0.2292
     35 F2          8.6970    2.3840   18.5830 F         1 0LI        -0.2292
     36 F3          9.7910    4.2330   18.2900 F         1 0LI        -0.2292
     37 C23         7.3860   10.1020   20.1030 C.3       1 0LI         0.0092
     38 C25         5.5690   10.8130   21.5730 C.3       1 0LI        -0.0427
     39 N4          6.4250    9.6910   21.1710 N.4       1 0LI         0.2405
     40 H1          6.7362    8.2137   18.4271 H         1 0LI         0.2058
     41 H2          2.1244    1.3777   11.6717 H         1 0LI         0.0565
     42 H3          3.2992    2.7314   13.4801 H         1 0LI         0.0639
     43 H4          4.2233   -0.9825   15.5935 H         1 0LI         0.0649
     44 H5          5.9731    7.2579   16.9152 H         1 0LI         0.0616
     45 H6          8.7232    6.2717   19.2537 H         1 0LI         0.1043
     46 H7          8.7800    7.2387   17.7409 H         1 0LI         0.1043
     47 H8          7.1291    6.9954   21.0654 H         1 0LI         0.0868
     48 H9          5.8478    6.5388   19.8921 H         1 0LI         0.0868
     49 H10         5.0255    8.1682   21.6320 H         1 0LI         0.0868
     50 H11         4.9130    8.8262   19.9643 H         1 0LI         0.0868
     51 H12         8.8907    9.2472   18.7897 H         1 0LI         0.0868
     52 H13         8.8587    8.5410   20.4411 H         1 0LI         0.0868
     53 H14         2.6845   -9.4542   15.2521 H         1 0LI         0.0752
     54 H15         0.6803   -8.8977   16.6359 H         1 0LI         0.0701
     55 H16        -0.0750   -6.5373   16.8223 H         1 0LI         0.0937
     56 H17         5.0633   -5.6099   12.9249 H         1 0LI         0.0575
     57 H18         1.8528   -2.4062   11.7272 H         1 0LI         0.0404
     58 H19         2.3120   -1.1397   10.5391 H         1 0LI         0.0404
     59 H20         0.7594   -1.0117   11.4334 H         1 0LI         0.0404
     60 H21         3.9230    3.4746   15.1137 H         1 0LI         0.2238
     61 H22         4.4629    5.6656   15.7320 H         1 0LI         0.0763
     62 H23         6.7615    2.3340   17.2666 H         1 0LI         0.0655
     63 H24         6.8198   10.5091   19.2523 H         1 0LI         0.0868
     64 H25         8.0535   10.8786   20.5046 H         1 0LI         0.0868
     65 H26         4.8740   10.4809   22.3583 H         1 0LI         0.0778
     66 H27         4.9968   11.1678   20.7031 H         1 0LI         0.0778
     67 H28         6.1944   11.6314   21.9591 H         1 0LI         0.0778
     68 H29         6.9671    9.4162   21.9752 H         1 0LI         0.2035
@<TRIPOS>BOND
     1    1   21 2  
     2   22    1 1  
     3   12    2 1  
     4    2   13 1  
     5    2   15 1  
     6    4    3 1  
     7    3   24 3  
     8    4    5 ar 
     9    8    4 ar 
    10    6    5 ar 
    11    5   26 1  
    12    7    6 ar 
    13   25    7 ar 
    14   25    8 ar 
    15   29    9 1  
    16    9   30 ar 
    17    9   32 ar 
    18   30   10 ar 
    19   10   31 ar 
    20   11   31 ar 
    21   32   11 ar 
    22   11   33 1  
    23   31   12 1  
    24   13   14 1  
    25   14   39 1  
    26   15   37 1  
    27   16   17 2  
    28   21   16 1  
    29   18   17 1  
    30   19   18 2  
    31   20   19 1  
    32   20   21 1  
    33   23   20 1  
    34   23   22 2  
    35   24   23 1  
    36   27   25 1  
    37   27   28 2  
    38   27   29 am 
    39   33   34 1  
    40   33   35 1  
    41   33   36 1  
    42   37   39 1  
    43   39   38 1  
    44    2   40 1  
    45    6   41 1  
    46    7   42 1  
    47    8   43 1  
    48   10   44 1  
    49   12   45 1  
    50   12   46 1  
    51   13   47 1  
    52   13   48 1  
    53   14   49 1  
    54   14   50 1  
    55   15   51 1  
    56   15   52 1  
    57   16   53 1  
    58   17   54 1  
    59   18   55 1  
    60   22   56 1  
    61   26   57 1  
    62   26   58 1  
    63   26   59 1  
    64   29   60 1  
    65   30   61 1  
    66   32   62 1  
    67   37   63 1  
    68   37   64 1  
    69   38   65 1  
    70   38   66 1  
    71   38   67 1  
    72   39   68 1  
@<TRIPOS>SUBSTRUCTURE
     1 0LI         1

