### 
### Created by X-TOOL on Mon Sep 10 21:13:02 2018
### 

@<TRIPOS>MOLECULE
3ikc_ligand
   65    66     1     0     0
SMALL
GAST_HUCK


@<TRIPOS>ATOM
      1 C1          9.5430   -0.2240    0.0060 C.2       1 KDO         0.1041
      2 O1A         8.5690   -0.6540    0.6600 O.co2     1 KDO        -0.5426
      3 O1B        10.7490   -0.4480    0.2470 O.co2     1 KDO        -0.5426
      4 C2          9.2330    0.7240   -1.1540 C.3       1 KDO         0.2205
      5 C3          9.0720    2.1170   -0.5340 C.3       1 KDO         0.0356
      6 C4          8.7720    3.1130   -1.6440 C.3       1 KDO         0.0880
      7 O4          8.6060    4.4250   -1.0980 O.3       1 KDO        -0.3891
      8 C5          9.9510    3.0930   -2.6170 C.3       1 KDO         0.1096
      9 O5         11.1430    3.4480   -1.9140 O.3       1 KDO        -0.3866
     10 C6         10.1420    1.7040   -3.2080 C.3       1 KDO         0.1170
     11 O6         10.3240    0.7350   -2.1290 O.3       1 KDO        -0.3381
     12 C7         11.3300    1.6750   -4.1960 C.3       1 KDO         0.1067
     13 O7         11.2350    2.7710   -5.1160 O.3       1 KDO        -0.3869
     14 C8         11.4760    0.3500   -4.9540 C.3       1 KDO         0.0727
     15 O8         11.6750   -0.7350   -4.0530 O.3       1 KDO        -0.3924
     16 C1          7.7360   -5.8720   -2.7780 C.2       1 KME         0.1089
     17 C2          7.3940   -4.7660   -3.7840 C.3       1 KME         0.2378
     18 O2          8.4800   -4.5980   -4.6900 O.3       1 KME        -0.3023
     19 C3          6.1340   -5.1690   -4.5730 C.3       1 KME         0.0399
     20 C4          5.8180   -4.0580   -5.5790 C.3       1 KME         0.0884
     21 O4          4.6650   -4.4020   -6.3700 O.3       1 KME        -0.3891
     22 C5          5.5780   -2.7640   -4.8020 C.3       1 KME         0.1096
     23 O5          4.4570   -2.9140   -3.9220 O.3       1 KME        -0.3866
     24 C6          6.8490   -2.4200   -4.0030 C.3       1 KME         0.1176
     25 O6          7.1800   -3.5140   -3.1050 O.3       1 KME        -0.3347
     26 C7          6.6450   -1.1250   -3.2100 C.3       1 KME         0.1100
     27 O7          6.1220   -0.1010   -4.0780 O.3       1 KME        -0.3748
     28 C8          8.0090   -0.8300   -2.5530 C.3       1 KME         0.0785
     29 O8          7.9920    0.3940   -1.8100 O.3       1 KME        -0.3441
     30 C9          5.7570    1.0720   -3.3540 C.3       1 KME         0.0370
     31 C10         9.6480   -4.2280   -3.9270 C.2       1 KME         0.0369
     32 C11        10.8630   -4.0260   -4.5670 C.2       1 KME        -0.0824
     33 C12        10.9280   -4.1920   -5.9430 C.3       1 KME        -0.0537
     34 O1A         7.2390   -5.7790   -1.6350 O.co2     1 KME        -0.5423
     35 O1B         8.4950   -6.7840   -3.1770 O.co2     1 KME        -0.5423
     36 H1         10.0018    2.4036   -0.0209 H         1 KDO         0.0336
     37 H2          8.2426    2.1070    0.1885 H         1 KDO         0.0336
     38 H3          7.8512    2.8189   -2.1690 H         1 KDO         0.0621
     39 H4          8.4193    5.0375   -1.7998 H         1 KDO         0.2099
     40 H5          9.7666    3.8140   -3.4270 H         1 KDO         0.0646
     41 H6         11.0454    4.3188   -1.5470 H         1 KDO         0.2100
     42 H7          9.2314    1.4359   -3.7637 H         1 KDO         0.0649
     43 H8         12.2471    1.8110   -3.6040 H         1 KDO         0.0643
     44 H9         11.9698    2.7426   -5.7176 H         1 KDO         0.2100
     45 H10        12.3393    0.4170   -5.6323 H         1 KDO         0.0584
     46 H11        10.5628    0.1682   -5.5396 H         1 KDO         0.0584
     47 H12        10.9300   -0.7993   -3.4671 H         1 KDO         0.2095
     48 H13         5.2877   -5.2962   -3.8819 H         1 KDO         0.0340
     49 H14         6.3163   -6.1131   -5.1072 H         1 KDO         0.0340
     50 H15         6.6786   -3.9220   -6.2505 H         1 KDO         0.0621
     51 H16         3.9153   -4.5229   -5.7991 H         1 KDO         0.2099
     52 H17         5.3668   -1.9503   -5.5114 H         1 KDO         0.0646
     53 H18         3.6816   -3.1195   -4.4309 H         1 KDO         0.2100
     54 H19         7.6817   -2.2751   -4.7070 H         1 KDO         0.0649
     55 H20         5.9059   -1.2917   -2.4126 H         1 KDO         0.0646
     56 H21         8.7741   -0.7573   -3.3399 H         1 KDO         0.0586
     57 H22         8.2612   -1.6558   -1.8715 H         1 KDO         0.0586
     58 H23         5.3639    1.8260   -4.0518 H         1 KDO         0.0524
     59 H24         6.6414    1.4750   -2.8388 H         1 KDO         0.0524
     60 H25         4.9841    0.8199   -2.6130 H         1 KDO         0.0524
     61 H26         9.5759   -4.1071   -2.8471 H         1 KDO         0.0849
     62 H27        11.7484   -3.7426   -3.9999 H         1 KDO         0.0331
     63 H28        11.9539   -3.9957   -6.2879 H         1 KDO         0.0321
     64 H29        10.2365   -3.4889   -6.4303 H         1 KDO         0.0321
     65 H30        10.6452   -5.2230   -6.2017 H         1 KDO         0.0321
@<TRIPOS>BOND
     1    1    2 ar 
     2    1    3 ar 
     3    4    1 1  
     4    4    5 1  
     5    4   11 1  
     6   29    4 1  
     7    5    6 1  
     8    6    7 1  
     9    6    8 1  
    10    8    9 1  
    11   10    8 1  
    12   11   10 1  
    13   10   12 1  
    14   12   13 1  
    15   12   14 1  
    16   14   15 1  
    17   17   16 1  
    18   16   34 ar 
    19   16   35 ar 
    20   17   18 1  
    21   17   19 1  
    22   25   17 1  
    23   18   31 1  
    24   20   19 1  
    25   20   21 1  
    26   22   20 1  
    27   22   23 1  
    28   24   22 1  
    29   24   25 1  
    30   26   24 1  
    31   26   27 1  
    32   28   26 1  
    33   27   30 1  
    34   28   29 1  
    35   31   32 2  
    36   32   33 1  
    37    5   36 1  
    38    5   37 1  
    39    6   38 1  
    40    7   39 1  
    41    8   40 1  
    42    9   41 1  
    43   10   42 1  
    44   12   43 1  
    45   13   44 1  
    46   14   45 1  
    47   14   46 1  
    48   15   47 1  
    49   19   48 1  
    50   19   49 1  
    51   20   50 1  
    52   21   51 1  
    53   22   52 1  
    54   23   53 1  
    55   24   54 1  
    56   26   55 1  
    57   28   56 1  
    58   28   57 1  
    59   30   58 1  
    60   30   59 1  
    61   30   60 1  
    62   31   61 1  
    63   32   62 1  
    64   33   63 1  
    65   33   64 1  
    66   33   65 1  
@<TRIPOS>SUBSTRUCTURE
     1 KDO         1

