### 
### Created by X-TOOL on Mon Sep 10 21:13:00 2018
### 

@<TRIPOS>MOLECULE
3il5_ligand
   45    46     1     0     0
SMALL
GAST_HUCK


@<TRIPOS>ATOM
      1 S1       -187.3220  146.2720   31.6320 S.o2      1 B82         0.0726
      2 O26      -187.8160  145.2730   32.5610 O.2       1 B82        -0.1496
      3 O25      -188.3080  146.9700   30.8380 O.2       1 B82        -0.1496
      4 N20      -186.1270  145.5260   30.5640 N.am      1 B82        -0.2342
      5 C23      -185.5250  146.4530   29.5240 C.3       1 B82         0.0268
      6 C24      -185.9080  146.0900   28.0780 C.3       1 B82        -0.0480
      7 C21      -185.0450  144.7860   31.4370 C.3       1 B82         0.0268
      8 C22      -183.5480  145.0570   31.1870 C.3       1 B82        -0.0480
      9 C2       -186.4820  147.5670   32.6380 C.ar      1 B82         0.1234
     10 C18      -185.7790  147.3410   33.9380 C.ar      1 B82         0.0438
     11 BR       -185.5690  145.6840   34.8730 Br        1 B82        -0.0441
     12 C17      -185.1580  148.4600   34.6270 C.ar      1 B82        -0.0449
     13 C16      -185.2050  149.7700   34.0840 C.ar      1 B82        -0.0388
     14 C4       -185.8770  150.0120   32.8270 C.ar      1 B82         0.0609
     15 C5       -185.9310  151.3700   32.2270 C.2       1 B82         0.2358
     16 O15      -185.8980  151.4830   30.9980 O.2       1 B82        -0.3710
     17 N6       -186.0090  152.3880   33.1940 N.am      1 B82        -0.2295
     18 C7       -186.0680  153.8140   33.0170 C.ar      1 B82         0.0812
     19 C14      -186.0490  154.4460   31.7080 C.ar      1 B82        -0.0371
     20 C13      -186.1110  155.8600   31.5590 C.ar      1 B82        -0.0727
     21 C12      -186.1950  156.6950   32.7120 C.ar      1 B82        -0.0734
     22 C11      -186.2150  156.1220   34.0230 C.ar      1 B82        -0.0610
     23 C8       -186.1530  154.6780   34.2190 C.ar      1 B82         0.0304
     24 C9       -186.1810  154.1580   35.6630 C.2       1 B82         0.0548
     25 O45      -186.3850  152.9160   35.8420 O.co2     1 B82        -0.5656
     26 O10      -185.9980  154.9980   36.6000 O.co2     1 B82        -0.5656
     27 C3       -186.5100  148.9170   32.1150 C.ar      1 B82        -0.0122
     28 H1       -184.4295  146.4117   29.6141 H         1 B82         0.0475
     29 H2       -185.8715  147.4767   29.7287 H         1 B82         0.0475
     30 H3       -185.4372  146.8021   27.3843 H         1 B82         0.0245
     31 H4       -187.0012  146.1368   27.9655 H         1 B82         0.0245
     32 H5       -185.5592  145.0718   27.8509 H         1 B82         0.0245
     33 H6       -185.2024  143.7069   31.2933 H         1 B82         0.0475
     34 H7       -185.2463  145.0495   32.4858 H         1 B82         0.0475
     35 H8       -182.9453  144.4570   31.8847 H         1 B82         0.0245
     36 H9       -183.3372  146.1249   31.3453 H         1 B82         0.0245
     37 H10      -183.2933  144.7823   30.1528 H         1 B82         0.0245
     38 H11      -184.6512  148.2911   35.5702 H         1 B82         0.0655
     39 H12      -184.7358  150.5916   34.6131 H         1 B82         0.0675
     40 H13      -186.0259  152.0746   34.1435 H         1 B82         0.2273
     41 H14      -185.9860  153.8241   30.8224 H         1 B82         0.0512
     42 H15      -186.0944  156.3022   30.5694 H         1 B82         0.0599
     43 H16      -186.2441  157.7715   32.5944 H         1 B82         0.0496
     44 H17      -186.2774  156.7736   34.8871 H         1 B82         0.0611
     45 H18      -187.0127  149.1133   31.1749 H         1 B82         0.0695
@<TRIPOS>BOND
     1    1    2 2  
     2    1    3 2  
     3    1    4 am 
     4    1    9 1  
     5    4    5 1  
     6    4    7 1  
     7    5    6 1  
     8    7    8 1  
     9    9   10 ar 
    10    9   27 ar 
    11   10   11 1  
    12   10   12 ar 
    13   12   13 ar 
    14   13   14 ar 
    15   14   15 1  
    16   14   27 ar 
    17   15   16 2  
    18   15   17 am 
    19   17   18 1  
    20   18   19 ar 
    21   18   23 ar 
    22   19   20 ar 
    23   20   21 ar 
    24   21   22 ar 
    25   22   23 ar 
    26   23   24 1  
    27   24   25 ar 
    28   24   26 ar 
    29    5   28 1  
    30    5   29 1  
    31    6   30 1  
    32    6   31 1  
    33    6   32 1  
    34    7   33 1  
    35    7   34 1  
    36    8   35 1  
    37    8   36 1  
    38    8   37 1  
    39   12   38 1  
    40   13   39 1  
    41   17   40 1  
    42   19   41 1  
    43   20   42 1  
    44   21   43 1  
    45   22   44 1  
    46   27   45 1  
@<TRIPOS>SUBSTRUCTURE
     1 B82         1

