### 
### Created by X-TOOL on Mon Sep 10 21:13:00 2018
### 

@<TRIPOS>MOLECULE
3il6_ligand
   60    63     1     0     0
SMALL
GAST_HUCK


@<TRIPOS>ATOM
      1 C1       -139.8340  138.9180   93.6360 C.ar      1 B83         0.0304
      2 C2       -139.2360  138.5250   92.3670 C.ar      1 B83         0.0808
      3 C3       -139.0470  139.5350   91.3580 C.ar      1 B83        -0.0372
      4 C4       -139.4350  140.8810   91.5770 C.ar      1 B83        -0.0727
      5 C5       -140.0190  141.2590   92.8070 C.ar      1 B83        -0.0734
      6 C6       -140.2150  140.2930   93.8290 C.ar      1 B83        -0.0611
      7 C7       -140.1090  138.0050   94.8170 C.2       1 B83         0.0547
      8 O8       -139.7580  136.7100   94.6420 O.co2     1 B83        -0.5656
      9 O9       -140.6030  138.3570   95.8710 O.co2     1 B83        -0.5656
     10 N10      -138.8720  137.1640   92.1570 N.am      1 B83        -0.2319
     11 C11      -138.2790  136.5190   91.0890 C.2       1 B83         0.2217
     12 O12      -137.8850  137.0300   90.0320 O.2       1 B83        -0.3785
     13 C13      -138.1730  135.0370   91.2590 C.ar      1 B83         0.0347
     14 C14      -137.9430  134.3930   92.5080 C.ar      1 B83        -0.0633
     15 C15      -137.8890  132.9630   92.5740 C.ar      1 B83        -0.0447
     16 C16      -138.0640  132.1340   91.3940 C.ar      1 B83         0.0813
     17 C17      -138.2890  132.8290   90.1410 C.ar      1 B83         0.1401
     18 C18      -138.3440  134.2520   90.0900 C.ar      1 B83        -0.0193
     19 O19      -138.4590  132.0650   88.9760 O.3       1 B83        -0.2622
     20 C20      -137.5740  132.1680   87.8810 C.ar      1 B83         0.1129
     21 C21      -136.2580  132.7620   87.9190 C.ar      1 B83        -0.0292
     22 C22      -135.4610  132.8060   86.7430 C.ar      1 B83        -0.0700
     23 C23      -135.9570  132.2620   85.5270 C.ar      1 B83        -0.0725
     24 C24      -137.2510  131.6730   85.4830 C.ar      1 B83        -0.0700
     25 C25      -138.0560  131.6270   86.6560 C.ar      1 B83        -0.0292
     26 N26      -138.0260  130.7120   91.4340 N.pl3     1 B83        -0.3077
     27 C27      -136.7660  130.0950   90.9160 C.3       1 B83         0.0287
     28 C28      -136.9910  128.5800   90.6790 C.3       1 B83        -0.0240
     29 C29      -137.4040  127.9070   92.0110 C.3       1 B83        -0.0443
     30 C30      -138.6800  128.5700   92.5680 C.3       1 B83        -0.0240
     31 C31      -138.4350  130.0920   92.7570 C.3       1 B83         0.0287
     32 C32      -139.0860  127.9230   93.8940 C.3       1 B83        -0.0606
     33 C33      -135.7200  127.9360   90.1380 C.3       1 B83        -0.0606
     34 H1       -138.5983  139.2601   90.4103 H         1 B83         0.0511
     35 H2       -139.2834  141.6212   90.7997 H         1 B83         0.0598
     36 H3       -140.3178  142.2881   92.9706 H         1 B83         0.0496
     37 H4       -140.6590  140.5958   94.7704 H         1 B83         0.0611
     38 H5       -139.0858  136.5628   92.9270 H         1 B83         0.2268
     39 H6       -137.8090  134.9836   93.4070 H         1 B83         0.0551
     40 H7       -137.7126  132.4861   93.5314 H         1 B83         0.0499
     41 H8       -138.5198  134.7438   89.1401 H         1 B83         0.0561
     42 H9       -135.8775  133.1750   88.8462 H         1 B83         0.0550
     43 H10      -134.4746  133.2545   86.7734 H         1 B83         0.0590
     44 H11      -135.3477  132.2961   84.6311 H         1 B83         0.0526
     45 H12      -137.6250  131.2582   84.5539 H         1 B83         0.0590
     46 H13      -139.0416  131.1774   86.6161 H         1 B83         0.0550
     47 H14      -135.9600  130.2351   91.6514 H         1 B83         0.0515
     48 H15      -136.4850  130.5765   89.9677 H         1 B83         0.0515
     49 H16      -137.7984  128.4476   89.9438 H         1 B83         0.0317
     50 H17      -136.5890  128.0163   92.7416 H         1 B83         0.0272
     51 H18      -137.5970  126.8386   91.8340 H         1 B83         0.0272
     52 H19      -139.4968  128.4297   91.8447 H         1 B83         0.0317
     53 H20      -139.3592  130.5695   93.1145 H         1 B83         0.0515
     54 H21      -137.6341  130.2445   93.4955 H         1 B83         0.0515
     55 H22      -139.2549  126.8470   93.7404 H         1 B83         0.0233
     56 H23      -140.0112  128.3905   94.2620 H         1 B83         0.0233
     57 H24      -138.2837  128.0664   94.6328 H         1 B83         0.0233
     58 H25      -135.4366  128.4218   89.1926 H         1 B83         0.0233
     59 H26      -135.8983  126.8651   89.9609 H         1 B83         0.0233
     60 H27      -134.9077  128.0564   90.8699 H         1 B83         0.0233
@<TRIPOS>BOND
     1    1    2 ar 
     2    1    6 ar 
     3    1    7 1  
     4    2    3 ar 
     5    2   10 1  
     6    3    4 ar 
     7    4    5 ar 
     8    5    6 ar 
     9    7    8 ar 
    10    7    9 ar 
    11   10   11 am 
    12   11   12 2  
    13   11   13 1  
    14   13   14 ar 
    15   13   18 ar 
    16   14   15 ar 
    17   15   16 ar 
    18   16   17 ar 
    19   16   26 1  
    20   17   18 ar 
    21   17   19 1  
    22   19   20 1  
    23   20   21 ar 
    24   20   25 ar 
    25   21   22 ar 
    26   22   23 ar 
    27   23   24 ar 
    28   24   25 ar 
    29   26   27 1  
    30   26   31 1  
    31   27   28 1  
    32   28   29 1  
    33   28   33 1  
    34   29   30 1  
    35   30   31 1  
    36   30   32 1  
    37    3   34 1  
    38    4   35 1  
    39    5   36 1  
    40    6   37 1  
    41   10   38 1  
    42   14   39 1  
    43   15   40 1  
    44   18   41 1  
    45   21   42 1  
    46   22   43 1  
    47   23   44 1  
    48   24   45 1  
    49   25   46 1  
    50   27   47 1  
    51   27   48 1  
    52   28   49 1  
    53   29   50 1  
    54   29   51 1  
    55   30   52 1  
    56   31   53 1  
    57   31   54 1  
    58   32   55 1  
    59   32   56 1  
    60   32   57 1  
    61   33   58 1  
    62   33   59 1  
    63   33   60 1  
@<TRIPOS>SUBSTRUCTURE
     1 B83         1

