### 
### Created by X-TOOL on Mon Sep 10 21:12:59 2018
### 

@<TRIPOS>MOLECULE
3imc_ligand
   20    21     1     0     0
SMALL
GAST_HUCK


@<TRIPOS>ATOM
      1 CAA        10.8110    9.4790   -4.9270 C.3       1 BZ3         0.0568
      2 CAB        15.0230   10.6810   -0.2970 C.2       1 BZ3         0.0189
      3 CAC        14.4980    9.8200   -4.7700 C.ar      1 BZ3        -0.0453
      4 CAD        13.7050   10.4860   -0.6880 C.2       1 BZ3        -0.0680
      5 CAE        15.5050   10.0790   -3.8390 C.ar      1 BZ3        -0.0486
      6 CAF        12.8240    9.9860   -3.0220 C.ar      1 BZ3        -0.0492
      7 NAG        15.8520   10.5520   -1.3710 N.pl3     1 BZ3        -0.2845
      8 OAH        12.1910    9.5130   -5.2970 O.3       1 BZ3        -0.3299
      9 CAI        13.1670    9.7640   -4.3610 C.ar      1 BZ3         0.0727
     10 CAJ        13.8330   10.2430   -2.0880 C.ar      1 BZ3        -0.0378
     11 CAK        15.1500   10.2940   -2.4980 C.ar      1 BZ3         0.0544
     12 H1         10.1985    9.2645   -5.8151 H         1 BZ3         0.0573
     13 H2         10.5198   10.4532   -4.5073 H         1 BZ3         0.0573
     14 H3         10.6525    8.6931   -4.1738 H         1 BZ3         0.0573
     15 H4         15.3467   10.9042    0.7186 H         1 BZ3         0.0926
     16 H5         14.7514    9.6623   -5.8121 H         1 BZ3         0.0481
     17 H6         12.8020   10.5120   -0.0798 H         1 BZ3         0.0273
     18 H7         16.5440   10.1136   -4.1463 H         1 BZ3         0.0528
     19 H8         11.7857    9.9590   -2.7118 H         1 BZ3         0.0430
     20 H9         16.8775   10.6394   -1.3299 H         1 BZ3         0.2246
@<TRIPOS>BOND
     1    8    1 1  
     2    4    2 2  
     3    2    7 1  
     4    3    5 ar 
     5    9    3 ar 
     6   10    4 1  
     7    5   11 ar 
     8    9    6 ar 
     9    6   10 ar 
    10   11    7 1  
    11    8    9 1  
    12   10   11 ar 
    13    1   12 1  
    14    1   13 1  
    15    1   14 1  
    16    2   15 1  
    17    3   16 1  
    18    4   17 1  
    19    5   18 1  
    20    6   19 1  
    21    7   20 1  
@<TRIPOS>SUBSTRUCTURE
     1 BZ3         1

