### 
### Created by X-TOOL on Mon Sep 10 21:12:59 2018
### 

@<TRIPOS>MOLECULE
3ime_ligand
   17    18     1     0     0
SMALL
GAST_HUCK


@<TRIPOS>ATOM
      1 OAA        15.3390   12.9190    3.5300 O.co2     1 BZ2        -0.5578
      2 OAB        15.7680   11.0450    2.4290 O.co2     1 BZ2        -0.5578
      3 CAC        13.8440    9.1690    8.7100 C.ar      1 BZ2        -0.0750
      4 CAD        13.9770    7.9680    8.0180 C.ar      1 BZ2        -0.0719
      5 CAE        14.0620   10.3450    8.0220 C.ar      1 BZ2        -0.0687
      6 CAF        14.3200    7.9390    6.6700 C.ar      1 BZ2        -0.0294
      7 CAG        14.6790   11.3020    5.8100 C.2       1 BZ2        -0.0298
      8 OAH        14.8910    9.4210    4.6550 O.3       1 BZ2        -0.2458
      9 CAI        15.3550   11.6630    3.4240 C.2       1 BZ2         0.0987
     10 CAJ        14.9560   10.7940    4.6140 C.2       1 BZ2         0.1530
     11 CAK        14.4080   10.3210    6.6680 C.ar      1 BZ2        -0.0049
     12 CAL        14.5400    9.1220    5.9710 C.ar      1 BZ2         0.1268
     13 H1         13.5765    9.1798    9.7604 H         1 BZ2         0.0532
     14 H2         13.8094    7.0339    8.5418 H         1 BZ2         0.0554
     15 H3         13.9642   11.2947    8.5355 H         1 BZ2         0.0559
     16 H4         14.4166    6.9873    6.1601 H         1 BZ2         0.0565
     17 H5         14.6743   12.3637    6.0525 H         1 BZ2         0.0415
@<TRIPOS>BOND
     1    9    1 ar 
     2    9    2 ar 
     3    4    3 ar 
     4    5    3 ar 
     5    6    4 ar 
     6   11    5 ar 
     7   12    6 ar 
     8   10    7 2  
     9    7   11 1  
    10   10    8 1  
    11    8   12 1  
    12    9   10 1  
    13   11   12 ar 
    14    3   13 1  
    15    4   14 1  
    16    5   15 1  
    17    6   16 1  
    18    7   17 1  
@<TRIPOS>SUBSTRUCTURE
     1 BZ2         1

