### 
### Created by X-TOOL on Mon Sep 10 21:12:59 2018
### 

@<TRIPOS>MOLECULE
3img_ligand
   20    21     1     0     0
SMALL
GAST_HUCK


@<TRIPOS>ATOM
      1 CAA        11.0130    9.2480   -4.8860 C.3       1 BZ3         0.0568
      2 CAB        15.1540   10.6640   -0.3500 C.2       1 BZ3         0.0189
      3 CAC        14.6520    9.7400   -4.7730 C.ar      1 BZ3        -0.0453
      4 CAD        13.8920   10.5310   -0.7930 C.2       1 BZ3        -0.0680
      5 CAE        15.6410    9.9650   -3.8110 C.ar      1 BZ3        -0.0486
      6 CAF        12.9360   10.0220   -3.0710 C.ar      1 BZ3        -0.0492
      7 NAG        15.9890   10.4900   -1.3840 N.pl3     1 BZ3        -0.2845
      8 OAH        12.3530    9.5300   -5.3910 O.3       1 BZ3        -0.3299
      9 CAI        13.2960    9.7580   -4.4110 C.ar      1 BZ3         0.0727
     10 CAJ        13.9300   10.2620   -2.1070 C.ar      1 BZ3        -0.0378
     11 CAK        15.2770   10.2350   -2.4830 C.ar      1 BZ3         0.0544
     12 H1         10.3302    9.0799   -5.7319 H         1 BZ3         0.0573
     13 H2         10.6575   10.1030   -4.2922 H         1 BZ3         0.0573
     14 H3         11.0413    8.3486   -4.2534 H         1 BZ3         0.0573
     15 H4         15.4486   10.8773    0.6765 H         1 BZ3         0.0926
     16 H5         14.9334    9.5509   -5.8026 H         1 BZ3         0.0481
     17 H6         12.9914   10.6255   -0.1881 H         1 BZ3         0.0273
     18 H7         16.6878    9.9309   -4.0906 H         1 BZ3         0.0528
     19 H8         11.8904   10.0395   -2.7855 H         1 BZ3         0.0430
     20 H9         17.0165   10.5445   -1.3375 H         1 BZ3         0.2246
@<TRIPOS>BOND
     1    8    1 1  
     2    4    2 2  
     3    2    7 1  
     4    3    5 ar 
     5    9    3 ar 
     6   10    4 1  
     7    5   11 ar 
     8    9    6 ar 
     9    6   10 ar 
    10   11    7 1  
    11    8    9 1  
    12   10   11 ar 
    13    1   12 1  
    14    1   13 1  
    15    1   14 1  
    16    2   15 1  
    17    3   16 1  
    18    4   17 1  
    19    5   18 1  
    20    6   19 1  
    21    7   20 1  
@<TRIPOS>SUBSTRUCTURE
     1 BZ3         1

