### 
### Created by X-TOOL on Mon Sep 10 21:13:01 2018
### 

@<TRIPOS>MOLECULE
3imy_ligand
   47    48     1     0     0
SMALL
GAST_HUCK


@<TRIPOS>ATOM
      1 O1         10.1970   22.7540   24.7310 O.co2     1 B72        -0.5663
      2 C20         9.3990   22.7910   25.6110 C.2       1 B72         0.0651
      3 O2          8.7770   24.0160   25.8710 O.co2     1 B72        -0.5663
      4 C19         8.5890   21.5320   25.9490 C.3       1 B72         0.1209
      5 O3          7.5060   21.8120   26.8010 O.3       1 B72        -0.3115
      6 C1          6.6940   20.7720   27.3250 C.ar      1 B72         0.0737
      7 C2          6.9350   20.3440   28.6790 C.ar      1 B72        -0.0449
      8 C3          6.1540   19.3520   29.2360 C.ar      1 B72        -0.0571
      9 C17         6.3950   18.9220   30.6950 C.3       1 B72        -0.0373
     10 C4          5.0470   18.7430   28.3910 C.ar      1 B72        -0.0412
     11 C5          4.7910   19.1410   27.0870 C.ar      1 B72        -0.0571
     12 C6          5.6330   20.1910   26.5320 C.ar      1 B72        -0.0449
     13 C18         3.6710   18.5030   26.2360 C.3       1 B72        -0.0373
     14 C7          4.2360   17.5870   28.9990 C.3       1 B72        -0.0025
     15 C8          3.1090   18.0970   29.9010 C.ar      1 B72        -0.0533
     16 C13         2.8020   17.3650   31.0800 C.ar      1 B72        -0.0654
     17 C12         1.7120   17.7950   31.9030 C.ar      1 B72        -0.0176
     18 C14         1.3730   17.0540   33.1980 C.3       1 B72        -0.0163
     19 C16         1.5330   15.5430   33.1110 C.3       1 B72        -0.0545
     20 C15         2.0920   17.7180   34.3720 C.3       1 B72        -0.0545
     21 C11         0.9450   18.9380   31.5310 C.ar      1 B72         0.0825
     22 O4         -0.1370   19.3140   32.3290 O.3       1 B72        -0.3413
     23 C10         1.2690   19.6900   30.3190 C.ar      1 B72        -0.0461
     24 C9          2.3250   19.2810   29.5080 C.ar      1 B72        -0.0744
     25 H1          9.2513   20.8066   26.4441 H         1 B72         0.0782
     26 H2          8.2024   21.0978   25.0152 H         1 B72         0.0782
     27 H3          7.7286   20.8004   29.2595 H         1 B72         0.0408
     28 H4          7.2412   19.4896   31.1095 H         1 B72         0.0374
     29 H5          6.6240   17.8466   30.7273 H         1 B72         0.0374
     30 H6          5.4921   19.1227   31.2904 H         1 B72         0.0374
     31 H7          5.4639   20.5391   25.5194 H         1 B72         0.0408
     32 H8          3.1518   17.7358   26.8291 H         1 B72         0.0374
     33 H9          4.1100   18.0392   25.3404 H         1 B72         0.0374
     34 H10         2.9535   19.2796   25.9325 H         1 B72         0.0374
     35 H11         4.9099   16.9537   29.5946 H         1 B72         0.0514
     36 H12         3.7983   16.9917   28.1841 H         1 B72         0.0514
     37 H13         3.3852   16.4929   31.3525 H         1 B72         0.0469
     38 H14         0.2991   17.2175   33.3710 H         1 B72         0.0432
     39 H15         1.2708   15.0902   34.0786 H         1 B72         0.0252
     40 H16         2.5763   15.2984   32.8624 H         1 B72         0.0252
     41 H17         0.8675   15.1482   32.3292 H         1 B72         0.0252
     42 H18         1.9144   18.8032   34.3443 H         1 B72         0.0252
     43 H19         3.1718   17.5212   34.2994 H         1 B72         0.0252
     44 H20         1.7072   17.3075   35.3172 H         1 B72         0.0252
     45 H21        -0.5485   20.0863   31.9592 H         1 B72         0.2434
     46 H22         0.6876   20.5651   30.0521 H         1 B72         0.0505
     47 H23         2.5662   19.8252   28.6020 H         1 B72         0.0474
@<TRIPOS>BOND
     1    1    2 ar 
     2    2    3 ar 
     3    2    4 1  
     4    4    5 1  
     5    5    6 1  
     6    6    7 ar 
     7    6   12 ar 
     8    7    8 ar 
     9    8    9 1  
    10    8   10 ar 
    11   10   11 ar 
    12   10   14 1  
    13   11   12 ar 
    14   11   13 1  
    15   14   15 1  
    16   15   16 ar 
    17   15   24 ar 
    18   16   17 ar 
    19   17   18 1  
    20   17   21 ar 
    21   18   19 1  
    22   18   20 1  
    23   21   22 1  
    24   21   23 ar 
    25   23   24 ar 
    26    4   25 1  
    27    4   26 1  
    28    7   27 1  
    29    9   28 1  
    30    9   29 1  
    31    9   30 1  
    32   12   31 1  
    33   13   32 1  
    34   13   33 1  
    35   13   34 1  
    36   14   35 1  
    37   14   36 1  
    38   16   37 1  
    39   18   38 1  
    40   19   39 1  
    41   19   40 1  
    42   19   41 1  
    43   20   42 1  
    44   20   43 1  
    45   20   44 1  
    46   22   45 1  
    47   23   46 1  
    48   24   47 1  
@<TRIPOS>SUBSTRUCTURE
     1 B72         1

