### 
### Created by X-TOOL on Mon Sep 10 21:13:03 2018
### 

@<TRIPOS>MOLECULE
3in3_ligand
   44    47     1     0     0
SMALL
GAST_HUCK


@<TRIPOS>ATOM
      1 C1         15.9720   -4.3250   17.6750 C.3       1 472         0.0235
      2 N1         15.4020   -5.4950   17.0420 N.am      1 472        -0.2203
      3 O1         14.3440   -6.3440   18.8890 O.2       1 472        -0.3702
      4 C2         14.6420   -6.4050   17.7050 C.2       1 472         0.2030
      5 N2         14.9100   -6.9790   15.4300 N.pl3     1 472        -0.2736
      6 C3         14.2190   -7.4830   16.6710 C.3       1 472         0.1953
      7 N3         16.3240   -5.2430   14.8800 N.pl3     1 472        -0.2549
      8 C4         15.5100   -5.8790   15.7540 C.cat     1 472         0.3186
      9 N4         15.7070  -11.5170   17.4180 N.ar      1 472        -0.2721
     10 C5         14.7430   -8.8990   16.9680 C.ar      1 472         0.0055
     11 N5          9.9800   -3.0480   13.9520 N.ar      1 472        -0.2963
     12 C6         15.0120   -9.7760   15.9020 C.ar      1 472        -0.0195
     13 C7         15.4850  -11.0510   16.1700 C.ar      1 472         0.0336
     14 C8         15.4480  -10.6700   18.4340 C.ar      1 472         0.0336
     15 C9         14.9720   -9.3730   18.2660 C.ar      1 472        -0.0195
     16 C10        12.6790   -7.4410   16.5630 C.ar      1 472        -0.0067
     17 C11        11.8600   -8.5390   16.8830 C.ar      1 472        -0.0423
     18 C12        10.4710   -8.4450   16.7690 C.ar      1 472        -0.0360
     19 C13         9.8690   -7.2600   16.3370 C.ar      1 472        -0.0289
     20 C14        10.6530   -6.1450   16.0100 C.ar      1 472         0.0134
     21 C15        12.0480   -6.2610   16.1320 C.ar      1 472        -0.0337
     22 C16        10.0610   -4.8760   15.5630 C.ar      1 472         0.0154
     23 C17         9.0300   -4.2530   16.2820 C.ar      1 472        -0.0344
     24 C18         8.4830   -3.0490   15.8410 C.ar      1 472        -0.0338
     25 C19         8.9860   -2.4860   14.6790 C.ar      1 472         0.0108
     26 C20        10.4910   -4.2210   14.4100 C.ar      1 472         0.0193
     27 H1         15.6911   -4.3100   18.7384 H         1 472         0.0484
     28 H2         15.5902   -3.4188   17.1821 H         1 472         0.0484
     29 H3         17.0679   -4.3570   17.5857 H         1 472         0.0484
     30 H4         14.9056   -7.4248   14.5015 H         1 472         0.3076
     31 H5         16.7930   -4.3684   15.1559 H         1 472         0.3199
     32 H6         16.4746   -5.6334   13.9388 H         1 472         0.3199
     33 H7         14.8507   -9.4573   14.8786 H         1 472         0.0879
     34 H8         15.6876  -11.7094   15.3330 H         1 472         0.0883
     35 H9         15.6212  -11.0209   19.4449 H         1 472         0.0883
     36 H10        14.7817   -8.7402   19.1253 H         1 472         0.0879
     37 H11        12.3103   -9.4654   17.2207 H         1 472         0.0813
     38 H12         9.8534   -9.3003   17.0183 H         1 472         0.0688
     39 H13         8.7897   -7.2028   16.2543 H         1 472         0.0832
     40 H14        12.6638   -5.4043   15.8832 H         1 472         0.0820
     41 H15         8.6550   -4.7124   17.1894 H         1 472         0.0741
     42 H16         7.6849   -2.5657   16.3928 H         1 472         0.0709
     43 H17         8.5626   -1.5492   14.3352 H         1 472         0.0820
     44 H18        11.2895   -4.6798   13.8383 H         1 472         0.0832
@<TRIPOS>BOND
     1    2    1 1  
     2    4    2 am 
     3    8    2 ar 
     4    4    3 2  
     5    6    4 1  
     6    6    5 1  
     7    5    8 ar 
     8    6   10 1  
     9   16    6 1  
    10    8    7 ar 
    11   13    9 ar 
    12   14    9 ar 
    13   10   12 ar 
    14   10   15 ar 
    15   11   25 ar 
    16   26   11 ar 
    17   12   13 ar 
    18   15   14 ar 
    19   16   17 ar 
    20   21   16 ar 
    21   18   17 ar 
    22   19   18 ar 
    23   20   19 ar 
    24   20   21 ar 
    25   22   20 1  
    26   22   23 ar 
    27   22   26 ar 
    28   23   24 ar 
    29   24   25 ar 
    30    1   27 1  
    31    1   28 1  
    32    1   29 1  
    33    5   30 1  
    34    7   31 1  
    35    7   32 1  
    36   12   33 1  
    37   13   34 1  
    38   14   35 1  
    39   15   36 1  
    40   17   37 1  
    41   18   38 1  
    42   19   39 1  
    43   21   40 1  
    44   23   41 1  
    45   24   42 1  
    46   25   43 1  
    47   26   44 1  
@<TRIPOS>SUBSTRUCTURE
     1 472         1

