### 
### Created by X-TOOL on Mon Sep 10 21:13:04 2018
### 

@<TRIPOS>MOLECULE
3in4_ligand
   55    58     1     0     0
SMALL
GAST_HUCK


@<TRIPOS>ATOM
      1 C1         16.3090  -13.2410   15.5770 C.3       1 BX2        -0.0530
      2 N1         15.8040  -11.3220   17.4690 N.ar      1 BX2        -0.2751
      3 O1         14.3490   -6.1890   18.8260 O.2       1 BX2        -0.3702
      4 C2         15.6960  -11.9340   15.0960 C.3       1 BX2        -0.0038
      5 N2         15.4290   -5.3490   16.9710 N.am      1 BX2        -0.2203
      6 C3         15.4910  -10.9380   16.2090 C.ar      1 BX2         0.0411
      7 N3         14.8550   -6.7880   15.3480 N.pl3     1 BX2        -0.2738
      8 C4         14.9940   -9.6730   15.9150 C.ar      1 BX2        -0.0259
      9 N4         16.4320   -5.1830   14.8490 N.pl3     1 BX2        -0.2549
     10 C5         14.7990   -8.7380   16.9380 C.ar      1 BX2        -0.0090
     11 N5          9.8820   -2.9390   14.0970 N.ar      1 BX2        -0.2622
     12 C6         15.1230   -9.1390   18.2420 C.ar      1 BX2        -0.0259
     13 N6          8.3250   -3.1510   15.8840 N.ar      1 BX2        -0.2622
     14 C7         15.6180  -10.4230   18.4660 C.ar      1 BX2         0.0411
     15 C8         15.9700  -10.8660   19.8630 C.3       1 BX2        -0.0038
     16 C9         17.4740  -10.9630   20.0690 C.3       1 BX2        -0.0530
     17 C10        14.2470   -7.3370   16.6190 C.3       1 BX2         0.1921
     18 C11        14.6650   -6.2530   17.6450 C.2       1 BX2         0.2028
     19 C12        15.5450   -5.7480   15.6900 C.cat     1 BX2         0.3186
     20 C13        16.0040   -4.1780   17.5850 C.3       1 BX2         0.0235
     21 C14        12.7180   -7.3670   16.5030 C.ar      1 BX2        -0.0064
     22 C15        11.9360   -8.4980   16.7650 C.ar      1 BX2        -0.0419
     23 C16        10.5480   -8.4390   16.6340 C.ar      1 BX2        -0.0355
     24 C17         9.9140   -7.2600   16.2460 C.ar      1 BX2        -0.0280
     25 C18        10.6620   -6.1100   15.9770 C.ar      1 BX2         0.0189
     26 C19        12.0570   -6.1860   16.1130 C.ar      1 BX2        -0.0326
     27 C20        10.0240   -4.8560   15.5740 C.ar      1 BX2         0.0403
     28 C21        10.4490   -4.1010   14.4970 C.ar      1 BX2         0.0373
     29 C22         8.8380   -2.5170   14.8220 C.ar      1 BX2         0.0897
     30 C23         8.9370   -4.3070   16.2330 C.ar      1 BX2         0.0373
     31 H1         16.4334  -13.9236   14.7234 H         1 BX2         0.0254
     32 H2         15.6466  -13.7040   16.3232 H         1 BX2         0.0254
     33 H3         17.2902  -13.0403   16.0320 H         1 BX2         0.0254
     34 H4         14.7209  -12.1519   14.6359 H         1 BX2         0.0454
     35 H5         16.3645  -11.4882   14.3447 H         1 BX2         0.0454
     36 H6         14.7421   -7.1672   14.3970 H         1 BX2         0.3076
     37 H7         14.7569   -9.4103   14.8904 H         1 BX2         0.0755
     38 H8         16.9685   -4.3555   15.1462 H         1 BX2         0.3199
     39 H9         16.5740   -5.5783   13.9085 H         1 BX2         0.3199
     40 H10        14.9893   -8.4542   19.0716 H         1 BX2         0.0755
     41 H11        15.5223  -11.8541   20.0455 H         1 BX2         0.0454
     42 H12        15.5597  -10.1395   20.5798 H         1 BX2         0.0454
     43 H13        17.6828  -11.2885   21.0988 H         1 BX2         0.0254
     44 H14        17.9321   -9.9781   19.8958 H         1 BX2         0.0254
     45 H15        17.8947  -11.6927   19.3615 H         1 BX2         0.0254
     46 H16        15.7178   -4.1426   18.6465 H         1 BX2         0.0484
     47 H17        15.6328   -3.2768   17.0750 H         1 BX2         0.0484
     48 H18        17.1000   -4.2212   17.5020 H         1 BX2         0.0484
     49 H19        12.4105   -9.4234   17.0709 H         1 BX2         0.0816
     50 H20         9.9543   -9.3229   16.8369 H         1 BX2         0.0689
     51 H21         8.8344   -7.2346   16.1522 H         1 BX2         0.0836
     52 H22        12.6489   -5.3009   15.9099 H         1 BX2         0.0825
     53 H23        11.2985   -4.4663   13.9314 H         1 BX2         0.0944
     54 H24         8.3698   -1.5856   14.5246 H         1 BX2         0.1122
     55 H25         8.5474   -4.8422   17.0914 H         1 BX2         0.0944
@<TRIPOS>BOND
     1    4    1 1  
     2    6    2 ar 
     3   14    2 ar 
     4   18    3 2  
     5    6    4 1  
     6   18    5 am 
     7    5   19 ar 
     8    5   20 1  
     9    8    6 ar 
    10   17    7 1  
    11    7   19 ar 
    12   10    8 ar 
    13   19    9 ar 
    14   10   12 ar 
    15   17   10 1  
    16   28   11 ar 
    17   11   29 ar 
    18   12   14 ar 
    19   29   13 ar 
    20   13   30 ar 
    21   14   15 1  
    22   15   16 1  
    23   17   18 1  
    24   21   17 1  
    25   21   22 ar 
    26   26   21 ar 
    27   23   22 ar 
    28   24   23 ar 
    29   25   24 ar 
    30   25   26 ar 
    31   27   25 1  
    32   27   28 ar 
    33   27   30 ar 
    34    1   31 1  
    35    1   32 1  
    36    1   33 1  
    37    4   34 1  
    38    4   35 1  
    39    7   36 1  
    40    8   37 1  
    41    9   38 1  
    42    9   39 1  
    43   12   40 1  
    44   15   41 1  
    45   15   42 1  
    46   16   43 1  
    47   16   44 1  
    48   16   45 1  
    49   20   46 1  
    50   20   47 1  
    51   20   48 1  
    52   22   49 1  
    53   23   50 1  
    54   24   51 1  
    55   26   52 1  
    56   28   53 1  
    57   29   54 1  
    58   30   55 1  
@<TRIPOS>SUBSTRUCTURE
     1 BX2         1

