### 
### Created by X-TOOL on Mon Sep 10 21:13:03 2018
### 

@<TRIPOS>MOLECULE
3ind_ligand
   50    54     1     0     0
SMALL
GAST_HUCK


@<TRIPOS>ATOM
      1 C1         16.2590   -4.1920   17.5680 C.3       1 593         0.0238
      2 N1         15.6120   -5.3650   16.9990 N.am      1 593        -0.2168
      3 O1         14.8100   -6.3140   18.9480 O.2       1 593        -0.3608
      4 C2         14.9550   -6.3110   17.7370 C.2       1 593         0.2171
      5 N2         15.0090   -6.8570   15.4540 N.pl3     1 593        -0.2615
      6 C3         14.4230   -7.3640   16.7410 C.3       1 593         0.1879
      7 N3         16.3190   -5.0360   14.7640 N.pl3     1 593        -0.2546
      8 C4         15.5610   -5.7040   15.6830 C.cat     1 593         0.3221
      9 C5         14.9610   -8.7820   17.0190 C.ar      1 593         0.0078
     10 C6         15.3160   -9.6540   15.9770 C.ar      1 593        -0.0349
     11 C7         15.8020  -10.9400   16.2310 C.ar      1 593        -0.0321
     12 C8         15.9450  -11.3890   17.5410 C.ar      1 593        -0.0337
     13 C9         15.6010  -10.5490   18.5930 C.ar      1 593        -0.0321
     14 C10        15.1140   -9.2630   18.3350 C.ar      1 593        -0.0349
     15 C11        12.8390   -7.2930   16.6110 C.3       1 593         0.0049
     16 C12        12.1320   -7.9440   17.8470 C.3       1 593        -0.0476
     17 C13        10.5990   -7.8510   17.7390 C.3       1 593        -0.0407
     18 C14        10.1800   -6.3760   17.6670 C.3       1 593        -0.0474
     19 C15        10.8200   -5.7120   16.4390 C.3       1 593        -0.0407
     20 C16        12.3510   -5.8080   16.5460 C.3       1 593        -0.0476
     21 C17        10.3670   -6.4330   15.1620 C.3       1 593        -0.0474
     22 C18        10.7720   -7.9110   15.2290 C.3       1 593        -0.0407
     23 C19        10.1360   -8.5670   16.4630 C.3       1 593        -0.0474
     24 C20        12.3050   -8.0130   15.3360 C.3       1 593        -0.0476
     25 H1         16.1283   -4.1948   18.6602 H         1 593         0.0484
     26 H2         15.8056   -3.2826   17.1468 H         1 593         0.0484
     27 H3         17.3321   -4.2121   17.3271 H         1 593         0.0484
     28 H4         14.9782   -7.3411   14.5454 H         1 593         0.3117
     29 H5         16.7320   -4.1232   15.0028 H         1 593         0.3199
     30 H6         16.4776   -5.4451   13.8321 H         1 593         0.3199
     31 H7         15.2106   -9.3218   14.9505 H         1 593         0.0850
     32 H8         16.0684  -11.5897   15.4052 H         1 593         0.0699
     33 H9         16.3217  -12.3860   17.7387 H         1 593         0.0858
     34 H10        15.7102  -10.8908   19.6159 H         1 593         0.0699
     35 H11        14.8480   -8.6212   19.1671 H         1 593         0.0850
     36 H12        12.4575   -7.4230   18.7595 H         1 593         0.0266
     37 H13        12.4217   -9.0035   17.9065 H         1 593         0.0266
     38 H14        10.1373   -8.3245   18.6180 H         1 593         0.0301
     39 H15        10.5132   -5.8570   18.5778 H         1 593         0.0271
     40 H16         9.0848   -6.3110   17.5878 H         1 593         0.0271
     41 H17        10.5172   -4.6555   16.3935 H         1 593         0.0301
     42 H18        12.8000   -5.3242   15.6660 H         1 593         0.0266
     43 H19        12.6772   -5.2862   17.4577 H         1 593         0.0266
     44 H20        10.8430   -5.9631   14.2888 H         1 593         0.0271
     45 H21         9.2736   -6.3578   15.0683 H         1 593         0.0271
     46 H22        10.4298   -8.4276   14.3201 H         1 593         0.0301
     47 H23         9.0407   -8.5012   16.3860 H         1 593         0.0271
     48 H24        10.4375   -9.6238   16.5091 H         1 593         0.0271
     49 H25        12.5902   -9.0745   15.3793 H         1 593         0.0266
     50 H26        12.7568   -7.5479   14.4474 H         1 593         0.0266
@<TRIPOS>BOND
     1    1    2 1  
     2    2    4 am 
     3    2    8 ar 
     4    4    3 2  
     5    4    6 1  
     6    6    5 1  
     7    5    8 ar 
     8    6    9 1  
     9    6   15 1  
    10    8    7 ar 
    11    9   10 ar 
    12    9   14 ar 
    13   10   11 ar 
    14   11   12 ar 
    15   12   13 ar 
    16   13   14 ar 
    17   15   16 1  
    18   15   20 1  
    19   15   24 1  
    20   16   17 1  
    21   17   18 1  
    22   17   23 1  
    23   18   19 1  
    24   19   20 1  
    25   19   21 1  
    26   21   22 1  
    27   22   23 1  
    28   22   24 1  
    29    1   25 1  
    30    1   26 1  
    31    1   27 1  
    32    5   28 1  
    33    7   29 1  
    34    7   30 1  
    35   10   31 1  
    36   11   32 1  
    37   12   33 1  
    38   13   34 1  
    39   14   35 1  
    40   16   36 1  
    41   16   37 1  
    42   17   38 1  
    43   18   39 1  
    44   18   40 1  
    45   19   41 1  
    46   20   42 1  
    47   20   43 1  
    48   21   44 1  
    49   21   45 1  
    50   22   46 1  
    51   23   47 1  
    52   23   48 1  
    53   24   49 1  
    54   24   50 1  
@<TRIPOS>SUBSTRUCTURE
     1 593         1

