### 
### Created by X-TOOL on Mon Sep 10 21:13:04 2018
### 

@<TRIPOS>MOLECULE
3ine_ligand
   57    61     1     0     0
SMALL
GAST_HUCK


@<TRIPOS>ATOM
      1 C1         16.0380  -11.1070   19.8410 C.3       1 X17        -0.0246
      2 N1         15.7360   -5.4810   17.0510 N.am      1 X17        -0.2192
      3 O1         16.5840  -12.7150   17.6370 O.3       1 X17        -0.2973
      4 C2         15.8030  -10.6420   18.4280 C.ar      1 X17         0.0182
      5 N2         14.9920   -6.8470   15.4410 N.pl3     1 X17        -0.2714
      6 O2         14.9490   -6.4920   18.9720 O.2       1 X17        -0.3670
      7 C3         15.2950   -9.3510   18.2060 C.ar      1 X17        -0.0416
      8 N3         16.4120   -5.0920   14.8090 N.pl3     1 X17        -0.2548
      9 C4         15.0550   -8.8580   16.9120 C.ar      1 X17        -0.0154
     10 C5         15.3400   -9.7050   15.8300 C.ar      1 X17        -0.0463
     11 C6         15.8490  -10.9960   16.0340 C.ar      1 X17        -0.0012
     12 C7         16.0830  -11.4710   17.3320 C.ar      1 X17         0.1338
     13 C8         17.0960  -13.4720   16.5460 C.3       1 X17         0.0681
     14 C9         14.4930   -7.4370   16.7270 C.3       1 X17         0.1721
     15 C10        15.0710   -6.4410   17.7560 C.2       1 X17         0.2048
     16 C11        15.6490   -5.7600   15.7220 C.cat     1 X17         0.3199
     17 C12        16.4100   -4.3480   17.6690 C.3       1 X17         0.0235
     18 C13        12.9040   -7.3890   16.7130 C.3       1 X17        -0.0032
     19 C14        12.3930   -5.9120   16.6440 C.3       1 X17        -0.0495
     20 C15        10.8580   -5.8460   16.6190 C.3       1 X17        -0.0408
     21 C16        10.3050   -6.5020   17.8930 C.3       1 X17        -0.0474
     22 C17        10.7370   -7.9730   17.9490 C.3       1 X17        -0.0408
     23 C18        12.2770   -8.0400   17.9840 C.3       1 X17        -0.0495
     24 C19        10.2220   -8.7070   16.7040 C.3       1 X17        -0.0474
     25 C20        10.7840   -8.0580   15.4320 C.3       1 X17        -0.0408
     26 C21        10.3410   -6.5900   15.3760 C.3       1 X17        -0.0474
     27 C22        12.3240   -8.1360   15.4690 C.3       1 X17        -0.0495
     28 H          15.4340  -11.9932   20.0357 H         1 X17         0.0381
     29 H          17.0928  -11.3487   19.9719 H         1 X17         0.0381
     30 H          15.7567  -10.3145   20.5345 H         1 X17         0.0381
     31 H          14.8421   -7.2315   14.5082 H         1 X17         0.3091
     32 H          15.0806   -8.7127   19.0631 H         1 X17         0.0732
     33 H          16.4870   -5.4415   13.8537 H         1 X17         0.3199
     34 H          16.9074   -4.2431   15.0818 H         1 X17         0.3199
     35 H          15.1628   -9.3536   14.8135 H         1 X17         0.0788
     36 H          16.0641  -11.6345   15.1772 H         1 X17         0.0643
     37 H          16.3032  -13.6374   15.8164 H         1 X17         0.0596
     38 H          17.9140  -12.9246   16.0778 H         1 X17         0.0596
     39 H          17.4615  -14.4318   16.9112 H         1 X17         0.0596
     40 H          15.6854   -3.7575   18.2297 H         1 X17         0.0484
     41 H          17.1845   -4.7118   18.3442 H         1 X17         0.0484
     42 H          16.8629   -3.7295   16.8941 H         1 X17         0.0484
     43 H          12.7725   -5.4584   15.7284 H         1 X17         0.0265
     44 H          12.7464   -5.3833   17.5293 H         1 X17         0.0265
     45 H          10.5284   -4.8078   16.5781 H         1 X17         0.0301
     46 H           9.2165   -6.4460   17.8841 H         1 X17         0.0271
     47 H          10.6942   -5.9784   18.7662 H         1 X17         0.0271
     48 H          10.3247   -8.4452   18.8407 H         1 X17         0.0301
     49 H          12.6273   -7.4951   18.8606 H         1 X17         0.0265
     50 H          12.5772   -9.0872   18.0204 H         1 X17         0.0265
     51 H           9.1338   -8.6493   16.6818 H         1 X17         0.0271
     52 H          10.5452   -9.7472   16.7452 H         1 X17         0.0271
     53 H          10.4129   -8.5801   14.5501 H         1 X17         0.0301
     54 H          10.7486   -6.1231   14.4794 H         1 X17         0.0271
     55 H           9.2524   -6.5413   15.3520 H         1 X17         0.0271
     56 H          12.6158   -9.1845   15.5282 H         1 X17         0.0265
     57 H          12.7159   -7.6636   14.5682 H         1 X17         0.0265
@<TRIPOS>BOND
     1    4    1 1  
     2    2   15 am 
     3   16    2 ar 
     4    2   17 1  
     5   12    3 1  
     6    3   13 1  
     7    7    4 ar 
     8    4   12 ar 
     9   14    5 1  
    10    5   16 ar 
    11   15    6 2  
    12    9    7 ar 
    13   16    8 ar 
    14    9   10 ar 
    15    9   14 1  
    16   10   11 ar 
    17   11   12 ar 
    18   14   15 1  
    19   14   18 1  
    20   18   19 1  
    21   18   23 1  
    22   18   27 1  
    23   19   20 1  
    24   20   21 1  
    25   20   26 1  
    26   21   22 1  
    27   22   23 1  
    28   22   24 1  
    29   24   25 1  
    30   25   26 1  
    31   25   27 1  
    32    1   28 1  
    33    1   29 1  
    34    1   30 1  
    35    5   31 1  
    36    7   32 1  
    37    8   33 1  
    38    8   34 1  
    39   10   35 1  
    40   11   36 1  
    41   13   37 1  
    42   13   38 1  
    43   13   39 1  
    44   17   40 1  
    45   17   41 1  
    46   17   42 1  
    47   19   43 1  
    48   19   44 1  
    49   20   45 1  
    50   21   46 1  
    51   21   47 1  
    52   22   48 1  
    53   23   49 1  
    54   23   50 1  
    55   24   51 1  
    56   24   52 1  
    57   25   53 1  
    58   26   54 1  
    59   26   55 1  
    60   27   56 1  
    61   27   57 1  
@<TRIPOS>SUBSTRUCTURE
     1 X17         1

