### 
### Created by X-TOOL on Mon Sep 10 21:13:03 2018
### 

@<TRIPOS>MOLECULE
3inf_ligand
   52    55     1     0     0
SMALL
GAST_HUCK


@<TRIPOS>ATOM
      1 C1         15.9340  -11.0450   19.3700 C.3       1 X45        -0.0263
      2 N1         15.4270   -5.5280   16.6520 N.am      1 X45        -0.2225
      3 O1         16.6360  -12.6110   17.1770 O.3       1 X45        -0.3026
      4 C2         15.7030  -10.5920   17.9530 C.ar      1 X45         0.0110
      5 N2         14.8120   -6.8510   14.9570 N.pl3     1 X45        -0.2838
      6 O2         14.3490   -6.5030   18.4430 O.2       1 X45        -0.3759
      7 C3         15.1160   -9.3370   17.7260 C.ar      1 X45        -0.0509
      8 N3         16.3280   -5.1020   14.4830 N.pl3     1 X45        -0.2550
      9 C4         14.8770   -8.8640   16.4280 C.ar      1 X45        -0.0335
     10 N4         10.0820   -3.1160   13.6120 N.ar      1 X45        -0.2963
     11 C5         15.2430   -9.6880   15.3550 C.ar      1 X45        -0.0563
     12 C6         15.8290  -10.9440   15.5650 C.ar      1 X45        -0.0090
     13 C7         16.0630  -11.4050   16.8620 C.ar      1 X45         0.1258
     14 C8         17.3890  -13.2800   16.1700 C.3       1 X45         0.0661
     15 C9         14.2410   -7.4860   16.1880 C.3       1 X45         0.1737
     16 C10        14.6700   -6.4780   17.2670 C.2       1 X45         0.1904
     17 C11        15.5380   -5.8370   15.3300 C.cat     1 X45         0.3166
     18 C12        16.0120   -4.3860   17.3490 C.3       1 X45         0.0232
     19 C13        12.7050   -7.5400   16.1110 C.ar      1 X45        -0.0212
     20 C14        11.9170   -8.6580   16.4350 C.ar      1 X45        -0.0480
     21 C15        10.5180   -8.5940   16.3280 C.ar      1 X45        -0.0399
     22 C16         9.8750   -7.4250   15.9100 C.ar      1 X45        -0.0325
     23 C17        10.6400   -6.2910   15.5810 C.ar      1 X45         0.0096
     24 C18        12.0400   -6.3760   15.6940 C.ar      1 X45        -0.0393
     25 C19        10.0500   -5.0160   15.1400 C.ar      1 X45         0.0145
     26 C20         8.9330   -4.4530   15.7750 C.ar      1 X45        -0.0345
     27 C21         8.3990   -3.2400   15.3330 C.ar      1 X45        -0.0338
     28 C22         9.0040   -2.6120   14.2550 C.ar      1 X45         0.0108
     29 C23        10.5810   -4.2950   14.0660 C.ar      1 X45         0.0192
     30 H          15.3828  -11.9681   19.5494 H         1 X45         0.0378
     31 H          16.9986  -11.2200   19.5252 H         1 X45         0.0378
     32 H          15.5873  -10.2737   20.0578 H         1 X45         0.0378
     33 H          14.6590   -7.1588   13.9967 H         1 X45         0.3053
     34 H          14.8398   -8.7162   18.5783 H         1 X45         0.0688
     35 H          16.3716   -5.3391   13.4919 H         1 X45         0.3198
     36 H          16.8718   -4.3183   14.8443 H         1 X45         0.3198
     37 H          15.0682   -9.3448   14.3353 H         1 X45         0.0734
     38 H          16.1034  -11.5639   14.7114 H         1 X45         0.0619
     39 H          16.7458  -13.4874   15.3148 H         1 X45         0.0592
     40 H          18.2186  -12.6460   15.8571 H         1 X45         0.0592
     41 H          17.7768  -14.2168   16.5702 H         1 X45         0.0592
     42 H          15.2174   -3.7896   17.7973 H         1 X45         0.0484
     43 H          16.6840   -4.7435   18.1292 H         1 X45         0.0484
     44 H          16.5698   -3.7754   16.6389 H         1 X45         0.0484
     45 H          12.3938   -9.5788   16.7708 H         1 X45         0.0783
     46 H           9.9222   -9.4725   16.5756 H         1 X45         0.0677
     47 H           8.7878   -7.3924   15.8394 H         1 X45         0.0801
     48 H          12.6358   -5.4975   15.4463 H         1 X45         0.0791
     49 H           8.4773   -4.9669   16.6214 H         1 X45         0.0741
     50 H           7.5304   -2.7993   15.8223 H         1 X45         0.0709
     51 H           8.5903   -1.6650   13.9084 H         1 X45         0.0820
     52 H          11.4538   -4.7066   13.5592 H         1 X45         0.0831
@<TRIPOS>BOND
     1    4    1 1  
     2   16    2 am 
     3    2   17 ar 
     4    2   18 1  
     5   13    3 1  
     6    3   14 1  
     7    7    4 ar 
     8    4   13 ar 
     9   15    5 1  
    10    5   17 ar 
    11   16    6 2  
    12    9    7 ar 
    13   17    8 ar 
    14    9   11 ar 
    15   15    9 1  
    16   10   28 ar 
    17   29   10 ar 
    18   11   12 ar 
    19   12   13 ar 
    20   15   16 1  
    21   19   15 1  
    22   19   20 ar 
    23   24   19 ar 
    24   21   20 ar 
    25   22   21 ar 
    26   23   22 ar 
    27   23   24 ar 
    28   25   23 1  
    29   25   26 ar 
    30   25   29 ar 
    31   26   27 ar 
    32   27   28 ar 
    33    1   30 1  
    34    1   31 1  
    35    1   32 1  
    36    5   33 1  
    37    7   34 1  
    38    8   35 1  
    39    8   36 1  
    40   11   37 1  
    41   12   38 1  
    42   14   39 1  
    43   14   40 1  
    44   14   41 1  
    45   18   42 1  
    46   18   43 1  
    47   18   44 1  
    48   20   45 1  
    49   21   46 1  
    50   22   47 1  
    51   24   48 1  
    52   26   49 1  
    53   27   50 1  
    54   28   51 1  
    55   29   52 1  
@<TRIPOS>SUBSTRUCTURE
     1 X45         1

