### 
### Created by X-TOOL on Mon Sep 10 21:13:04 2018
### 

@<TRIPOS>MOLECULE
3inh_ligand
   48    51     1     0     0
SMALL
GAST_HUCK


@<TRIPOS>ATOM
      1 C1         16.0900   -4.3700   17.5830 C.3       1 569         0.0232
      2 F1         18.0930  -12.2350   16.4360 F         1 569        -0.1388
      3 N1         15.4120   -5.4950   16.9580 N.am      1 569        -0.2227
      4 O1         14.4240   -6.4610   18.8290 O.2       1 569        -0.3764
      5 C2         14.6650   -6.4230   17.6300 C.2       1 569         0.1892
      6 F2         17.9810  -12.4460   18.6060 F         1 569        -0.1388
      7 N2         14.6830   -6.8270   15.3100 N.pl3     1 569        -0.2847
      8 O2         16.0930  -12.7310   17.4230 O.3       1 569        -0.2040
      9 C3         14.1430   -7.4110   16.5790 C.3       1 569         0.1730
     10 F3         17.8160  -14.2300   17.3400 F         1 569        -0.1388
     11 N3         16.1750   -5.0820   14.7500 N.pl3     1 569        -0.2551
     12 C4         15.4190   -5.8030   15.6330 C.cat     1 569         0.3164
     13 F4          8.5020   -7.1070   16.3820 F         1 569        -0.1598
     14 N4          9.8720   -3.0270   13.9290 N.ar      1 569        -0.2630
     15 C5         14.6680   -8.8330   16.8400 C.ar      1 569        -0.0284
     16 N5          8.4630   -2.9550   15.8740 N.ar      1 569        -0.2630
     17 C6         14.8740   -9.7320   15.7840 C.ar      1 569        -0.0522
     18 C7         15.3510  -11.0230   16.0250 C.ar      1 569        -0.0056
     19 C8         15.6310  -11.4470   17.3260 C.ar      1 569         0.1312
     20 C9         15.4300  -10.5660   18.3860 C.ar      1 569        -0.0056
     21 C10        14.9540   -9.2730   18.1450 C.ar      1 569        -0.0522
     22 C11        17.4990  -12.9210   17.4340 C.3       1 569         0.5534
     23 C12        12.6130   -7.3840   16.5410 C.ar      1 569        -0.0238
     24 C13        11.8080   -8.4680   16.9170 C.ar      1 569        -0.0479
     25 C14        10.4210   -8.3590   16.8550 C.ar      1 569        -0.0030
     26 C15         9.8380   -7.1720   16.4220 C.ar      1 569         0.1695
     27 C16        10.6020   -6.0630   16.0380 C.ar      1 569         0.0514
     28 C17        11.9950   -6.1960   16.1080 C.ar      1 569        -0.0385
     29 C18        10.0070   -4.8030   15.5800 C.ar      1 569         0.0401
     30 C19        10.3870   -4.1860   14.3940 C.ar      1 569         0.0363
     31 C20         8.9280   -2.4740   14.7080 C.ar      1 569         0.0891
     32 C21         9.0220   -4.1170   16.2820 C.ar      1 569         0.0363
     33 H          17.1619   -4.4465   17.4005 H         1 569         0.0484
     34 H          15.7134   -3.4392   17.1588 H         1 569         0.0484
     35 H          15.9009   -4.3842   18.6564 H         1 569         0.0484
     36 H          14.5064   -7.1690   14.3654 H         1 569         0.3051
     37 H          16.1866   -5.3363   13.7623 H         1 569         0.3198
     38 H          16.7271   -4.2901   15.0793 H         1 569         0.3198
     39 H          14.6593   -9.4198   14.7620 H         1 569         0.0768
     40 H          15.5061  -11.7058   15.1896 H         1 569         0.0630
     41 H          15.6442  -10.8850   19.4060 H         1 569         0.0630
     42 H          14.8019   -8.5939   18.9839 H         1 569         0.0768
     43 H          12.2673   -9.3959   17.2578 H         1 569         0.0782
     44 H           9.7934   -9.2017   17.1450 H         1 569         0.0673
     45 H          12.6205   -5.3519   15.8176 H         1 569         0.0789
     46 H          11.1568   -4.6729   13.7953 H         1 569         0.0938
     47 H           8.4936   -1.5375   14.3583 H         1 569         0.1117
     48 H           8.6775   -4.5442   17.2238 H         1 569         0.0938
@<TRIPOS>BOND
     1    3    1 1  
     2   22    2 1  
     3    5    3 am 
     4   12    3 ar 
     5    5    4 2  
     6    9    5 1  
     7   22    6 1  
     8    9    7 1  
     9    7   12 ar 
    10   19    8 1  
    11    8   22 1  
    12    9   15 1  
    13   23    9 1  
    14   22   10 1  
    15   12   11 ar 
    16   26   13 1  
    17   30   14 ar 
    18   14   31 ar 
    19   15   17 ar 
    20   15   21 ar 
    21   31   16 ar 
    22   16   32 ar 
    23   17   18 ar 
    24   18   19 ar 
    25   20   19 ar 
    26   21   20 ar 
    27   23   24 ar 
    28   28   23 ar 
    29   25   24 ar 
    30   26   25 ar 
    31   27   26 ar 
    32   27   28 ar 
    33   29   27 1  
    34   29   30 ar 
    35   29   32 ar 
    36    1   33 1  
    37    1   34 1  
    38    1   35 1  
    39    7   36 1  
    40   11   37 1  
    41   11   38 1  
    42   17   39 1  
    43   18   40 1  
    44   20   41 1  
    45   21   42 1  
    46   24   43 1  
    47   25   44 1  
    48   28   45 1  
    49   30   46 1  
    50   31   47 1  
    51   32   48 1  
@<TRIPOS>SUBSTRUCTURE
     1 569         1

