### 
### Created by X-TOOL on Mon Sep 10 21:13:07 2018
### 

@<TRIPOS>MOLECULE
3iny_ligand
   18    19     1     0     0
SMALL
GAST_HUCK


@<TRIPOS>ATOM
      1 N9        -16.8210    6.2130   53.9440 N.pl3     1 7DG        -0.1614
      2 C8        -17.9780    6.7500   53.4120 C.2       1 7DG         0.1165
      3 C7        -17.6420    7.7130   52.4120 C.2       1 7DG         0.0409
      4 C5        -16.1790    7.7390   52.3270 C.2       1 7DG         0.1724
      5 C6        -15.2010    8.4980   51.5110 C.2       1 7DG         0.2247
      6 O6        -15.5480    9.3390   50.6650 O.2       1 7DG        -0.3794
      7 N1        -13.9130    8.2060   51.7960 N.am      1 7DG        -0.2543
      8 C2        -13.5610    7.2890   52.7640 C.cat     1 7DG         0.2001
      9 N2        -12.2790    6.9930   53.0290 N.pl3     1 7DG        -0.3337
     10 N3        -14.3790    6.5730   53.5510 N.pl3     1 7DG        -0.1992
     11 C4        -15.6790    6.7620   53.3620 C.2       1 7DG         0.2861
     12 H         -16.8045    5.5010   54.6742 H         1 7DG         0.2670
     13 H         -18.9912    6.4801   53.7098 H         1 7DG         0.1620
     14 H         -18.3386    8.3123   51.8258 H         1 7DG         0.0761
     15 H         -13.1746    8.6808   51.2766 H         1 7DG         0.1814
     16 H         -12.0524    6.3052   53.7473 H         1 7DG         0.1768
     17 H         -11.5314    7.4559   52.5121 H         1 7DG         0.1768
     18 H         -14.0232    5.9230   54.2519 H         1 7DG         0.2473
@<TRIPOS>BOND
     1    1    2 1  
     2    1   11 1  
     3    2    3 2  
     4    3    4 1  
     5    4    5 1  
     6    4   11 2  
     7    5    6 2  
     8    5    7 am 
     9    7    8 ar 
    10    8    9 ar 
    11    8   10 ar 
    12   10   11 1  
    13    1   12 1  
    14    2   13 1  
    15    3   14 1  
    16    7   15 1  
    17    9   16 1  
    18    9   17 1  
    19   10   18 1  
@<TRIPOS>SUBSTRUCTURE
     1 7DG         1

