### 
### Created by X-TOOL on Mon Sep 10 21:13:01 2018
### 

@<TRIPOS>MOLECULE
3io7_ligand
   55    58     1     0     0
SMALL
GAST_HUCK


@<TRIPOS>ATOM
      1 N3         14.8660   16.6100    4.0650 N.am      1 1P5        -0.2735
      2 C4         14.5510   15.6640    2.9800 C.3       1 1P5         0.0310
      3 C5         15.4050   15.9210    1.7360 C.3       1 1P5        -0.0446
      4 C6         15.9240   16.3910    4.8910 C.2       1 1P5         0.1835
      5 C8         16.8280   15.2000    4.7700 C.3       1 1P5         0.0692
      6 C10        18.2800   15.6330    5.0340 C.3       1 1P5        -0.0294
      7 C15        16.8010   11.8770    5.5320 C.ar      1 1P5         0.1143
      8 C17        15.4020   10.4250    4.2010 C.ar      1 1P5         0.0217
      9 C21        14.2640   10.1050    3.3030 C.2       1 1P5         0.0568
     10 C22        13.2510   10.9400    2.7880 C.2       1 1P5         0.1809
     11 C24        11.9190   12.7820    2.3290 C.2       1 1P5         0.0169
     12 C26        11.3870   10.7030    1.3050 C.2       1 1P5         0.1133
     13 C1         14.6610   19.1190    3.9210 C.3       1 1P5        -0.0446
     14 C2         13.9790   17.7860    4.2590 C.3       1 1P5         0.0310
     15 O7         16.1650   17.1650    5.7890 O.2       1 1P5        -0.3965
     16 C11        18.9120   14.8880    6.2150 C.3       1 1P5        -0.0301
     17 C12        18.6090   13.3830    6.1500 C.3       1 1P5         0.0317
     18 N13        17.1540   13.0940    6.1320 N.pl3     1 1P5        -0.2883
     19 C14        16.2740   14.2330    5.8210 C.3       1 1P5         0.0510
     20 C16        15.6660   11.7090    4.7220 C.ar      1 1P5        -0.0069
     21 N18        16.2700    9.4410    4.4730 N.ar      1 1P5        -0.3002
     22 C19        17.3170    9.6330    5.2380 C.ar      1 1P5         0.0550
     23 N20        17.5710   10.8150    5.7590 N.ar      1 1P5        -0.2682
     24 N23        12.9510   12.2360    2.9580 N.2       1 1P5        -0.2614
     25 C25        11.1040   12.0230    1.4710 C.2       1 1P5         0.0095
     26 N27        12.4670   10.1680    1.9570 N.pl3     1 1P5        -0.1368
     27 N28        12.9990    8.8820    1.9520 N.2       1 1P5        -0.1962
     28 C29        14.0510    8.8370    2.7430 C.2       1 1P5         0.0963
     29 N30        14.8430    7.7180    2.9800 N.pl3     1 1P5        -0.3324
     30 H1         13.4896   15.7707    2.7115 H         1 1P5         0.0519
     31 H2         14.7382   14.6398    3.3350 H         1 1P5         0.0519
     32 H3         15.1393   15.1958    0.9527 H         1 1P5         0.0249
     33 H4         16.4690   15.8104    1.9924 H         1 1P5         0.0249
     34 H5         15.2204   16.9413    1.3689 H         1 1P5         0.0249
     35 H6         16.7630   14.7518    3.7676 H         1 1P5         0.0558
     36 H7         18.2922   16.7114    5.2506 H         1 1P5         0.0294
     37 H8         18.8767   15.4335    4.1317 H         1 1P5         0.0294
     38 H9         11.6988   13.8378    2.4799 H         1 1P5         0.0997
     39 H10        10.7647   10.0807    0.6636 H         1 1P5         0.1378
     40 H11        13.9533   19.9449    4.0853 H         1 1P5         0.0249
     41 H12        14.9781   19.1119    2.8677 H         1 1P5         0.0249
     42 H13        15.5402   19.2554    4.5678 H         1 1P5         0.0249
     43 H14        13.6597   17.8135    5.3113 H         1 1P5         0.0519
     44 H15        13.0976   17.6700    3.6112 H         1 1P5         0.0519
     45 H16        18.5077   15.2950    7.1536 H         1 1P5         0.0286
     46 H17        20.0017   15.0358    6.1905 H         1 1P5         0.0286
     47 H18        19.0540   12.8957    7.0301 H         1 1P5         0.0524
     48 H19        19.0611   12.9718    5.2354 H         1 1P5         0.0524
     49 H20        15.3172   13.8360    5.4511 H         1 1P5         0.0552
     50 H21        16.1025   14.7973    6.7495 H         1 1P5         0.0552
     51 H22        15.0102   12.5439    4.5030 H         1 1P5         0.0554
     52 H23        17.9848    8.8046    5.4451 H         1 1P5         0.1046
     53 H24        10.2645   12.4818    0.9507 H         1 1P5         0.0614
     54 H25        14.6161    6.8212    2.5271 H         1 1P5         0.1720
     55 H26        15.6562    7.7864    3.6084 H         1 1P5         0.1720
@<TRIPOS>BOND
     1    1    2 1  
     2    4    1 am 
     3    1   14 1  
     4    2    3 1  
     5    5    4 1  
     6    4   15 2  
     7    6    5 1  
     8    5   19 1  
     9   16    6 1  
    10   18    7 1  
    11    7   20 ar 
    12    7   23 ar 
    13    8    9 1  
    14   20    8 ar 
    15    8   21 ar 
    16    9   10 2  
    17    9   28 1  
    18   10   24 1  
    19   10   26 1  
    20   24   11 2  
    21   11   25 1  
    22   12   25 2  
    23   26   12 1  
    24   14   13 1  
    25   17   16 1  
    26   17   18 1  
    27   18   19 1  
    28   21   22 ar 
    29   22   23 ar 
    30   26   27 1  
    31   27   28 2  
    32   28   29 1  
    33    2   30 1  
    34    2   31 1  
    35    3   32 1  
    36    3   33 1  
    37    3   34 1  
    38    5   35 1  
    39    6   36 1  
    40    6   37 1  
    41   11   38 1  
    42   12   39 1  
    43   13   40 1  
    44   13   41 1  
    45   13   42 1  
    46   14   43 1  
    47   14   44 1  
    48   16   45 1  
    49   16   46 1  
    50   17   47 1  
    51   17   48 1  
    52   19   49 1  
    53   19   50 1  
    54   20   51 1  
    55   22   52 1  
    56   25   53 1  
    57   29   54 1  
    58   29   55 1  
@<TRIPOS>SUBSTRUCTURE
     1 1P5         1

