### 
### Created by X-TOOL on Mon Sep 10 21:12:59 2018
### 

@<TRIPOS>MOLECULE
3iob_ligand
   32    34     1     0     0
SMALL
GAST_HUCK


@<TRIPOS>ATOM
      1 N1         13.7030    9.6810   -5.3280 N.ar      1 A4D        -0.2698
      2 C2         12.7150    9.2910   -4.5130 C.ar      1 A4D         0.0533
      3 N3         12.8640    9.3200   -3.1850 N.ar      1 A4D        -0.2714
      4 C4         14.0300    9.7430   -2.6340 C.ar      1 A4D         0.1613
      5 C5         15.0700   10.1580   -3.4590 C.ar      1 A4D         0.1045
      6 C6         14.8850   10.1110   -4.8330 C.ar      1 A4D         0.1298
      7 N6         15.8750   10.4850   -5.6310 N.pl3     1 A4D        -0.3152
      8 N7         16.0900   10.5250   -2.6830 N.2       1 A4D        -0.2958
      9 C8         15.7100   10.3600   -1.4120 C.2       1 A4D         0.1123
     10 N9         14.4640    9.8850   -1.3750 N.pl3     1 A4D        -0.1919
     11 OAB        12.5160    8.0950    1.9410 O.3       1 A4D        -0.3864
     12 OAC        14.4300    7.2470    0.1400 O.3       1 A4D        -0.3836
     13 SAD        14.7580   10.4330    4.6390 S.3       1 A4D        -0.1756
     14 CAG        14.6880   10.9820    2.8960 C.3       1 A4D         0.0196
     15 OAK        13.5730   10.7400    0.6970 O.3       1 A4D        -0.3383
     16 CAO        13.7910    8.7300    2.0240 C.3       1 A4D         0.1132
     17 CAP        14.5200    8.5840    0.6890 C.3       1 A4D         0.1385
     18 CAQ        13.5710   10.2560    2.0970 C.3       1 A4D         0.0993
     19 CAR        13.7060    9.5720   -0.1640 C.3       1 A4D         0.2009
     20 H1         11.7789    8.9461   -4.9370 H         1 A4D         0.0996
     21 H2         16.7662   10.8089   -5.2289 H         1 A4D         0.1820
     22 H3         15.7531   10.4517   -6.6532 H         1 A4D         0.1820
     23 H4         16.3240   10.5798   -0.5398 H         1 A4D         0.1349
     24 H5         12.0634    8.1862    2.7713 H         1 A4D         0.2100
     25 H6         13.5173    7.0252   -0.0026 H         1 A4D         0.2101
     26 H7         15.4943   10.9287    5.1169 H         1 A4D         0.1017
     27 H8         15.6572   10.7732    2.4195 H         1 A4D         0.0400
     28 H9         14.4936   12.0644    2.8730 H         1 A4D         0.0400
     29 H10        14.3764    8.3419    2.8705 H         1 A4D         0.0647
     30 H11        15.5767    8.8785    0.7698 H         1 A4D         0.0676
     31 H12        12.6003   10.4658    2.5701 H         1 A4D         0.0632
     32 H13        12.7207    9.1620   -0.4304 H         1 A4D         0.0996
@<TRIPOS>BOND
     1    2    1 ar 
     2    6    1 ar 
     3    3    2 ar 
     4    4    3 ar 
     5    4    5 ar 
     6   10    4 1  
     7    5    6 ar 
     8    8    5 1  
     9    6    7 1  
    10    9    8 2  
    11   10    9 1  
    12   19   10 1  
    13   16   11 1  
    14   17   12 1  
    15   14   13 1  
    16   18   14 1  
    17   18   15 1  
    18   15   19 1  
    19   16   17 1  
    20   16   18 1  
    21   17   19 1  
    22    2   20 1  
    23    7   21 1  
    24    7   22 1  
    25    9   23 1  
    26   11   24 1  
    27   12   25 1  
    28   13   26 1  
    29   14   27 1  
    30   14   28 1  
    31   16   29 1  
    32   17   30 1  
    33   18   31 1  
    34   19   32 1  
@<TRIPOS>SUBSTRUCTURE
     1 A4D         1

