### 
### Created by X-TOOL on Mon Sep 10 21:12:59 2018
### 

@<TRIPOS>MOLECULE
3ioc_ligand
   46    49     1     0     0
SMALL
GAST_HUCK


@<TRIPOS>ATOM
      1 N1         13.9990    9.7850   -5.6050 N.ar      1 A5D        -0.2698
      2 C2         13.0560    9.3000   -4.8030 C.ar      1 A5D         0.0533
      3 N3         13.1640    9.4250   -3.4890 N.ar      1 A5D        -0.2714
      4 C4         14.2160   10.0430   -2.9070 C.ar      1 A5D         0.1613
      5 C5         15.2170   10.5550   -3.7200 C.ar      1 A5D         0.1045
      6 C6         15.0940   10.4140   -5.1140 C.ar      1 A5D         0.1298
      7 N6         16.0210   10.8720   -5.9610 N.pl3     1 A5D        -0.3152
      8 N7         16.1190   11.0910   -2.9090 N.2       1 A5D        -0.2958
      9 C8         15.7200   10.9500   -1.6470 C.2       1 A5D         0.1123
     10 N9         14.5520   10.3070   -1.6450 N.pl3     1 A5D        -0.1919
     11 OAB        12.6650    8.0150    1.7470 O.3       1 A5D        -0.3864
     12 OAC        14.4840    7.5600   -0.3940 O.3       1 A5D        -0.3836
     13 CAD        13.9240    9.6520    9.4870 C.ar      1 A5D        -0.0687
     14 CAE        13.5840   10.6390    8.5940 C.ar      1 A5D        -0.0685
     15 CAF        14.3170    8.3960    9.0170 C.ar      1 A5D        -0.0685
     16 CAG        13.6530   10.3690    7.2350 C.ar      1 A5D        -0.0595
     17 CAH        14.3890    8.1170    7.6670 C.ar      1 A5D        -0.0595
     18 CAK        14.1060    8.8320    5.3030 C.3       1 A5D         0.0377
     19 CAL        13.5570   11.0430    3.0870 C.3       1 A5D         0.0330
     20 OAP        13.9190   10.9550    0.5700 O.3       1 A5D        -0.3382
     21 SAQ        15.7130    9.5640    4.7870 S.3       1 A5D        -0.0792
     22 SAR        15.2580   11.2750    3.7290 S.3       1 A5D        -0.0883
     23 CAS        14.0360    9.1090    6.7920 C.ar      1 A5D        -0.0324
     24 CAW        13.8310    8.8450    1.6830 C.3       1 A5D         0.1132
     25 CAX        14.5440    8.8020    0.3020 C.3       1 A5D         0.1385
     26 CAY        13.3430   10.3100    1.7460 C.3       1 A5D         0.1003
     27 CAZ        13.8030    9.9290   -0.4460 C.3       1 A5D         0.2009
     28 H1         12.1934    8.7991   -5.2273 H         1 A5D         0.0996
     29 H2         16.8574   11.3517   -5.5989 H         1 A5D         0.1820
     30 H3         15.8989   10.7452   -6.9759 H         1 A5D         0.1820
     31 H4         16.2562   11.3002   -0.7662 H         1 A5D         0.1349
     32 H5         12.2758    8.0837    2.6109 H         1 A5D         0.2100
     33 H6         14.8897    6.8825    0.1340 H         1 A5D         0.2101
     34 H7         13.8876    9.8468   10.5527 H         1 A5D         0.0559
     35 H8         13.2666   11.6139    8.9459 H         1 A5D         0.0599
     36 H9         14.5718    7.6210    9.7308 H         1 A5D         0.0599
     37 H10        13.4075   11.1430    6.5169 H         1 A5D         0.0557
     38 H11        14.7139    7.1457    7.3119 H         1 A5D         0.0557
     39 H12        14.0882    7.7500    5.1057 H         1 A5D         0.0546
     40 H13        13.2697    9.3146    4.7761 H         1 A5D         0.0546
     41 H14        13.1173   12.0453    2.9772 H         1 A5D         0.0411
     42 H15        13.0008   10.4803    3.8512 H         1 A5D         0.0411
     43 H16        14.5247    8.5936    2.4988 H         1 A5D         0.0647
     44 H17        15.6062    9.0590    0.4269 H         1 A5D         0.0676
     45 H18        12.2525   10.2920    1.6031 H         1 A5D         0.0632
     46 H19        12.7613    9.6783   -0.6951 H         1 A5D         0.0996
@<TRIPOS>BOND
     1    2    1 ar 
     2    6    1 ar 
     3    3    2 ar 
     4    4    3 ar 
     5    4    5 ar 
     6   10    4 1  
     7    5    6 ar 
     8    8    5 1  
     9    6    7 1  
    10    9    8 2  
    11   10    9 1  
    12   27   10 1  
    13   24   11 1  
    14   25   12 1  
    15   14   13 ar 
    16   15   13 ar 
    17   16   14 ar 
    18   17   15 ar 
    19   23   16 ar 
    20   23   17 ar 
    21   21   18 1  
    22   18   23 1  
    23   19   22 1  
    24   26   19 1  
    25   26   20 1  
    26   20   27 1  
    27   22   21 1  
    28   24   25 1  
    29   24   26 1  
    30   25   27 1  
    31    2   28 1  
    32    7   29 1  
    33    7   30 1  
    34    9   31 1  
    35   11   32 1  
    36   12   33 1  
    37   13   34 1  
    38   14   35 1  
    39   15   36 1  
    40   16   37 1  
    41   17   38 1  
    42   18   39 1  
    43   18   40 1  
    44   19   41 1  
    45   19   42 1  
    46   24   43 1  
    47   25   44 1  
    48   26   45 1  
    49   27   46 1  
@<TRIPOS>SUBSTRUCTURE
     1 A5D         1

