### 
### Created by X-TOOL on Mon Sep 10 21:12:59 2018
### 

@<TRIPOS>MOLECULE
3iod_ligand
   48    51     1     0     0
SMALL
GAST_HUCK


@<TRIPOS>ATOM
      1 N1         13.6310    9.6270   -5.3630 N.ar      1 A6D        -0.2698
      2 C2         12.6520    9.2610   -4.5340 C.ar      1 A6D         0.0533
      3 N3         12.8010    9.3450   -3.2120 N.ar      1 A6D        -0.2714
      4 C4         13.9500    9.8100   -2.6760 C.ar      1 A6D         0.1613
      5 C5         14.9890   10.1950   -3.5110 C.ar      1 A6D         0.1045
      6 C6         14.8110   10.0890   -4.8880 C.ar      1 A6D         0.1298
      7 N6         15.7930   10.4420   -5.7170 N.pl3     1 A6D        -0.3152
      8 N7         15.9900   10.6010   -2.7380 N.2       1 A6D        -0.2958
      9 C8         15.6040   10.4840   -1.4690 C.2       1 A6D         0.1123
     10 N9         14.3690   10.0060   -1.4260 N.pl3     1 A6D        -0.1919
     11 OAB        12.3660   11.3070    9.5930 O.2       1 A6D         0.1781
     12 OAC        12.3780    8.2680    1.8090 O.3       1 A6D        -0.3864
     13 OAD        14.3360    7.3640    0.0590 O.3       1 A6D        -0.3836
     14 OAE        14.3480   11.6690   10.9750 O.2       1 A6D         0.1781
     15 CAF        16.2320    8.6210    8.9000 C.ar      1 A6D        -0.0603
     16 CAG        15.7980    8.1810    7.6620 C.ar      1 A6D        -0.0542
     17 CAH        15.5430    9.5720    9.6530 C.ar      1 A6D        -0.0258
     18 CAK        13.9080    9.6810    7.9210 C.ar      1 A6D        -0.0168
     19 CAL        14.1270    8.2690    5.8430 C.3       1 A6D         0.0388
     20 CAM        14.9040   10.8970    2.7670 C.3       1 A6D         0.0330
     21 OAQ        13.5520   10.8670    0.6930 O.3       1 A6D        -0.3382
     22 SAR        13.2930    9.6780    5.0760 S.3       1 A6D        -0.0791
     23 SAS        14.7520   11.0280    4.5880 S.3       1 A6D        -0.0883
     24 CAT        14.6180    8.7210    7.1910 C.ar      1 A6D        -0.0245
     25 CAV        14.3710   10.1080    9.1640 C.ar      1 A6D         0.1930
     26 CAY        13.6980    8.8130    1.9370 C.3       1 A6D         0.1132
     27 CAZ        14.4230    8.6940    0.6060 C.3       1 A6D         0.1385
     28 CBA        13.6230   10.3440    2.0750 C.3       1 A6D         0.1003
     29 CBB        13.6160    9.7180   -0.2050 C.3       1 A6D         0.2009
     30 NBD        13.7140   11.0110    9.8960 N.2       1 A6D         0.3131
     31 H1         11.7194    8.8889   -4.9424 H         1 A6D         0.0996
     32 H2         16.6851   10.7918   -5.3392 H         1 A6D         0.1820
     33 H3         15.6598   10.3651   -6.7355 H         1 A6D         0.1820
     34 H4         16.2094   10.7413   -0.6011 H         1 A6D         0.1349
     35 H5         11.9241    8.3419    2.6403 H         1 A6D         0.2100
     36 H6         13.4235    7.1387   -0.0791 H         1 A6D         0.2101
     37 H7         17.1495    8.2078    9.3032 H         1 A6D         0.0614
     38 H8         16.3567    7.4487    7.0904 H         1 A6D         0.0600
     39 H9         15.9268    9.8874   10.6165 H         1 A6D         0.0634
     40 H10        12.9915   10.0953    7.5167 H         1 A6D         0.0630
     41 H11        14.9759    7.9494    5.2207 H         1 A6D         0.0547
     42 H12        13.4225    7.4323    5.9599 H         1 A6D         0.0547
     43 H13        15.7429   10.2244    2.5351 H         1 A6D         0.0411
     44 H14        15.1138   11.8980    2.3622 H         1 A6D         0.0411
     45 H15        14.2426    8.3367    2.7656 H         1 A6D         0.0647
     46 H16        15.4811    8.9829    0.6891 H         1 A6D         0.0676
     47 H17        12.7322   10.6364    2.6503 H         1 A6D         0.0632
     48 H18        12.6095    9.3512   -0.4547 H         1 A6D         0.0996
@<TRIPOS>BOND
     1    2    1 ar 
     2    6    1 ar 
     3    3    2 ar 
     4    4    3 ar 
     5    4    5 ar 
     6   10    4 1  
     7    5    6 ar 
     8    8    5 1  
     9    6    7 1  
    10    9    8 2  
    11   10    9 1  
    12   29   10 1  
    13   30   11 2  
    14   26   12 1  
    15   27   13 1  
    16   30   14 2  
    17   16   15 ar 
    18   15   17 ar 
    19   24   16 ar 
    20   25   17 ar 
    21   24   18 ar 
    22   18   25 ar 
    23   22   19 1  
    24   19   24 1  
    25   20   23 1  
    26   28   20 1  
    27   28   21 1  
    28   21   29 1  
    29   23   22 1  
    30   25   30 1  
    31   26   27 1  
    32   26   28 1  
    33   27   29 1  
    34    2   31 1  
    35    7   32 1  
    36    7   33 1  
    37    9   34 1  
    38   12   35 1  
    39   13   36 1  
    40   15   37 1  
    41   16   38 1  
    42   17   39 1  
    43   18   40 1  
    44   19   41 1  
    45   19   42 1  
    46   20   43 1  
    47   20   44 1  
    48   26   45 1  
    49   27   46 1  
    50   28   47 1  
    51   29   48 1  
@<TRIPOS>SUBSTRUCTURE
     1 A6D         1

