### 
### Created by X-TOOL on Mon Sep 10 21:12:59 2018
### 

@<TRIPOS>MOLECULE
3ioe_ligand
   46    48     1     0     0
SMALL
GAST_HUCK


@<TRIPOS>ATOM
      1 N1         13.7440    9.5570   -5.3120 N.ar      1 A7D        -0.2698
      2 C2         12.7570    9.2080   -4.4750 C.ar      1 A7D         0.0533
      3 N3         12.9440    9.2860   -3.1570 N.ar      1 A7D        -0.2714
      4 C4         14.1320    9.7200   -2.6430 C.ar      1 A7D         0.1613
      5 C5         15.1750   10.0860   -3.4930 C.ar      1 A7D         0.1045
      6 C6         14.9510    9.9910   -4.8640 C.ar      1 A7D         0.1298
      7 N6         15.9250   10.3260   -5.7130 N.pl3     1 A7D        -0.3152
      8 N7         16.2050   10.4750   -2.7440 N.2       1 A7D        -0.2958
      9 C8         15.8430   10.3580   -1.4630 C.2       1 A7D         0.1123
     10 N9         14.5860    9.9030   -1.4000 N.pl3     1 A7D        -0.1919
     11 OAB        14.8640    9.8980    9.5210 O.3       1 A7D        -0.3925
     12 OAC        16.3630    7.8700    7.4210 O.3       1 A7D        -0.3895
     13 OAD        12.5240    8.1730    1.8270 O.3       1 A7D        -0.3864
     14 OAE        14.5120    7.2260   -0.0600 O.3       1 A7D        -0.3836
     15 CAH        14.6630    8.5060    9.1750 C.3       1 A7D         0.0702
     16 CAI        14.7510    9.2620    5.3170 C.3       1 A7D        -0.0038
     17 CAJ        14.4370    9.3940    6.8280 C.3       1 A7D        -0.0157
     18 CAK        15.2100   10.5420    2.7790 C.3       1 A7D         0.0226
     19 OAO        13.8100   10.7210    0.7290 O.3       1 A7D        -0.3383
     20 SAP        14.9760   10.9260    4.5410 S.3       1 A7D        -0.1580
     21 CAT        14.9380    8.2060    7.6740 C.3       1 A7D         0.0790
     22 CAU        13.8800    8.6100    1.9190 C.3       1 A7D         0.1132
     23 CAV        14.5890    8.5240    0.5620 C.3       1 A7D         0.1385
     24 CAW        13.8800   10.1340    2.0890 C.3       1 A7D         0.0995
     25 CAX        13.8250    9.6210   -0.2060 C.3       1 A7D         0.2009
     26 H1         11.8080    8.8628   -4.8690 H         1 A7D         0.0996
     27 H2         16.8328   10.6527   -5.3523 H         1 A7D         0.1820
     28 H3         15.7688   10.2578   -6.7288 H         1 A7D         0.1820
     29 H4         16.4714   10.5954   -0.6059 H         1 A7D         0.1349
     30 H5         14.6827   10.0228   10.4451 H         1 A7D         0.2095
     31 H6         16.4863    7.6946    6.4955 H         1 A7D         0.2099
     32 H7         12.1129    8.2379    2.6809 H         1 A7D         0.2100
     33 H8         14.9143    6.5795    0.5081 H         1 A7D         0.2101
     34 H9         13.6210    8.2357    9.4010 H         1 A7D         0.0583
     35 H10        15.3417    7.8918    9.7850 H         1 A7D         0.0583
     36 H11        13.9182    8.7428    4.8202 H         1 A7D         0.0377
     37 H12        15.6747    8.6781    5.1909 H         1 A7D         0.0377
     38 H13        13.3465    9.4712    6.9502 H         1 A7D         0.0299
     39 H14        14.9139   10.3118    7.2024 H         1 A7D         0.0299
     40 H15        15.9257    9.7116    2.6888 H         1 A7D         0.0402
     41 H16        15.6141   11.4310    2.2727 H         1 A7D         0.0402
     42 H17        14.3449    7.3233    7.3930 H         1 A7D         0.0616
     43 H18        14.4157    8.0763    2.7179 H         1 A7D         0.0647
     44 H19        15.6518    8.7889    0.6634 H         1 A7D         0.0676
     45 H20        13.0214   10.4610    2.6938 H         1 A7D         0.0632
     46 H21        12.8025    9.3125   -0.4693 H         1 A7D         0.0996
@<TRIPOS>BOND
     1    2    1 ar 
     2    6    1 ar 
     3    3    2 ar 
     4    4    3 ar 
     5    4    5 ar 
     6   10    4 1  
     7    5    6 ar 
     8    8    5 1  
     9    6    7 1  
    10    9    8 2  
    11   10    9 1  
    12   25   10 1  
    13   15   11 1  
    14   21   12 1  
    15   22   13 1  
    16   23   14 1  
    17   21   15 1  
    18   16   17 1  
    19   20   16 1  
    20   17   21 1  
    21   18   20 1  
    22   24   18 1  
    23   24   19 1  
    24   19   25 1  
    25   22   23 1  
    26   22   24 1  
    27   23   25 1  
    28    2   26 1  
    29    7   27 1  
    30    7   28 1  
    31    9   29 1  
    32   11   30 1  
    33   12   31 1  
    34   13   32 1  
    35   14   33 1  
    36   15   34 1  
    37   15   35 1  
    38   16   36 1  
    39   16   37 1  
    40   17   38 1  
    41   17   39 1  
    42   18   40 1  
    43   18   41 1  
    44   21   42 1  
    45   22   43 1  
    46   23   44 1  
    47   24   45 1  
    48   25   46 1  
@<TRIPOS>SUBSTRUCTURE
     1 A7D         1

