### 
### Created by X-TOOL on Mon Sep 10 21:13:02 2018
### 

@<TRIPOS>MOLECULE
3iof_ligand
   39    39     1     0     0
SMALL
GAST_HUCK


@<TRIPOS>ATOM
      1 C1          3.5910   48.7810   48.7590 C.ar      1 IFS         0.0972
      2 O1          5.1610   50.8020   47.7220 O.2       1 IFS        -0.5355
      3 P1          5.1510   49.2880   48.2010 P.3       1 IFS         0.2923
      4 S1          3.5750   45.3880   46.8610 S.3       1 IFS        -0.1627
      5 C2          3.2080   47.3310   48.8720 C.ar      1 IFS        -0.0027
      6 C3          1.9250   47.0810   49.3540 C.ar      1 IFS        -0.0511
      7 C4          1.0520   48.1170   49.7120 C.ar      1 IFS        -0.0623
      8 C5          1.4290   49.4490   49.5980 C.ar      1 IFS        -0.0604
      9 C6          2.6950   49.7780   49.1200 C.ar      1 IFS        -0.0382
     10 C7          4.0700   46.1180   48.4740 C.3       1 IFS         0.0295
     11 C101        6.8870   51.3010   50.3660 C.3       1 IFS        -0.0327
     12 C102        7.4760   46.6310   46.7740 C.3       1 IFS        -0.0327
     13 O21         5.7420   48.2740   47.1100 O.3       1 IFS        -0.2356
     14 O22         6.1360   49.1910   49.4500 O.3       1 IFS        -0.2356
     15 C81         5.9190   50.1240   50.5190 C.3       1 IFS         0.0948
     16 C82         7.1470   48.1170   46.8510 C.3       1 IFS         0.0948
     17 C91         6.0580   49.3830   51.8450 C.3       1 IFS        -0.0327
     18 C92         7.4310   48.8370   45.5490 C.3       1 IFS        -0.0327
     19 H1          3.6679   46.0826   46.1366 H         1 IFS         0.1043
     20 H2          1.5921   46.0543   49.4551 H         1 IFS         0.0574
     21 H3          0.0636   47.8743   50.0850 H         1 IFS         0.0650
     22 H4          0.7368   50.2336   49.8815 H         1 IFS         0.0576
     23 H5          2.9826   50.8192   49.0293 H         1 IFS         0.0676
     24 H6          5.1195   46.4403   48.4063 H         1 IFS         0.0555
     25 H7          3.9725   45.3474   49.2529 H         1 IFS         0.0555
     26 H8          6.7239   52.0186   51.1836 H         1 IFS         0.0259
     27 H9          6.7100   51.7983   49.4010 H         1 IFS         0.0259
     28 H10         7.9224   50.9315   50.4036 H         1 IFS         0.0259
     29 H11         8.5504   46.5032   46.5759 H         1 IFS         0.0259
     30 H12         6.8958   46.1686   45.9619 H         1 IFS         0.0259
     31 H13         7.2193   46.1486   47.7287 H         1 IFS         0.0259
     32 H14         4.8934   50.5158   50.4512 H         1 IFS         0.0664
     33 H15         7.7358   48.5739   47.6600 H         1 IFS         0.0664
     34 H16         5.3338   48.5558   51.8804 H         1 IFS         0.0259
     35 H17         5.8623   50.0774   52.6754 H         1 IFS         0.0259
     36 H18         7.0780   48.9814   51.9355 H         1 IFS         0.0259
     37 H19         7.1779   49.9021   45.6563 H         1 IFS         0.0259
     38 H20         6.8236   48.3950   44.7455 H         1 IFS         0.0259
     39 H21         8.4977   48.7369   45.2997 H         1 IFS         0.0259
@<TRIPOS>BOND
     1    3    1 1  
     2    1    5 ar 
     3    1    9 ar 
     4    3    2 2  
     5    3   13 1  
     6   14    3 1  
     7   10    4 1  
     8    5    6 ar 
     9    5   10 1  
    10    6    7 ar 
    11    8    7 ar 
    12    9    8 ar 
    13   15   11 1  
    14   16   12 1  
    15   13   16 1  
    16   14   15 1  
    17   15   17 1  
    18   16   18 1  
    19    4   19 1  
    20    6   20 1  
    21    7   21 1  
    22    8   22 1  
    23    9   23 1  
    24   10   24 1  
    25   10   25 1  
    26   11   26 1  
    27   11   27 1  
    28   11   28 1  
    29   12   29 1  
    30   12   30 1  
    31   12   31 1  
    32   15   32 1  
    33   16   33 1  
    34   17   34 1  
    35   17   35 1  
    36   17   36 1  
    37   18   37 1  
    38   18   38 1  
    39   18   39 1  
@<TRIPOS>SUBSTRUCTURE
     1 IFS         1

