### 
### Created by X-TOOL on Mon Sep 10 21:13:01 2018
### 

@<TRIPOS>MOLECULE
3iok_ligand
   42    45     1     0     0
SMALL
GAST_HUCK


@<TRIPOS>ATOM
      1 C1         15.7800   15.8270    6.3610 C.3       1 1P6        -0.0324
      2 C2         15.4000   14.5350    5.6290 C.3       1 1P6         0.0687
      3 N4         16.2870   13.4310    6.0480 N.pl3     1 1P6        -0.2915
      4 C5         16.2050   12.1310    5.5420 C.ar      1 1P6         0.1137
      5 N6         17.1510   11.2370    5.8410 N.ar      1 1P6        -0.2682
      6 C7         17.0940    9.9920    5.3870 C.ar      1 1P6         0.0550
      7 N8         16.1120    9.5860    4.5990 N.ar      1 1P6        -0.3002
      8 C9         15.1130   10.4120    4.2540 C.ar      1 1P6         0.0217
      9 C10        15.1460   11.7240    4.7220 C.ar      1 1P6        -0.0070
     10 C11        14.0400    9.9580    3.3430 C.2       1 1P6         0.0568
     11 C12        12.9890   10.7230    2.8020 C.2       1 1P6         0.1809
     12 N13        12.6100   11.9930    2.9560 N.2       1 1P6        -0.2614
     13 C14        11.5730   12.4730    2.3000 C.2       1 1P6         0.0169
     14 C15        10.8240   11.6700    1.4320 C.2       1 1P6         0.0095
     15 C16        11.1810   10.3720    1.2850 C.2       1 1P6         0.1133
     16 N17        12.2750    9.9030    1.9670 N.pl3     1 1P6        -0.1368
     17 N18        12.8920    8.6470    1.9780 N.2       1 1P6        -0.1962
     18 C19        13.9340    8.6770    2.7790 C.2       1 1P6         0.0963
     19 N20        14.7790    7.6000    3.0340 N.pl3     1 1P6        -0.3324
     20 C21        15.4650   14.7720    4.1320 C.ar      1 1P6        -0.0220
     21 C22        16.6690   14.7280    3.4370 C.ar      1 1P6        -0.0598
     22 C23        16.6610   14.9470    2.0640 C.ar      1 1P6        -0.0348
     23 C24        15.4710   15.2130    1.3940 C.ar      1 1P6         0.1248
     24 F25        15.4740   15.4220    0.0610 F         1 1P6        -0.1893
     25 C26        14.2730   15.2480    2.0810 C.ar      1 1P6        -0.0348
     26 C27        14.2800   15.0320    3.4500 C.ar      1 1P6        -0.0598
     27 H1         15.1124   16.6402    6.0400 H         1 1P6         0.0273
     28 H2         16.8207   16.0913    6.1222 H         1 1P6         0.0273
     29 H3         15.6795   15.6768    7.4461 H         1 1P6         0.0273
     30 H4         14.3668   14.2676    5.8952 H         1 1P6         0.0711
     31 H5         17.0088   13.6311    6.7550 H         1 1P6         0.1860
     32 H6         17.8708    9.2903    5.6685 H         1 1P6         0.1046
     33 H7         14.3606   12.4215    4.4542 H         1 1P6         0.0554
     34 H8         11.2927   13.5165    2.4360 H         1 1P6         0.0997
     35 H9          9.9742   12.0794    0.8877 H         1 1P6         0.0614
     36 H10        10.6087    9.7110    0.6357 H         1 1P6         0.1378
     37 H11        14.6164    6.6962    2.5676 H         1 1P6         0.1720
     38 H12        15.5666    7.7072    3.6891 H         1 1P6         0.1720
     39 H13        17.5983   14.5263    3.9573 H         1 1P6         0.0548
     40 H14        17.5918   14.9101    1.5097 H         1 1P6         0.0587
     41 H15        13.3432   15.4411    1.5582 H         1 1P6         0.0587
     42 H16        13.3461   15.0662    3.9992 H         1 1P6         0.0548
@<TRIPOS>BOND
     1    1    2 1  
     2    2    3 1  
     3    2   20 1  
     4    3    4 1  
     5    4    5 ar 
     6    4    9 ar 
     7    5    6 ar 
     8    6    7 ar 
     9    7    8 ar 
    10    8    9 ar 
    11    8   10 1  
    12   10   11 2  
    13   10   18 1  
    14   11   12 1  
    15   11   16 1  
    16   12   13 2  
    17   13   14 1  
    18   14   15 2  
    19   15   16 1  
    20   16   17 1  
    21   17   18 2  
    22   18   19 1  
    23   20   21 ar 
    24   20   26 ar 
    25   21   22 ar 
    26   22   23 ar 
    27   23   24 1  
    28   23   25 ar 
    29   25   26 ar 
    30    1   27 1  
    31    1   28 1  
    32    1   29 1  
    33    2   30 1  
    34    3   31 1  
    35    6   32 1  
    36    9   33 1  
    37   13   34 1  
    38   14   35 1  
    39   15   36 1  
    40   19   37 1  
    41   19   38 1  
    42   21   39 1  
    43   22   40 1  
    44   25   41 1  
    45   26   42 1  
@<TRIPOS>SUBSTRUCTURE
     1 1P6         1

