### 
### Created by X-TOOL on Mon Sep 10 21:13:04 2018
### 

@<TRIPOS>MOLECULE
3ion_ligand
   64    68     1     0     0
SMALL
GAST_HUCK


@<TRIPOS>ATOM
      1 C1        -35.0370  -22.3930    5.9140 C.3       1 8H1         0.0588
      2 N1        -34.4540  -29.6610    3.3940 N.ar      1 8H1        -0.2792
      3 O1        -33.6540  -22.5660    6.2360 O.3       1 8H1        -0.3191
      4 C2        -32.9950  -23.7150    5.8680 C.ar      1 8H1         0.1303
      5 N2        -30.6630  -27.0070    4.8390 N.ar      1 8H1        -0.3060
      6 O2        -31.0670  -22.5270    6.5340 O.3       1 8H1        -0.3191
      7 C3        -33.6080  -24.8720    5.3540 C.ar      1 8H1        -0.0231
      8 N3        -32.3170  -30.6120    3.2520 N.pl3     1 8H1        -0.3147
      9 O3        -39.8730  -27.2030    2.6220 O.3       1 8H1        -0.3044
     10 C4        -32.8620  -26.0310    4.9800 C.ar      1 8H1        -0.0067
     11 N4        -38.5570  -30.5610    3.3110 N.ar      1 8H1        -0.3044
     12 C5        -33.4300  -27.2490    4.4470 C.ar      1 8H1        -0.0003
     13 N5        -41.6680  -25.4180    1.7380 N.4       1 8H1         0.2241
     14 C6        -34.8150  -27.4400    4.2250 C.ar      1 8H1        -0.0338
     15 C7        -35.3010  -28.6440    3.7030 C.ar      1 8H1         0.0382
     16 C8        -33.1210  -29.5250    3.5950 C.ar      1 8H1         0.1266
     17 C9        -32.5740  -28.3320    4.1240 C.ar      1 8H1         0.0536
     18 C10       -31.2080  -28.1310    4.3410 C.ar      1 8H1         0.0177
     19 C11       -31.4610  -25.9820    5.1510 C.ar      1 8H1         0.0269
     20 C12       -30.8580  -24.8300    5.6650 C.ar      1 8H1        -0.0174
     21 C13       -31.5980  -23.6940    6.0280 C.ar      1 8H1         0.1301
     22 C14       -29.7110  -22.4780    6.9790 C.3       1 8H1         0.0589
     23 C15       -36.7350  -28.9150    3.4550 C.ar      1 8H1         0.0127
     24 C16       -37.6740  -27.9180    3.1500 C.ar      1 8H1        -0.0039
     25 C17       -39.0250  -28.2270    2.9290 C.ar      1 8H1         0.1208
     26 C18       -39.4080  -29.5540    3.0250 C.ar      1 8H1         0.0408
     27 C19       -37.2620  -30.2150    3.5240 C.ar      1 8H1         0.0102
     28 C20       -39.4960  -25.8350    2.7970 C.3       1 8H1         0.1164
     29 C21       -40.7970  -25.0130    2.8860 C.3       1 8H1         0.0137
     30 C22       -41.6200  -25.1440    4.1940 C.3       1 8H1         0.0265
     31 C23       -41.4550  -26.4240    4.9860 C.ar      1 8H1        -0.0376
     32 C24       -42.3160  -27.5150    4.7560 C.ar      1 8H1        -0.0601
     33 C25       -42.1620  -28.7040    5.4820 C.ar      1 8H1        -0.0686
     34 C26       -41.1470  -28.8050    6.4410 C.ar      1 8H1        -0.0687
     35 C27       -40.2820  -27.7310    6.6740 C.ar      1 8H1        -0.0686
     36 C28       -40.4350  -26.5430    5.9520 C.ar      1 8H1        -0.0601
     37 H1        -35.3817  -21.4181    6.2893 H         1 8H1         0.0577
     38 H2        -35.6258  -23.1953    6.3827 H         1 8H1         0.0577
     39 H3        -35.1671  -22.4325    4.8224 H         1 8H1         0.0577
     40 H4        -34.6857  -24.8844    5.2375 H         1 8H1         0.0527
     41 H5        -31.2969  -30.5603    3.3850 H         1 8H1         0.1823
     42 H6        -32.7434  -31.4663    2.8657 H         1 8H1         0.1823
     43 H7        -41.1484  -25.3389    0.8778 H         1 8H1         0.1999
     44 H8        -42.4751  -24.8154    1.6996 H         1 8H1         0.1999
     45 H9        -41.9669  -26.3724    1.8634 H         1 8H1         0.1999
     46 H10       -35.5091  -26.6421    4.4628 H         1 8H1         0.0597
     47 H11       -30.5363  -28.9435    4.0885 H         1 8H1         0.0877
     48 H12       -29.7811  -24.8137    5.7874 H         1 8H1         0.0516
     49 H13       -29.4814  -21.4662    7.3444 H         1 8H1         0.0577
     50 H14       -29.0413  -22.7265    6.1425 H         1 8H1         0.0577
     51 H15       -29.5657  -23.2035    7.7930 H         1 8H1         0.0577
     52 H16       -37.3487  -26.8861    3.0836 H         1 8H1         0.0676
     53 H17       -40.4514  -29.7978    2.8610 H         1 8H1         0.0759
     54 H18       -36.5721  -31.0143    3.7696 H         1 8H1         0.0753
     55 H19       -38.8943  -25.4971    1.9404 H         1 8H1         0.0675
     56 H20       -38.9131  -25.7199    3.7227 H         1 8H1         0.0675
     57 H21       -40.5250  -23.9529    2.7759 H         1 8H1         0.0901
     58 H22       -42.6833  -25.0539    3.9272 H         1 8H1         0.0482
     59 H23       -41.3346  -24.3088    4.8505 H         1 8H1         0.0482
     60 H24       -43.1018  -27.4345    4.0136 H         1 8H1         0.0557
     61 H25       -42.8259  -29.5417    5.3017 H         1 8H1         0.0599
     62 H26       -41.0307  -29.7222    7.0070 H         1 8H1         0.0559
     63 H27       -39.4940  -27.8192    7.4132 H         1 8H1         0.0599
     64 H28       -39.7663  -25.7099    6.1360 H         1 8H1         0.0557
@<TRIPOS>BOND
     1    3    1 1  
     2   15    2 ar 
     3    2   16 ar 
     4    4    3 1  
     5    7    4 ar 
     6    4   21 ar 
     7   18    5 ar 
     8   19    5 ar 
     9   21    6 1  
    10    6   22 1  
    11   10    7 ar 
    12   16    8 1  
    13    9   25 1  
    14   28    9 1  
    15   12   10 ar 
    16   10   19 ar 
    17   26   11 ar 
    18   11   27 ar 
    19   14   12 ar 
    20   12   17 ar 
    21   29   13 1  
    22   15   14 ar 
    23   23   15 1  
    24   16   17 ar 
    25   17   18 ar 
    26   19   20 ar 
    27   20   21 ar 
    28   24   23 ar 
    29   23   27 ar 
    30   25   24 ar 
    31   25   26 ar 
    32   28   29 1  
    33   29   30 1  
    34   30   31 1  
    35   31   32 ar 
    36   31   36 ar 
    37   32   33 ar 
    38   33   34 ar 
    39   34   35 ar 
    40   35   36 ar 
    41    1   37 1  
    42    1   38 1  
    43    1   39 1  
    44    7   40 1  
    45    8   41 1  
    46    8   42 1  
    47   13   43 1  
    48   13   44 1  
    49   13   45 1  
    50   14   46 1  
    51   18   47 1  
    52   20   48 1  
    53   22   49 1  
    54   22   50 1  
    55   22   51 1  
    56   24   52 1  
    57   26   53 1  
    58   27   54 1  
    59   28   55 1  
    60   28   56 1  
    61   29   57 1  
    62   30   58 1  
    63   30   59 1  
    64   32   60 1  
    65   33   61 1  
    66   34   62 1  
    67   35   63 1  
    68   36   64 1  
@<TRIPOS>SUBSTRUCTURE
     1 8H1         1

