### 
### Created by X-TOOL on Mon Sep 10 21:13:04 2018
### 

@<TRIPOS>MOLECULE
3iop_ligand
   64    68     1     0     0
SMALL
GAST_HUCK


@<TRIPOS>ATOM
      1 C1        -35.0160  -22.1170    5.7780 C.3       1 8I1         0.0588
      2 N1        -34.4090  -29.3920    3.3120 N.ar      1 8I1        -0.2792
      3 O1        -33.6730  -22.3330    6.2130 O.3       1 8I1        -0.3191
      4 C2        -32.9850  -23.4560    5.8080 C.ar      1 8I1         0.1303
      5 N2        -30.6070  -26.6870    4.6760 N.ar      1 8I1        -0.3060
      6 O2        -31.0530  -22.2430    6.4380 O.3       1 8I1        -0.3191
      7 C3        -33.5820  -24.6210    5.3010 C.ar      1 8I1        -0.0231
      8 N3        -32.2640  -30.3040    3.0920 N.pl3     1 8I1        -0.3147
      9 O3        -39.7200  -26.6700    3.0140 O.3       1 8I1        -0.3044
     10 C4        -32.8260  -25.7580    4.8960 C.ar      1 8I1        -0.0067
     11 N4        -38.5830  -30.2100    3.2000 N.ar      1 8I1        -0.3044
     12 C5        -33.3890  -26.9770    4.3650 C.ar      1 8I1        -0.0003
     13 N5        -40.9920  -24.2770    2.4590 N.4       1 8I1         0.2241
     14 C6        -34.7770  -27.1910    4.1740 C.ar      1 8I1        -0.0338
     15 C7        -35.2590  -28.3940    3.6530 C.ar      1 8I1         0.0382
     16 C8        -33.0720  -29.2330    3.4730 C.ar      1 8I1         0.1266
     17 C9        -32.5240  -28.0380    4.0020 C.ar      1 8I1         0.0536
     18 C10       -31.1540  -27.8160    4.1840 C.ar      1 8I1         0.0177
     19 C11       -31.4190  -25.6820    5.0250 C.ar      1 8I1         0.0269
     20 C12       -30.8300  -24.5260    5.5340 C.ar      1 8I1        -0.0174
     21 C13       -31.5820  -23.4090    5.9290 C.ar      1 8I1         0.1301
     22 C14       -29.6560  -22.1470    6.7090 C.3       1 8I1         0.0589
     23 C15       -36.6980  -28.6630    3.4470 C.ar      1 8I1         0.0127
     24 C16       -37.6170  -27.6060    3.3140 C.ar      1 8I1        -0.0039
     25 C17       -38.9860  -27.8220    3.1250 C.ar      1 8I1         0.1208
     26 C18       -39.4160  -29.1430    3.0800 C.ar      1 8I1         0.0408
     27 C19       -37.2570  -29.9470    3.3840 C.ar      1 8I1         0.0102
     28 C20       -41.1080  -26.7130    2.6620 C.3       1 8I1         0.1164
     29 C21       -41.7770  -25.3900    3.0760 C.3       1 8I1         0.0137
     30 C22       -41.8840  -25.1040    4.5960 C.3       1 8I1         0.0265
     31 C23       -41.3940  -26.2090    5.5040 C.ar      1 8I1        -0.0376
     32 C24       -40.0870  -26.1720    6.0300 C.ar      1 8I1        -0.0601
     33 C25       -39.6290  -27.2030    6.8550 C.ar      1 8I1        -0.0686
     34 C26       -40.4690  -28.2740    7.1710 C.ar      1 8I1        -0.0687
     35 C27       -41.7680  -28.3220    6.6560 C.ar      1 8I1        -0.0686
     36 C28       -42.2340  -27.2940    5.8270 C.ar      1 8I1        -0.0601
     37 H1        -35.3920  -21.1747    6.2031 H         1 8I1         0.0577
     38 H2        -35.6495  -22.9503    6.1161 H         1 8I1         0.0577
     39 H3        -35.0410  -22.0595    4.6798 H         1 8I1         0.0577
     40 H4        -34.6619  -24.6566    5.2143 H         1 8I1         0.0527
     41 H5        -31.2410  -30.2385    3.1922 H         1 8I1         0.1823
     42 H6        -32.6903  -31.1605    2.7104 H         1 8I1         0.1823
     43 H7        -40.9057  -24.4362    1.4674 H         1 8I1         0.1999
     44 H8        -40.0744  -24.2422    2.8748 H         1 8I1         0.1999
     45 H9        -41.4667  -23.4022    2.6187 H         1 8I1         0.1999
     46 H10       -35.4774  -26.4066    4.4371 H         1 8I1         0.0597
     47 H11       -30.4784  -28.6171    3.9067 H         1 8I1         0.0877
     48 H12       -29.7508  -24.4883    5.6283 H         1 8I1         0.0516
     49 H13       -29.4276  -21.1474    7.1073 H         1 8I1         0.0577
     50 H14       -29.0902  -22.3095    5.7798 H         1 8I1         0.0577
     51 H15       -29.3727  -22.9100    7.4490 H         1 8I1         0.0577
     52 H16       -37.2507  -26.5868    3.3597 H         1 8I1         0.0676
     53 H17       -40.4743  -29.3326    2.9415 H         1 8I1         0.0759
     54 H18       -36.5869  -30.7925    3.4891 H         1 8I1         0.0753
     55 H19       -41.5942  -27.5501    3.1843 H         1 8I1         0.0675
     56 H20       -41.2078  -26.8512    1.5753 H         1 8I1         0.0675
     57 H21       -42.7975  -25.3905    2.6655 H         1 8I1         0.0901
     58 H22       -42.9420  -24.9164    4.8316 H         1 8I1         0.0482
     59 H23       -41.2943  -24.2011    4.8130 H         1 8I1         0.0482
     60 H24       -39.4338  -25.3399    5.7935 H         1 8I1         0.0557
     61 H25       -38.6202  -27.1717    7.2505 H         1 8I1         0.0599
     62 H26       -40.1130  -29.0689    7.8164 H         1 8I1         0.0559
     63 H27       -42.4157  -29.1566    6.8989 H         1 8I1         0.0599
     64 H28       -43.2430  -27.3327    5.4328 H         1 8I1         0.0557
@<TRIPOS>BOND
     1    3    1 1  
     2   15    2 ar 
     3    2   16 ar 
     4    4    3 1  
     5    7    4 ar 
     6    4   21 ar 
     7   18    5 ar 
     8   19    5 ar 
     9   21    6 1  
    10    6   22 1  
    11   10    7 ar 
    12   16    8 1  
    13    9   25 1  
    14   28    9 1  
    15   12   10 ar 
    16   10   19 ar 
    17   26   11 ar 
    18   11   27 ar 
    19   14   12 ar 
    20   12   17 ar 
    21   29   13 1  
    22   15   14 ar 
    23   23   15 1  
    24   16   17 ar 
    25   17   18 ar 
    26   19   20 ar 
    27   20   21 ar 
    28   24   23 ar 
    29   23   27 ar 
    30   25   24 ar 
    31   25   26 ar 
    32   28   29 1  
    33   29   30 1  
    34   30   31 1  
    35   31   32 ar 
    36   31   36 ar 
    37   32   33 ar 
    38   33   34 ar 
    39   34   35 ar 
    40   35   36 ar 
    41    1   37 1  
    42    1   38 1  
    43    1   39 1  
    44    7   40 1  
    45    8   41 1  
    46    8   42 1  
    47   13   43 1  
    48   13   44 1  
    49   13   45 1  
    50   14   46 1  
    51   18   47 1  
    52   20   48 1  
    53   22   49 1  
    54   22   50 1  
    55   22   51 1  
    56   24   52 1  
    57   26   53 1  
    58   27   54 1  
    59   28   55 1  
    60   28   56 1  
    61   29   57 1  
    62   30   58 1  
    63   30   59 1  
    64   32   60 1  
    65   33   61 1  
    66   34   62 1  
    67   35   63 1  
    68   36   64 1  
@<TRIPOS>SUBSTRUCTURE
     1 8I1         1

