### 
### Created by X-TOOL on Mon Sep 10 21:13:02 2018
### 

@<TRIPOS>MOLECULE
3ip5_ligand
   13    12     1     0     0
SMALL
GAST_HUCK


@<TRIPOS>ATOM
      1 N         -23.7060   16.0110   13.5480 N.4       1 ALA         0.2325
      2 CA        -24.0870   17.4200   13.5480 C.3       1 ALA         0.0255
      3 C         -23.3220   18.1620   12.4720 C.2       1 ALA         0.0841
      4 O         -23.4840   19.3790   12.3050 O.co2     1 ALA        -0.5643
      5 CB        -23.8520   18.0400   14.9170 C.3       1 ALA        -0.0095
      6 OXT       -22.5380   17.5300   11.7480 O.co2     1 ALA        -0.5643
      7 H1        -24.2190   15.5242   14.2663 H         1 ALA         0.2010
      8 H2        -22.7175   15.9302   13.7278 H         1 ALA         0.2010
      9 H3        -23.9185   15.6055   12.6500 H         1 ALA         0.2010
     10 H4        -25.1607   17.4899   13.3195 H         1 ALA         0.1021
     11 H5        -24.1452   19.1000   14.8947 H         1 ALA         0.0303
     12 H6        -22.7864   17.9598   15.1779 H         1 ALA         0.0303
     13 H7        -24.4545   17.5087   15.6685 H         1 ALA         0.0303
@<TRIPOS>BOND
     1    1    2 1  
     2    2    3 1  
     3    2    5 1  
     4    3    4 ar 
     5    3    6 ar 
     6    1    7 1  
     7    1    8 1  
     8    1    9 1  
     9    2   10 1  
    10    5   11 1  
    11    5   12 1  
    12    5   13 1  
@<TRIPOS>SUBSTRUCTURE
     1 ALA         1

