### 
### Created by X-TOOL on Mon Sep 10 21:13:03 2018
### 

@<TRIPOS>MOLECULE
3ip6_ligand
   17    17     1     0     0
SMALL
GAST_HUCK


@<TRIPOS>ATOM
      1 N          23.1980   18.7880   16.7770 N.4       1 PRO         0.2409
      2 CA         23.4530   18.5600   18.1990 C.3       1 PRO         0.0303
      3 C          23.0210   17.1730   18.6780 C.2       1 PRO         0.0845
      4 O          23.1290   16.8820   19.8780 O.co2     1 PRO        -0.5643
      5 CB         22.6240   19.6730   18.8500 C.3       1 PRO         0.0072
      6 CG         22.7480   20.8550   17.8270 C.3       1 PRO        -0.0059
      7 CD         23.2200   20.2360   16.4920 C.3       1 PRO        -0.0318
      8 OXT        22.5730   16.3380   17.8710 O.co2     1 PRO        -0.5643
      9 H1         22.2944   18.4128   16.5345 H         1 PRO         0.2030
     10 H2         23.9101   18.3286   16.2313 H         1 PRO         0.2030
     11 H3         24.5222   18.6889   18.4229 H         1 PRO         0.1025
     12 H4         23.0394   19.9533   19.8292 H         1 PRO         0.0340
     13 H5         21.5752   19.3645   18.9713 H         1 PRO         0.0340
     14 H6         23.4829   21.5911   18.1848 H         1 PRO         0.0320
     15 H7         21.7725   21.3456   17.6939 H         1 PRO         0.0320
     16 H8         22.5312   20.4890   15.6726 H         1 PRO         0.0814
     17 H9         24.2349   20.5740   16.2355 H         1 PRO         0.0814
@<TRIPOS>BOND
     1    1    2 1  
     2    1    7 1  
     3    2    3 1  
     4    2    5 1  
     5    3    4 ar 
     6    3    8 ar 
     7    5    6 1  
     8    6    7 1  
     9    1    9 1  
    10    1   10 1  
    11    2   11 1  
    12    5   12 1  
    13    5   13 1  
    14    6   14 1  
    15    6   15 1  
    16    7   16 1  
    17    7   17 1  
@<TRIPOS>SUBSTRUCTURE
     1 PRO         1

