### 
### Created by X-TOOL on Mon Sep 10 21:13:02 2018
### 

@<TRIPOS>MOLECULE
3ip9_ligand
   16    15     1     0     0
SMALL
GAST_HUCK


@<TRIPOS>ATOM
      1 N          23.2710   20.8850   16.0950 N.4       1 ABU         0.2186
      2 CA         23.2420   19.5810   16.7240 C.3       1 ABU        -0.0339
      3 CB         23.0550   19.5790   18.2340 C.3       1 ABU        -0.0011
      4 CG         23.7890   18.4570   18.9450 C.3       1 ABU         0.0050
      5 CD         23.1120   17.0970   19.0140 C.2       1 ABU         0.0350
      6 OE1        23.2950   16.4220   20.2110 O.co2     1 ABU        -0.5690
      7 OE2        22.8190   16.4840   18.0250 O.co2     1 ABU        -0.5690
      8 H1         23.3982   20.7758   15.1010 H         1 ABU         0.1994
      9 H2         24.0337   21.4241   16.4741 H         1 ABU         0.1994
     10 H3         22.4013   21.3628   16.2719 H         1 ABU         0.1994
     11 H4         24.1942   19.0773   16.5011 H         1 ABU         0.0814
     12 H5         22.4127   19.0105   16.2804 H         1 ABU         0.0814
     13 H6         21.9808   19.4807   18.4495 H         1 ABU         0.0335
     14 H7         23.4221   20.5376   18.6294 H         1 ABU         0.0335
     15 H8         23.9689   18.7864   19.9790 H         1 ABU         0.0432
     16 H9         24.7519   18.3181   18.4316 H         1 ABU         0.0432
@<TRIPOS>BOND
     1    1    2 1  
     2    2    3 1  
     3    3    4 1  
     4    4    5 1  
     5    5    6 ar 
     6    5    7 ar 
     7    1    8 1  
     8    1    9 1  
     9    1   10 1  
    10    2   11 1  
    11    2   12 1  
    12    3   13 1  
    13    3   14 1  
    14    4   15 1  
    15    4   16 1  
@<TRIPOS>SUBSTRUCTURE
     1 ABU         1

