### 
### Created by X-TOOL on Mon Sep 10 21:13:02 2018
### 

@<TRIPOS>MOLECULE
3ipa_ligand
   13    12     1     0     0
SMALL
GAST_HUCK


@<TRIPOS>ATOM
      1 N          23.2250   18.7540   16.8420 N.4       1 ALA         0.2325
      2 CA         23.4190   18.6240   18.2810 C.3       1 ALA         0.0255
      3 C          23.0750   17.2090   18.7360 C.2       1 ALA         0.0841
      4 O          23.2120   16.8440   19.9100 O.co2     1 ALA        -0.5643
      5 CB         22.5680   19.6480   19.0170 C.3       1 ALA        -0.0095
      6 OXT        22.6530   16.3910   17.9150 O.co2     1 ALA        -0.5643
      7 H1         23.4556   19.6925   16.5553 H         1 ALA         0.2010
      8 H2         22.2626   18.5599   16.6138 H         1 ALA         0.2010
      9 H3         23.8227   18.0996   16.3619 H         1 ALA         0.2010
     10 H4         24.4769   18.8174   18.5119 H         1 ALA         0.1021
     11 H5         22.7217   19.5414   20.1010 H         1 ALA         0.0303
     12 H6         21.5070   19.4820   18.7791 H         1 ALA         0.0303
     13 H7         22.8600   20.6610   18.7032 H         1 ALA         0.0303
@<TRIPOS>BOND
     1    1    2 1  
     2    2    3 1  
     3    2    5 1  
     4    3    4 ar 
     5    3    6 ar 
     6    1    7 1  
     7    1    8 1  
     8    1    9 1  
     9    2   10 1  
    10    5   11 1  
    11    5   12 1  
    12    5   13 1  
@<TRIPOS>SUBSTRUCTURE
     1 ALA         1

