### 
### Created by X-TOOL on Mon Sep 10 21:13:02 2018
### 

@<TRIPOS>MOLECULE
3ipe_ligand
   73    76     1     0     0
SMALL
GAST_HUCK


@<TRIPOS>ATOM
      1 C1          2.0170    1.4070    4.0250 C.2       1 JZE         0.0566
      2 N1          1.0780   -0.4260    6.0100 N.pl3     1 JZE        -0.2782
      3 O1          2.6260    1.7790    2.9930 O.co2     1 JZE        -0.5648
      4 CL1         0.1480    2.8100    9.8060 Cl        1 JZE        -0.0816
      5 C2          0.7810    0.5220    3.8630 C.ar      1 JZE         0.0312
      6 N2         -0.6810   -0.1870   25.8760 N.pl3     1 JZE        -0.2782
      7 O2          2.3430    1.7150    5.1920 O.co2     1 JZE        -0.5648
      8 CL2        -0.5950   -2.5610   10.3160 Cl        1 JZE        -0.0816
      9 C3          0.0580    0.6110    2.6860 C.ar      1 JZE        -0.0583
     10 O3         -0.5820    0.2940   11.1610 O.3       1 JZE        -0.3238
     11 CL3         0.2630   -2.6780   21.5040 Cl        1 JZE        -0.0816
     12 C4         -1.0740   -0.1710    2.5060 C.ar      1 JZE        -0.0707
     13 O4          0.5170    0.1710   20.5510 O.3       1 JZE        -0.3238
     14 CL4         0.2090    2.7750   21.9260 Cl        1 JZE        -0.0816
     15 C5         -1.4800   -1.0360    3.5090 C.ar      1 JZE        -0.0700
     16 O5         -1.2030    1.6910   29.3560 O.co2     1 JZE        -0.5648
     17 C6         -0.7640   -1.1260    4.6980 C.ar      1 JZE        -0.0366
     18 O6         -1.8360    1.2830   27.2700 O.co2     1 JZE        -0.5648
     19 C7          0.3630   -0.3320    4.8890 C.ar      1 JZE         0.0708
     20 C8          0.6460   -0.2350    7.2590 C.ar      1 JZE         0.0495
     21 C9          0.6190    1.0390    7.8050 C.ar      1 JZE        -0.0334
     22 C10         0.2020    1.2110    9.1210 C.ar      1 JZE         0.0593
     23 C11         0.2940   -1.3330    8.0390 C.ar      1 JZE        -0.0334
     24 C12        -0.1320   -1.1760    9.3550 C.ar      1 JZE         0.0593
     25 C13        -0.1610    0.1070    9.8890 C.ar      1 JZE         0.1078
     26 C14         0.4220    0.2390   12.1720 C.3       1 JZE         0.0684
     27 C15        -0.3510   -0.0820   13.4540 C.3       1 JZE        -0.0253
     28 C16         0.4790   -0.0070   14.7360 C.3       1 JZE        -0.0506
     29 C17        -0.4060   -0.5170   15.8820 C.3       1 JZE        -0.0529
     30 C18        -0.5200    0.4400   17.0600 C.3       1 JZE        -0.0506
     31 C19         0.2590   -0.1090   18.2500 C.3       1 JZE        -0.0253
     32 C20        -0.5100    0.0060   19.5690 C.3       1 JZE         0.0684
     33 C21         0.1980    0.0380   21.8620 C.ar      1 JZE         0.1078
     34 C22         0.0730   -1.2230   22.4500 C.ar      1 JZE         0.0593
     35 C23        -0.2350   -1.3090   23.8100 C.ar      1 JZE        -0.0334
     36 C24         0.0480    1.1930   22.6290 C.ar      1 JZE         0.0593
     37 C25        -0.2480    1.0900   23.9790 C.ar      1 JZE        -0.0334
     38 C26        -0.3750   -0.1520   24.5780 C.ar      1 JZE         0.0495
     39 C27         0.1670   -0.5450   26.8450 C.ar      1 JZE         0.0708
     40 C28         1.1630   -1.4960   26.6560 C.ar      1 JZE        -0.0366
     41 C29         2.0030   -1.8490   27.7100 C.ar      1 JZE        -0.0700
     42 C30         1.8460   -1.2480   28.9550 C.ar      1 JZE        -0.0707
     43 C31         0.8450   -0.3020   29.1490 C.ar      1 JZE        -0.0583
     44 C32         0.0080    0.0440   28.0940 C.ar      1 JZE         0.0312
     45 C33        -1.1000    1.0850   28.2640 C.2       1 JZE         0.0566
     46 H1          2.0720   -0.6729    5.9009 H         1 JZE         0.2065
     47 H2         -1.6371    0.0804   26.1504 H         1 JZE         0.2065
     48 H3          0.3762    1.2917    1.9047 H         1 JZE         0.0618
     49 H4         -1.6390   -0.1052    1.5832 H         1 JZE         0.0518
     50 H5         -2.3633   -1.6479    3.3659 H         1 JZE         0.0606
     51 H6         -1.0829   -1.8127    5.4738 H         1 JZE         0.0534
     52 H7          0.9204    1.8943    7.2112 H         1 JZE         0.0513
     53 H8          0.3527   -2.3284    7.6139 H         1 JZE         0.0513
     54 H9          0.9395    1.2056   12.2605 H         1 JZE         0.0610
     55 H10         1.1552   -0.5506   11.9508 H         1 JZE         0.0610
     56 H11        -0.7532   -1.1020   13.3654 H         1 JZE         0.0291
     57 H12        -1.1819    0.6335   13.5414 H         1 JZE         0.0291
     58 H13         0.7819    1.0328   14.9283 H         1 JZE         0.0266
     59 H14         1.3747   -0.6385   14.6422 H         1 JZE         0.0266
     60 H15         0.0164   -1.4645   16.2478 H         1 JZE         0.0265
     61 H16        -1.4159   -0.6951   15.4841 H         1 JZE         0.0265
     62 H17        -1.5784    0.5529   17.3374 H         1 JZE         0.0266
     63 H18        -0.1089    1.4198   16.7754 H         1 JZE         0.0266
     64 H19         1.2005    0.4523   18.3425 H         1 JZE         0.0291
     65 H20         0.4814   -1.1702   18.0647 H         1 JZE         0.0291
     66 H21        -1.1825    0.8763   19.5556 H         1 JZE         0.0610
     67 H22        -1.0941   -0.9058   19.7625 H         1 JZE         0.0610
     68 H23        -0.3661   -2.2809   24.2719 H         1 JZE         0.0513
     69 H24        -0.3811    1.9886   24.5705 H         1 JZE         0.0513
     70 H25         1.2865   -1.9642   25.6861 H         1 JZE         0.0534
     71 H26         2.7785   -2.5915   27.5602 H         1 JZE         0.0606
     72 H27         2.5037   -1.5170   29.7736 H         1 JZE         0.0518
     73 H28         0.7178    0.1640   30.1194 H         1 JZE         0.0618
@<TRIPOS>BOND
     1    1    3 ar 
     2    5    1 1  
     3    1    7 ar 
     4    2   19 1  
     5   20    2 1  
     6   22    4 1  
     7    5    9 ar 
     8   19    5 ar 
     9    6   38 1  
    10   39    6 1  
    11   24    8 1  
    12    9   12 ar 
    13   10   25 1  
    14   26   10 1  
    15   34   11 1  
    16   15   12 ar 
    17   13   32 1  
    18   33   13 1  
    19   36   14 1  
    20   17   15 ar 
    21   45   16 ar 
    22   19   17 ar 
    23   45   18 ar 
    24   21   20 ar 
    25   23   20 ar 
    26   22   21 ar 
    27   25   22 ar 
    28   24   23 ar 
    29   25   24 ar 
    30   27   26 1  
    31   28   27 1  
    32   29   28 1  
    33   30   29 1  
    34   31   30 1  
    35   32   31 1  
    36   34   33 ar 
    37   36   33 ar 
    38   35   34 ar 
    39   38   35 ar 
    40   37   36 ar 
    41   38   37 ar 
    42   39   40 ar 
    43   44   39 ar 
    44   40   41 ar 
    45   42   41 ar 
    46   43   42 ar 
    47   44   43 ar 
    48   44   45 1  
    49    2   46 1  
    50    6   47 1  
    51    9   48 1  
    52   12   49 1  
    53   15   50 1  
    54   17   51 1  
    55   21   52 1  
    56   23   53 1  
    57   26   54 1  
    58   26   55 1  
    59   27   56 1  
    60   27   57 1  
    61   28   58 1  
    62   28   59 1  
    63   29   60 1  
    64   29   61 1  
    65   30   62 1  
    66   30   63 1  
    67   31   64 1  
    68   31   65 1  
    69   32   66 1  
    70   32   67 1  
    71   35   68 1  
    72   37   69 1  
    73   40   70 1  
    74   41   71 1  
    75   42   72 1  
    76   43   73 1  
@<TRIPOS>SUBSTRUCTURE
     1 JZE         1

