### 
### Created by X-TOOL on Mon Sep 10 21:13:00 2018
### 

@<TRIPOS>MOLECULE
3iph_ligand
   47    50     1     0     0
SMALL
GAST_HUCK


@<TRIPOS>ATOM
      1 C1         40.7390   31.2240   32.5620 C.ar      1 G11         0.0101
      2 C2         41.9720   32.0370   32.5130 C.ar      1 G11         0.0535
      3 C3         40.6020   30.3750   33.6560 C.ar      1 G11        -0.0356
      4 C4         39.7390   31.2890   31.6010 C.ar      1 G11        -0.0279
      5 C5         42.0800   33.1910   33.2620 C.ar      1 G11        -0.0242
      6 N6         43.0270   31.6210   31.7650 N.ar      1 G11        -0.2883
      7 C7         39.5000   29.5370   33.8490 C.ar      1 G11         0.0462
      8 C8         38.6310   30.4630   31.7760 C.ar      1 G11        -0.0510
      9 C9         39.8330   32.2060   30.3860 C.3       1 G11        -0.0263
     10 C10        44.1480   32.3570   31.7360 C.ar      1 G11         0.0280
     11 C11        43.2380   33.9530   33.2410 C.ar      1 G11        -0.0246
     12 C12        39.5090   28.6770   35.0810 C.2       1 G11         0.2010
     13 C13        38.5070   29.5980   32.8750 C.ar      1 G11        -0.0460
     14 C14        44.3150   33.5330   32.4730 C.ar      1 G11         0.0751
     15 N15        38.6130   27.6400   35.1970 N.am      1 G11        -0.2840
     16 O16        40.3210   28.9230   35.9890 O.2       1 G11        -0.3876
     17 C17        45.5420   34.3580   32.4330 C.2       1 G11         0.2111
     18 C18        38.6000   26.7110   36.2870 C.3       1 G11         0.0416
     19 N19        46.4540   33.9380   31.5100 N.am      1 G11        -0.2846
     20 O20        45.6990   35.3800   33.0970 O.2       1 G11        -0.3828
     21 C21        38.2780   27.4790   37.5200 C.3       1 G11        -0.0279
     22 C22        37.2120   26.6860   36.8160 C.3       1 G11        -0.0279
     23 C23        47.7350   34.5760   31.2270 C.3       1 G11         0.0401
     24 C24        48.8060   33.6970   31.8430 C.3       1 G11         0.0153
     25 C25        49.0220   33.9820   33.2770 C.2       1 G11        -0.0786
     26 C26        50.0520   34.3630   32.2750 C.2       1 G11        -0.0786
     27 H1         41.3920   30.3629   34.3981 H         1 G11         0.0681
     28 H2         41.2453   33.5070   33.8772 H         1 G11         0.0711
     29 H3         37.8372   30.4890   31.0383 H         1 G11         0.0576
     30 H4         40.7743   32.7738   30.4271 H         1 G11         0.0412
     31 H5         38.9832   32.9044   30.3871 H         1 G11         0.0412
     32 H6         39.8095   31.6013   29.4675 H         1 G11         0.0412
     33 H7         44.9665   32.0227   31.1088 H         1 G11         0.0873
     34 H8         43.3016   34.8680   33.8188 H         1 G11         0.0778
     35 H9         37.6279   28.9704   32.9662 H         1 G11         0.0671
     36 H10        37.9289   27.5278   34.4763 H         1 G11         0.1846
     37 H11        39.2839   25.8519   36.2219 H         1 G11         0.0555
     38 H12        46.2245   33.1211   30.9809 H         1 G11         0.1846
     39 H13        38.2546   28.5784   37.4943 H         1 G11         0.0288
     40 H14        38.6617   27.1431   38.4946 H         1 G11         0.0288
     41 H15        36.8139   25.7691   37.2752 H         1 G11         0.0288
     42 H16        36.4068   27.2045   36.2748 H         1 G11         0.0288
     43 H17        47.7653   35.5803   31.6747 H         1 G11         0.0528
     44 H18        47.8876   34.6541   30.1405 H         1 G11         0.0528
     45 H19        48.8085   32.6794   31.4252 H         1 G11         0.0405
     46 H20        48.6787   33.9422   34.3097 H         1 G11         0.0576
     47 H21        51.0170   34.8072   32.0353 H         1 G11         0.0576
@<TRIPOS>BOND
     1    1    2 1  
     2    1    3 ar 
     3    1    4 ar 
     4    2    5 ar 
     5    2    6 ar 
     6    3    7 ar 
     7    4    8 ar 
     8    4    9 1  
     9    5   11 ar 
    10    6   10 ar 
    11    7   12 1  
    12    7   13 ar 
    13    8   13 ar 
    14   10   14 ar 
    15   11   14 ar 
    16   12   15 am 
    17   12   16 2  
    18   14   17 1  
    19   15   18 1  
    20   17   19 am 
    21   17   20 2  
    22   18   21 1  
    23   18   22 1  
    24   19   23 1  
    25   21   22 1  
    26   23   24 1  
    27   24   25 1  
    28   24   26 1  
    29   25   26 2  
    30    3   27 1  
    31    5   28 1  
    32    8   29 1  
    33    9   30 1  
    34    9   31 1  
    35    9   32 1  
    36   10   33 1  
    37   11   34 1  
    38   13   35 1  
    39   15   36 1  
    40   18   37 1  
    41   19   38 1  
    42   21   39 1  
    43   21   40 1  
    44   22   41 1  
    45   22   42 1  
    46   23   43 1  
    47   23   44 1  
    48   24   45 1  
    49   25   46 1  
    50   26   47 1  
@<TRIPOS>SUBSTRUCTURE
     1 G11         1

