### 
### Created by X-TOOL on Mon Sep 10 21:13:03 2018
### 

@<TRIPOS>MOLECULE
3ipq_ligand
   72    75     1     0     0
SMALL
GAST_HUCK


@<TRIPOS>ATOM
      1 O37        50.1600   16.4090   -5.4030 O.co2     1 965        -0.5664
      2 C35        50.4010   16.3250   -4.1820 C.2       1 965         0.0461
      3 O36        51.5110   16.5760   -3.7340 O.co2     1 965        -0.5664
      4 C34        49.3570   15.8960   -3.1690 C.3       1 965         0.0310
      5 C32        47.9990   16.4340   -3.5080 C.ar      1 965        -0.0390
      6 C31        47.7650   17.8060   -3.4510 C.ar      1 965        -0.0697
      7 C30        46.5030   18.2950   -3.7660 C.ar      1 965        -0.0769
      8 C29        45.4640   17.4320   -4.0960 C.ar      1 965        -0.0399
      9 C28        45.7200   16.0440   -4.1660 C.ar      1 965         0.0847
     10 O27        44.7580   15.1300   -4.4810 O.3       1 965        -0.3195
     11 C26        43.4280   15.4160   -4.9060 C.3       1 965         0.0751
     12 C25        42.9020   14.2790   -5.7560 C.3       1 965         0.0153
     13 C17        41.8150   14.7240   -6.7210 C.3       1 965        -0.0276
     14 N09        40.5000   14.9460   -6.1380 N.4       1 965         0.2507
     15 C16        40.0890   14.2170   -4.9240 C.3       1 965         0.0092
     16 C18        38.9910   14.8350   -4.0880 C.ar      1 965         0.0447
     17 C23        39.2840   16.0210   -3.4390 C.ar      1 965        -0.0262
     18 C22        38.3200   16.6180   -2.6630 C.ar      1 965        -0.0379
     19 C21        37.0720   16.0340   -2.5120 C.ar      1 965        -0.0377
     20 C20        36.7550   14.8450   -3.1620 C.ar      1 965         0.0542
     21 C19        37.7360   14.2410   -3.9460 C.ar      1 965         0.0788
     22 CL4        37.3800   12.6770   -4.7710 Cl        1 965        -0.0494
     23 C39        35.3790   14.2170   -2.9940 C.3       1 965         0.3741
     24 F41        35.5980   12.9670   -2.6130 F         1 965        -0.2217
     25 F40        34.6470   14.8240   -2.0660 F         1 965        -0.2217
     26 F42        34.6800   14.2580   -4.1380 F         1 965        -0.2217
     27 C08        39.5430   15.7540   -6.9170 C.3       1 965        -0.0086
     28 C07        40.1190   17.1340   -7.3490 C.3       1 965         0.0656
     29 C01        40.0100   18.1060   -6.2230 C.ar      1 965        -0.0238
     30 C02        41.1720   18.6150   -5.6670 C.ar      1 965        -0.0579
     31 C03        41.0810   19.5200   -4.6160 C.ar      1 965        -0.0682
     32 C04        39.8510   19.9130   -4.1140 C.ar      1 965        -0.0685
     33 C05        38.6900   19.4130   -4.6650 C.ar      1 965        -0.0682
     34 C06        38.7730   18.5110   -5.7300 C.ar      1 965        -0.0579
     35 C10        39.4520   17.6900   -8.5530 C.ar      1 965        -0.0238
     36 C15        40.2100   18.4840   -9.4100 C.ar      1 965        -0.0579
     37 C14        39.6510   19.0030  -10.5620 C.ar      1 965        -0.0682
     38 C13        38.3160   18.7660  -10.8600 C.ar      1 965        -0.0685
     39 C12        37.5510   17.9920  -10.0040 C.ar      1 965        -0.0682
     40 C11        38.1230   17.4390   -8.8560 C.ar      1 965        -0.0579
     41 C33        46.9690   15.5600   -3.8440 C.ar      1 965        -0.0306
     42 H1         49.6499   16.2683   -2.1762 H         1 965         0.0586
     43 H2         49.3100   14.7972   -3.1494 H         1 965         0.0586
     44 H3         48.5594   18.4854   -3.1638 H         1 965         0.0467
     45 H4         46.3261   19.3644   -3.7543 H         1 965         0.0572
     46 H5         44.4714   17.8185   -4.2968 H         1 965         0.0487
     47 H6         43.4256   16.3440   -5.4966 H         1 965         0.0615
     48 H7         42.7824   15.5408   -4.0242 H         1 965         0.0615
     49 H8         42.4886   13.5052   -5.0924 H         1 965         0.0343
     50 H9         43.7364   13.8574   -6.3356 H         1 965         0.0343
     51 H10        41.7140   13.9494   -7.4955 H         1 965         0.0815
     52 H11        42.1414   15.6663   -7.1852 H         1 965         0.0815
     53 H12        40.8117   15.7409   -5.6023 H         1 965         0.2052
     54 H13        40.9765   14.1151   -4.2822 H         1 965         0.0988
     55 H14        39.7460   13.2197   -5.2365 H         1 965         0.0988
     56 H15        40.2633   16.4743   -3.5415 H         1 965         0.0801
     57 H16        38.5377   17.5553   -2.1638 H         1 965         0.0683
     58 H17        36.3324   16.5102   -1.8786 H         1 965         0.0799
     59 H18        38.6474   15.9255   -6.3018 H         1 965         0.0864
     60 H19        39.2649   15.1923   -7.8209 H         1 965         0.0864
     61 H20        41.1838   16.9943   -7.5873 H         1 965         0.0672
     62 H21        42.1407   18.3112   -6.0470 H         1 965         0.0561
     63 H22        41.9878   19.9252   -4.1817 H         1 965         0.0600
     64 H23        39.8013   20.6135   -3.2882 H         1 965         0.0561
     65 H24        37.7242   19.7158   -4.2769 H         1 965         0.0600
     66 H25        37.8645   18.1231   -6.1764 H         1 965         0.0561
     67 H26        41.2459   18.6963   -9.1716 H         1 965         0.0561
     68 H27        40.2572   19.5976  -11.2358 H         1 965         0.0600
     69 H28        37.8751   19.1844  -11.7575 H         1 965         0.0561
     70 H29        36.5048   17.8146  -10.2255 H         1 965         0.0600
     71 H30        37.5271   16.8131   -8.2016 H         1 965         0.0561
     72 H31        47.1509   14.4914   -3.8523 H         1 965         0.0481
@<TRIPOS>BOND
     1    1    2 ar 
     2    2    3 ar 
     3    2    4 1  
     4    4    5 1  
     5    5    6 ar 
     6    5   41 ar 
     7    6    7 ar 
     8    7    8 ar 
     9    8    9 ar 
    10    9   10 1  
    11    9   41 ar 
    12   10   11 1  
    13   11   12 1  
    14   12   13 1  
    15   13   14 1  
    16   14   15 1  
    17   14   27 1  
    18   15   16 1  
    19   16   17 ar 
    20   16   21 ar 
    21   17   18 ar 
    22   18   19 ar 
    23   19   20 ar 
    24   20   21 ar 
    25   20   23 1  
    26   21   22 1  
    27   23   24 1  
    28   23   25 1  
    29   23   26 1  
    30   27   28 1  
    31   28   29 1  
    32   28   35 1  
    33   29   30 ar 
    34   29   34 ar 
    35   30   31 ar 
    36   31   32 ar 
    37   32   33 ar 
    38   33   34 ar 
    39   35   36 ar 
    40   35   40 ar 
    41   36   37 ar 
    42   37   38 ar 
    43   38   39 ar 
    44   39   40 ar 
    45    4   42 1  
    46    4   43 1  
    47    6   44 1  
    48    7   45 1  
    49    8   46 1  
    50   11   47 1  
    51   11   48 1  
    52   12   49 1  
    53   12   50 1  
    54   13   51 1  
    55   13   52 1  
    56   14   53 1  
    57   15   54 1  
    58   15   55 1  
    59   17   56 1  
    60   18   57 1  
    61   19   58 1  
    62   27   59 1  
    63   27   60 1  
    64   28   61 1  
    65   30   62 1  
    66   31   63 1  
    67   32   64 1  
    68   33   65 1  
    69   34   66 1  
    70   36   67 1  
    71   37   68 1  
    72   38   69 1  
    73   39   70 1  
    74   40   71 1  
    75   41   72 1  
@<TRIPOS>SUBSTRUCTURE
     1 965         1

