### 
### Created by X-TOOL on Mon Sep 10 21:13:04 2018
### 

@<TRIPOS>MOLECULE
3ips_ligand
   52    54     1     0     0
SMALL
GAST_HUCK


@<TRIPOS>ATOM
      1 C1         15.9130  -15.3580   18.8720 C.ar      1 O90        -0.0363
      2 C2         16.1810  -16.7350   18.6210 C.ar      1 O90        -0.0505
      3 C4         17.5160  -17.1980   18.6880 C.ar      1 O90         0.0455
      4 C5         18.5520  -16.3420   18.9930 C.ar      1 O90         0.0228
      5 C6         18.2860  -15.0080   19.2470 C.ar      1 O90        -0.0554
      6 C8         16.9860  -14.5190   19.1890 C.ar      1 O90        -0.0642
      7 S10        20.2350  -16.9160   19.0970 S.3       1 O90        -0.1057
      8 C11        20.7770  -16.7490   17.3790 C.3       1 O90         0.0086
      9 C14        20.8520  -15.2840   16.9830 C.3       1 O90        -0.0143
     10 C17        21.9110  -14.5760   17.8120 C.3       1 O90         0.0694
     11 O20        23.1130  -15.2010   17.4000 O.3       1 O90        -0.3234
     12 C21        24.2940  -14.9620   18.0260 C.ar      1 O90         0.0922
     13 C22        25.1840  -16.0500   17.9240 C.ar      1 O90         0.0348
     14 C23        26.4180  -15.8520   18.5280 C.ar      1 O90         0.1840
     15 C24        26.7720  -14.6880   19.1890 C.ar      1 O90         0.0296
     16 C25        25.8610  -13.6280   19.2740 C.ar      1 O90        -0.0692
     17 C27        24.6210  -13.7770   18.6840 C.ar      1 O90        -0.0426
     18 C29        28.0690  -15.0050   19.6050 C.2       1 O90         0.1566
     19 N30        28.5370  -16.2240   19.2540 N.2       1 O90        -0.0474
     20 O31        27.4150  -16.7960   18.5290 O.3       1 O90        -0.1115
     21 C32        28.8900  -14.0370   20.3720 C.3       1 O90         0.3823
     22 F33        30.2180  -14.4030   20.3480 F         1 O90        -0.2293
     23 F34        28.5420  -14.0480   21.6960 F         1 O90        -0.2293
     24 F35        28.7720  -12.7490   19.8810 F         1 O90        -0.2293
     25 C36        24.8550  -17.3300   17.1870 C.3       1 O90        -0.0194
     26 C39        24.5250  -18.4940   18.1080 C.3       1 O90        -0.0482
     27 C42        23.5110  -19.4110   17.4460 C.3       1 O90        -0.0638
     28 CL46       18.0180  -18.8310   18.4020 Cl        1 O90        -0.0780
     29 C47        14.5650  -14.6590   18.8610 C.3       1 O90         0.0305
     30 C50        13.3710  -15.3210   18.2290 C.2       1 O90         0.0453
     31 O51        13.2740  -16.4140   17.7210 O.co2     1 O90        -0.5666
     32 O52        12.2840  -14.5180   18.2720 O.co2     1 O90        -0.5666
     33 H          15.3691  -17.4215   18.3809 H         1 O90         0.0548
     34 H          19.1050  -14.3330   19.4954 H         1 O90         0.0549
     35 H          16.8000  -13.4647   19.3939 H         1 O90         0.0545
     36 H          20.0602  -17.2540   16.7315 H         1 O90         0.0401
     37 H          21.7665  -17.1943   17.2756 H         1 O90         0.0401
     38 H          19.8844  -14.8144   17.1599 H         1 O90         0.0300
     39 H          21.1139  -15.2104   15.9275 H         1 O90         0.0300
     40 H          21.7359  -14.6652   18.8841 H         1 O90         0.0611
     41 H          21.9204  -13.4979   17.6515 H         1 O90         0.0611
     42 H          26.1243  -12.7067   19.7937 H         1 O90         0.0530
     43 H          23.8954  -12.9651   18.7330 H         1 O90         0.0500
     44 H          25.7354  -17.6100   16.6085 H         1 O90         0.0396
     45 H          23.9742  -17.1376   16.5744 H         1 O90         0.0396
     46 H          24.1056  -18.1078   19.0370 H         1 O90         0.0281
     47 H          25.4355  -19.0566   18.3143 H         1 O90         0.0281
     48 H          22.5999  -18.8510   17.2351 H         1 O90         0.0231
     49 H          23.9256  -19.7969   16.5147 H         1 O90         0.0231
     50 H          23.2824  -20.2408   18.1148 H         1 O90         0.0231
     51 H          14.7291  -13.7661   18.2578 H         1 O90         0.0575
     52 H          14.2984  -14.5706   19.9142 H         1 O90         0.0575
@<TRIPOS>BOND
     1    1    2 ar 
     2    1    6 ar 
     3    1   29 1  
     4    2    3 ar 
     5    3    4 ar 
     6    3   28 1  
     7    4    5 ar 
     8    4    7 1  
     9    5    6 ar 
    10    7    8 1  
    11    8    9 1  
    12    9   10 1  
    13   10   11 1  
    14   11   12 1  
    15   12   13 ar 
    16   12   17 ar 
    17   13   14 ar 
    18   13   25 1  
    19   14   15 ar 
    20   14   20 1  
    21   15   16 ar 
    22   15   18 1  
    23   16   17 ar 
    24   18   19 2  
    25   18   21 1  
    26   19   20 1  
    27   21   22 1  
    28   21   23 1  
    29   21   24 1  
    30   25   26 1  
    31   26   27 1  
    32   29   30 1  
    33   30   31 ar 
    34   30   32 ar 
    35    2   33 1  
    36    5   34 1  
    37    6   35 1  
    38    8   36 1  
    39    8   37 1  
    40    9   38 1  
    41    9   39 1  
    42   10   40 1  
    43   10   41 1  
    44   16   42 1  
    45   17   43 1  
    46   25   44 1  
    47   25   45 1  
    48   26   46 1  
    49   26   47 1  
    50   27   48 1  
    51   27   49 1  
    52   27   50 1  
    53   29   51 1  
    54   29   52 1  
@<TRIPOS>SUBSTRUCTURE
     1 O90         1

