### 
### Created by X-TOOL on Mon Sep 10 21:13:04 2018
### 

@<TRIPOS>MOLECULE
3ipu_ligand
   57    59     1     0     0
SMALL
GAST_HUCK


@<TRIPOS>ATOM
      1 C1         23.8860  -14.6880   19.1500 C.ar      1 O40        -0.0426
      2 C2         23.4700  -16.0320   19.1380 C.ar      1 O40         0.0922
      3 C3         24.3600  -17.0880   19.4400 C.ar      1 O40         0.0348
      4 C4         25.6740  -16.7310   19.7580 C.ar      1 O40         0.1840
      5 C5         26.0380  -15.4030   19.7630 C.ar      1 O40         0.0296
      6 C6         25.1920  -14.3500   19.4710 C.ar      1 O40        -0.0692
      7 O7         26.7150  -17.5990   20.0950 O.3       1 O40        -0.1115
      8 N8         27.8470  -16.7440   20.3400 N.2       1 O40        -0.0474
      9 C9         27.4660  -15.5330   20.1340 C.2       1 O40         0.1566
     10 C10        14.3690  -15.5880   17.6990 C.ar      1 O40        -0.0376
     11 O11        22.1560  -16.3500   18.8150 O.3       1 O40        -0.3234
     12 C12        23.9350  -18.5610   19.4280 C.3       1 O40        -0.0194
     13 C13        13.1170  -15.0330   17.4190 C.ar      1 O40        -0.0614
     14 C14        28.2910  -14.2950   20.3050 C.3       1 O40         0.3823
     15 C15        21.2410  -15.3580   18.3200 C.3       1 O40         0.0703
     16 C16        11.9490  -15.6160   17.9250 C.ar      1 O40        -0.0057
     17 C17        24.2480  -19.2300   18.0580 C.3       1 O40        -0.0482
     18 C18        12.0510  -16.7680   18.7100 C.ar      1 O40        -0.0614
     19 C19        13.2990  -17.3110   18.9960 C.ar      1 O40        -0.0376
     20 C20        23.4550  -18.6030   16.8840 C.3       1 O40        -0.0638
     21 N21        18.0380  -17.3630   19.1660 N.am      1 O40        -0.2570
     22 C22        18.0530  -18.8260   19.2410 C.3       1 O40         0.0235
     23 C23        16.8560  -16.6980   18.9410 C.2       1 O40         0.2907
     24 N24        15.7010  -17.3060   18.7770 N.am      1 O40        -0.2174
     25 C26        19.9160  -16.1040   18.0520 C.3       1 O40        -0.0050
     26 C29        19.3000  -16.6170   19.3780 C.3       1 O40         0.0369
     27 O30        10.5570  -13.8300   16.9650 O.co2     1 O40        -0.5649
     28 C32        10.5940  -15.0140   17.6070 C.2       1 O40         0.0527
     29 O33        16.8760  -15.4860   18.8830 O.2       1 O40        -0.3898
     30 O34         9.5680  -15.6210   17.9250 O.co2     1 O40        -0.5649
     31 F38        29.5530  -14.6820   20.6920 F         1 O40        -0.2293
     32 F39        27.6560  -13.6020   21.2920 F         1 O40        -0.2293
     33 F40        28.3060  -13.4750   19.2090 F         1 O40        -0.2293
     34 C42        14.4840  -16.7380   18.4990 C.ar      1 O40         0.0699
     35 H1         23.1761  -13.9063   18.9050 H         1 O40         0.0500
     36 H2         25.5296  -13.3201   19.4917 H         1 O40         0.0530
     37 H3         15.2621  -15.1259   17.2942 H         1 O40         0.0510
     38 H4         22.8533  -18.6232   19.6180 H         1 O40         0.0396
     39 H5         24.4780  -19.0969   20.2205 H         1 O40         0.0396
     40 H6         13.0498  -14.1427   16.8042 H         1 O40         0.0611
     41 H7         21.6248  -14.9130   17.3901 H         1 O40         0.0611
     42 H8         21.0905  -14.5675   19.0700 H         1 O40         0.0611
     43 H9         23.9927  -20.2980   18.1228 H         1 O40         0.0281
     44 H10        25.3232  -19.1217   17.8523 H         1 O40         0.0281
     45 H11        11.1549  -17.2395   19.0969 H         1 O40         0.0611
     46 H12        13.3603  -18.1974   19.6170 H         1 O40         0.0510
     47 H13        23.7188  -19.1166   15.9477 H         1 O40         0.0231
     48 H14        23.7068  -17.5355   16.8001 H         1 O40         0.0231
     49 H15        22.3764  -18.7118   17.0705 H         1 O40         0.0231
     50 H16        19.0804  -19.1732   19.4251 H         1 O40         0.0484
     51 H17        17.6888  -19.2456   18.2916 H         1 O40         0.0484
     52 H18        17.4011  -19.1578   20.0626 H         1 O40         0.0484
     53 H19        15.7117  -18.3020   18.8657 H         1 O40         0.2270
     54 H20        20.1109  -16.9600   17.3892 H         1 O40         0.0310
     55 H21        19.2069  -15.4178   17.5659 H         1 O40         0.0310
     56 H22        20.0249  -17.2825   19.8694 H         1 O40         0.0521
     57 H23        19.0947  -15.7541   20.0286 H         1 O40         0.0521
@<TRIPOS>BOND
     1    2    1 ar 
     2    1    6 ar 
     3    2    3 ar 
     4   11    2 1  
     5    3    4 ar 
     6    3   12 1  
     7    4    5 ar 
     8    4    7 1  
     9    6    5 ar 
    10    5    9 1  
    11    7    8 1  
    12    8    9 2  
    13    9   14 1  
    14   10   13 ar 
    15   34   10 ar 
    16   15   11 1  
    17   12   17 1  
    18   13   16 ar 
    19   14   31 1  
    20   14   32 1  
    21   14   33 1  
    22   25   15 1  
    23   18   16 ar 
    24   16   28 1  
    25   17   20 1  
    26   19   18 ar 
    27   34   19 ar 
    28   21   22 1  
    29   21   23 am 
    30   26   21 1  
    31   23   24 am 
    32   23   29 2  
    33   24   34 1  
    34   25   26 1  
    35   28   27 ar 
    36   28   30 ar 
    37    1   35 1  
    38    6   36 1  
    39   10   37 1  
    40   12   38 1  
    41   12   39 1  
    42   13   40 1  
    43   15   41 1  
    44   15   42 1  
    45   17   43 1  
    46   17   44 1  
    47   18   45 1  
    48   19   46 1  
    49   20   47 1  
    50   20   48 1  
    51   20   49 1  
    52   22   50 1  
    53   22   51 1  
    54   22   52 1  
    55   24   53 1  
    56   25   54 1  
    57   25   55 1  
    58   26   56 1  
    59   26   57 1  
@<TRIPOS>SUBSTRUCTURE
     1 O40         1

