### 
### Created by X-TOOL on Mon Sep 10 21:12:59 2018
### 

@<TRIPOS>MOLECULE
3iqg_ligand
   74    75     1     0     0
SMALL
GAST_HUCK


@<TRIPOS>ATOM
      1 N          20.1290    3.6680   44.6890 N.4       1 ASN         0.2396
      2 CA         20.2480    4.4650   43.4260 C.3       1 ASN         0.0818
      3 C          20.6970    3.5960   42.2510 C.2       1 ASN         0.2292
      4 O          20.5100    3.9700   41.0880 O.2       1 ASN        -0.3905
      5 CB         21.1770    5.6770   43.6070 C.3       1 ASN         0.0972
      6 CG         22.4540    5.3390   44.3740 C.2       1 ASN         0.1813
      7 OD1        22.4830    4.4120   45.1930 O.2       1 ASN        -0.3969
      8 ND2        23.5150    6.1050   44.1250 N.am      1 ASN        -0.3006
      9 N          21.2790    2.4390   42.5680 N.am      1 TRP        -0.2598
     10 CA         21.6280    1.4290   41.5620 C.3       1 TRP         0.1353
     11 C          20.4930    0.4130   41.3700 C.2       1 TRP         0.2053
     12 O          20.5750   -0.4630   40.5000 O.2       1 TRP        -0.3942
     13 CB         22.9220    0.6900   41.9400 C.3       1 TRP         0.0042
     14 CG         24.1360    1.5680   42.1060 C.2       1 TRP        -0.0418
     15 CD1        24.2570    2.8920   41.7640 C.2       1 TRP         0.0167
     16 CD2        25.4190    1.1680   42.6240 C.ar      1 TRP        -0.0214
     17 NE1        25.5250    3.3400   42.0540 N.pl3     1 TRP        -0.2890
     18 CE2        26.2630    2.3060   42.5740 C.ar      1 TRP         0.0603
     19 CE3        25.9340   -0.0390   43.1290 C.ar      1 TRP        -0.0747
     20 CZ2        27.6010    2.2730   43.0090 C.ar      1 TRP        -0.0443
     21 CZ3        27.2640   -0.0720   43.5630 C.ar      1 TRP        -0.0792
     22 CH2        28.0800    1.0840   43.5000 C.ar      1 TRP        -0.0768
     23 N          19.4490    0.5150   42.1930 N.am      1 ASN        -0.2615
     24 CA         18.2720   -0.3360   42.0150 C.3       1 ASN         0.1475
     25 C          17.3950    0.2290   40.8910 C.2       1 ASN         0.2057
     26 O          16.4160    0.9510   41.1180 O.2       1 ASN        -0.3942
     27 CB         17.5010   -0.5310   43.3180 C.3       1 ASN         0.0773
     28 CG         16.6470   -1.7940   43.3100 C.2       1 ASN         0.1780
     29 OD1        16.9960   -2.8090   42.6800 O.2       1 ASN        -0.3970
     30 ND2        15.5160   -1.7370   44.0060 N.am      1 ASN        -0.3007
     31 N          17.7980   -0.0880   39.6650 N.am      1 ILE        -0.2691
     32 CA         17.1540    0.4080   38.4580 C.3       1 ILE         0.0969
     33 C          16.4540   -0.7850   37.7910 C.2       1 ILE         0.0604
     34 O          16.8610   -1.9300   37.9780 O.co2     1 ILE        -0.5666
     35 CB         18.2000    1.1310   37.5540 C.3       1 ILE        -0.0092
     36 CG1        18.3330    2.6010   38.0010 C.3       1 ILE        -0.0497
     37 CG2        17.8410    1.0360   36.0890 C.3       1 ILE        -0.0588
     38 CD1        19.5350    3.3640   37.4130 C.3       1 ILE        -0.0649
     39 OXT        15.4410   -0.6400   37.1060 O.co2     1 ILE        -0.5666
     40 H1         19.8320    4.2711   45.4401 H         1 ASN         0.2017
     41 H2         21.0238    3.2636   44.9167 H         1 ASN         0.2017
     42 H3         19.4511    2.9332   44.5601 H         1 ASN         0.2017
     43 H4         19.2462    4.8508   43.1863 H         1 ASN         0.1125
     44 H5         20.6324    6.4572   44.1590 H         1 ASN         0.0585
     45 H6         21.4551    6.0574   42.6131 H         1 ASN         0.0585
     46 H7         24.3791    5.9313   44.5974 H         1 ASN         0.1814
     47 H8         23.4474    6.8538   43.4656 H         1 ASN         0.1814
     48 H9         21.4857    2.2522   43.5284 H         1 TRP         0.1886
     49 H10        21.7928    1.9466   40.6055 H         1 TRP         0.0815
     50 H11        23.1382   -0.0441   41.1498 H         1 TRP         0.0397
     51 H12        22.7489    0.1649   42.8910 H         1 TRP         0.0397
     52 H13        23.4652    3.4988   41.3271 H         1 TRP         0.0795
     53 H14        25.8667    4.3001   41.9045 H         1 TRP         0.2216
     54 H15        25.3133   -0.9261   43.1811 H         1 TRP         0.0540
     55 H16        28.2303    3.1542   42.9582 H         1 TRP         0.0541
     56 H17        27.6757   -0.9958   43.9531 H         1 TRP         0.0510
     57 H18        29.1054    1.0285   43.8472 H         1 TRP         0.0530
     58 H19        19.4706    1.1799   42.9396 H         1 ASN         0.1885
     59 H20        18.6228   -1.3285   41.6957 H         1 ASN         0.0826
     60 H21        16.8439    0.3376   43.4721 H         1 ASN         0.0551
     61 H22        18.2210   -0.5978   44.1469 H         1 ASN         0.0551
     62 H23        14.9102   -2.5318   44.0416 H         1 ASN         0.1814
     63 H24        15.2709   -0.8993   44.4940 H         1 ASN         0.1814
     64 H25        18.5839   -0.6985   39.5669 H         1 ILE         0.1876
     65 H26        16.3865    1.1452   38.7362 H         1 ILE         0.0729
     66 H27        19.1732    0.6379   37.6942 H         1 ILE         0.0338
     67 H28        18.4251    2.6155   39.0970 H         1 ILE         0.0267
     68 H29        17.4161    3.1307   37.7030 H         1 ILE         0.0267
     69 H30        17.7535   -0.0220   35.8008 H         1 ILE         0.0234
     70 H31        18.6266    1.5161   35.4871 H         1 ILE         0.0234
     71 H32        16.8817    1.5446   35.9128 H         1 ILE         0.0234
     72 H33        19.5360    4.3960   37.7937 H         1 ILE         0.0230
     73 H34        19.4592    3.3781   36.3157 H         1 ILE         0.0230
     74 H35        20.4682    2.8629   37.7097 H         1 ILE         0.0230
@<TRIPOS>BOND
     1    1    2 1  
     2    2    3 1  
     3    2    5 1  
     4    3    4 2  
     5    3    9 am 
     6    5    6 1  
     7    6    7 2  
     8    6    8 am 
     9    9   10 1  
    10   10   11 1  
    11   10   13 1  
    12   11   12 2  
    13   11   23 am 
    14   13   14 1  
    15   14   15 2  
    16   14   16 1  
    17   15   17 1  
    18   16   18 ar 
    19   16   19 ar 
    20   17   18 1  
    21   18   20 ar 
    22   19   21 ar 
    23   20   22 ar 
    24   21   22 ar 
    25   23   24 1  
    26   24   25 1  
    27   24   27 1  
    28   25   26 2  
    29   25   31 am 
    30   27   28 1  
    31   28   29 2  
    32   28   30 am 
    33   31   32 1  
    34   32   33 1  
    35   32   35 1  
    36   33   34 ar 
    37   33   39 ar 
    38   35   36 1  
    39   35   37 1  
    40   36   38 1  
    41    1   40 1  
    42    1   41 1  
    43    1   42 1  
    44    2   43 1  
    45    5   44 1  
    46    5   45 1  
    47    8   46 1  
    48    8   47 1  
    49    9   48 1  
    50   10   49 1  
    51   13   50 1  
    52   13   51 1  
    53   15   52 1  
    54   17   53 1  
    55   19   54 1  
    56   20   55 1  
    57   21   56 1  
    58   22   57 1  
    59   23   58 1  
    60   24   59 1  
    61   27   60 1  
    62   27   61 1  
    63   30   62 1  
    64   30   63 1  
    65   31   64 1  
    66   32   65 1  
    67   35   66 1  
    68   36   67 1  
    69   36   68 1  
    70   37   69 1  
    71   37   70 1  
    72   37   71 1  
    73   38   72 1  
    74   38   73 1  
    75   38   74 1  
@<TRIPOS>SUBSTRUCTURE
     1 ASN         1

