### 
### Created by X-TOOL on Mon Sep 10 21:12:59 2018
### 

@<TRIPOS>MOLECULE
3iqh_ligand
   55    55     1     0     0
SMALL
GAST_HUCK


@<TRIPOS>ATOM
      1 N          20.2970    3.5360   44.1210 N.4       1 TYR         0.2392
      2 CA         19.4670    3.8070   42.9050 C.3       1 TYR         0.0730
      3 C          18.4550    2.6850   42.6430 C.2       1 TYR         0.2286
      4 O          18.6630    1.5370   43.0550 O.2       1 TYR        -0.3905
      5 CB         20.3460    4.0420   41.6630 C.3       1 TYR         0.0365
      6 CG         21.3870    2.9590   41.4110 C.ar      1 TYR        -0.0460
      7 CD1        21.0550    1.7850   40.7180 C.ar      1 TYR        -0.0684
      8 CD2        22.7030    3.1060   41.8740 C.ar      1 TYR        -0.0684
      9 CE1        22.0060    0.7920   40.4910 C.ar      1 TYR        -0.0398
     10 CE2        23.6620    2.1130   41.6580 C.ar      1 TYR        -0.0398
     11 CZ         23.3020    0.9620   40.9700 C.ar      1 TYR         0.0805
     12 OH         24.2390   -0.0150   40.7480 O.3       1 TYR        -0.3376
     13 N          17.3650    3.0320   41.9510 N.am      1 ASP        -0.2593
     14 CA         16.2510    2.1160   41.6940 C.3       1 ASP         0.1424
     15 C          16.1090    1.8090   40.1970 C.2       1 ASP         0.2051
     16 O          15.1830    2.3040   39.5500 O.2       1 ASP        -0.3943
     17 CB         14.9300    2.6980   42.2520 C.3       1 ASP         0.0406
     18 CG         14.9950    3.0120   43.7620 C.2       1 ASP         0.0393
     19 OD1        15.8830    3.7790   44.2040 O.co2     1 ASP        -0.5688
     20 OD2        14.1310    2.5070   44.5090 O.co2     1 ASP        -0.5688
     21 N          17.0040    0.9870   39.6510 N.am      1 ILE        -0.2691
     22 CA         17.0230    0.7600   38.1940 C.3       1 ILE         0.0969
     23 C          16.7090   -0.6810   37.7510 C.2       1 ILE         0.0604
     24 O          17.4310   -1.6500   38.0150 O.co2     1 ILE        -0.5666
     25 CB         18.3100    1.3370   37.5140 C.3       1 ILE        -0.0092
     26 CG1        18.4460    2.8430   37.8420 C.3       1 ILE        -0.0497
     27 CG2        18.2650    1.1100   36.0000 C.3       1 ILE        -0.0588
     28 CD1        19.7770    3.5150   37.4440 C.3       1 ILE        -0.0649
     29 OXT        15.6870   -0.8870   37.0990 O.co2     1 ILE        -0.5666
     30 H1         20.9477    4.2933   44.2593 H         1 TYR         0.2017
     31 H2         20.8056    2.6748   43.9956 H         1 TYR         0.2017
     32 H3         19.6967    3.4575   44.9269 H         1 TYR         0.2017
     33 H4         18.8994    4.7304   43.0924 H         1 TYR         0.1120
     34 H5         20.8711    5.0001   41.7902 H         1 TYR         0.0486
     35 H6         19.6888    4.0981   40.7827 H         1 TYR         0.0486
     36 H7         20.0433    1.6483   40.3536 H         1 TYR         0.0530
     37 H8         22.9811    4.0067   42.4093 H         1 TYR         0.0530
     38 H9         21.7387   -0.1059   39.9456 H         1 TYR         0.0525
     39 H10        24.6748    2.2397   42.0231 H         1 TYR         0.0525
     40 H11        23.8401   -0.7317   40.2687 H         1 TYR         0.2458
     41 H12        17.3073    3.9631   41.5909 H         1 ASP         0.1886
     42 H13        16.4594    1.1713   42.2175 H         1 ASP         0.0819
     43 H14        14.1259    1.9671   42.0811 H         1 ASP         0.0478
     44 H15        14.7013    3.6280   41.7109 H         1 ASP         0.0478
     45 H16        17.6686    0.5199   40.2342 H         1 ILE         0.1875
     46 H17        16.1907    1.3633   37.8025 H         1 ILE         0.0729
     47 H18        19.1870    0.8103   37.9182 H         1 ILE         0.0338
     48 H19        18.3235    2.9611   38.9287 H         1 ILE         0.0267
     49 H20        17.6348    3.3733   37.3217 H         1 ILE         0.0267
     50 H21        18.1683    0.0339   35.7933 H         1 ILE         0.0234
     51 H22        19.1919    1.4889   35.5447 H         1 ILE         0.0234
     52 H23        17.4025    1.6440   35.5746 H         1 ILE         0.0234
     53 H24        19.7506    4.5774   37.7278 H         1 ILE         0.0230
     54 H25        19.9202    3.4294   36.3567 H         1 ILE         0.0230
     55 H26        20.6089    3.0172   37.9638 H         1 ILE         0.0230
@<TRIPOS>BOND
     1    1    2 1  
     2    2    3 1  
     3    2    5 1  
     4    3    4 2  
     5    3   13 am 
     6    5    6 1  
     7    6    7 ar 
     8    6    8 ar 
     9    7    9 ar 
    10    8   10 ar 
    11    9   11 ar 
    12   10   11 ar 
    13   11   12 1  
    14   13   14 1  
    15   14   15 1  
    16   14   17 1  
    17   15   16 2  
    18   15   21 am 
    19   17   18 1  
    20   18   19 ar 
    21   18   20 ar 
    22   21   22 1  
    23   22   23 1  
    24   22   25 1  
    25   23   24 ar 
    26   23   29 ar 
    27   25   26 1  
    28   25   27 1  
    29   26   28 1  
    30    1   30 1  
    31    1   31 1  
    32    1   32 1  
    33    2   33 1  
    34    5   34 1  
    35    5   35 1  
    36    7   36 1  
    37    8   37 1  
    38    9   38 1  
    39   10   39 1  
    40   12   40 1  
    41   13   41 1  
    42   14   42 1  
    43   17   43 1  
    44   17   44 1  
    45   21   45 1  
    46   22   46 1  
    47   25   47 1  
    48   26   48 1  
    49   26   49 1  
    50   27   50 1  
    51   27   51 1  
    52   27   52 1  
    53   28   53 1  
    54   28   54 1  
    55   28   55 1  
@<TRIPOS>SUBSTRUCTURE
     1 TYR         1

