### 
### Created by X-TOOL on Mon Sep 10 21:13:00 2018
### 

@<TRIPOS>MOLECULE
3iqi_ligand
   65    64     1     0     0
SMALL
GAST_HUCK


@<TRIPOS>ATOM
      1 N          20.6030    6.2310   43.1260 N.4       1 ASN         0.2396
      2 CA         20.7450    4.7870   43.4690 C.3       1 ASN         0.0818
      3 C          20.6470    3.8610   42.2450 C.2       1 ASN         0.2291
      4 O          19.9280    4.1560   41.2800 O.2       1 ASN        -0.3905
      5 CB         19.7310    4.4140   44.5580 C.3       1 ASN         0.0972
      6 CG         19.4910    2.9250   44.6570 C.2       1 ASN         0.1813
      7 OD1        18.7370    2.3640   43.8720 O.2       1 ASN        -0.3969
      8 ND2        20.1120    2.2820   45.6450 N.am      1 ASN        -0.3006
      9 N          21.3750    2.7450   42.3080 N.am      1 GLU        -0.2608
     10 CA         21.5020    1.7980   41.1960 C.3       1 GLU         0.1326
     11 C          20.4330    0.6850   41.1650 C.2       1 GLU         0.2041
     12 O          20.5380   -0.2590   40.3660 O.2       1 GLU        -0.3944
     13 CB         22.9160    1.1900   41.1750 C.3       1 GLU        -0.0008
     14 CG         23.2110    0.2060   42.3130 C.3       1 GLU         0.0044
     15 CD         23.7950    0.8670   43.5580 C.2       1 GLU         0.0350
     16 OE1        23.2560    1.9010   44.0260 O.co2     1 GLU        -0.5690
     17 OE2        24.7980    0.3300   44.0830 O.co2     1 GLU        -0.5690
     18 N          19.4180    0.7820   42.0250 N.am      1 ASN        -0.2616
     19 CA         18.2830   -0.1540   41.9620 C.3       1 ASN         0.1475
     20 C          17.3090    0.2380   40.8550 C.2       1 ASN         0.2057
     21 O          16.1520    0.5940   41.0980 O.2       1 ASN        -0.3942
     22 CB         17.5580   -0.2970   43.2980 C.3       1 ASN         0.0773
     23 CG         16.7180   -1.5590   43.3670 C.2       1 ASN         0.1780
     24 OD1        17.0550   -2.5810   42.7540 O.2       1 ASN        -0.3970
     25 ND2        15.6250   -1.5010   44.1150 N.am      1 ASN        -0.3007
     26 N          17.8050    0.1290   39.6300 N.am      1 ILE        -0.2691
     27 CA         17.1240    0.5830   38.4290 C.3       1 ILE         0.0969
     28 C          16.5150   -0.6430   37.7350 C.2       1 ILE         0.0604
     29 O          15.4130   -0.6210   37.1860 O.co2     1 ILE        -0.5666
     30 CB         18.1510    1.3610   37.5510 C.3       1 ILE        -0.0092
     31 CG1        18.3860    2.7610   38.1610 C.3       1 ILE        -0.0497
     32 CG2        17.7170    1.4540   36.0900 C.3       1 ILE        -0.0588
     33 CD1        19.5790    3.5320   37.5530 C.3       1 ILE        -0.0649
     34 OXT        17.1180   -1.7090   37.7530 O.co2     1 ILE        -0.5666
     35 H1         20.6757    6.7844   43.9654 H         1 ASN         0.2017
     36 H2         19.7044    6.3877   42.6970 H         1 ASN         0.2017
     37 H3         21.3329    6.4972   42.4838 H         1 ASN         0.2017
     38 H4         21.7508    4.6490   43.8924 H         1 ASN         0.1125
     39 H5         18.7751    4.9087   44.3311 H         1 ASN         0.0585
     40 H6         20.1089    4.7732   45.5266 H         1 ASN         0.0585
     41 H7         19.9877    1.2960   45.7557 H         1 ASN         0.1814
     42 H8         20.7024    2.7855   46.2758 H         1 ASN         0.1814
     43 H9         21.8600    2.5436   43.1590 H         1 GLU         0.1885
     44 H10        21.3774    2.3793   40.2705 H         1 GLU         0.0801
     45 H11        23.6431    2.0130   41.2376 H         1 GLU         0.0330
     46 H12        23.0454    0.6581   40.2209 H         1 GLU         0.0330
     47 H13        23.9294   -0.5426   41.9476 H         1 GLU         0.0433
     48 H14        22.2717   -0.2933   42.5929 H         1 GLU         0.0433
     49 H15        19.4280    1.4996   42.7214 H         1 ASN         0.1885
     50 H16        18.6925   -1.1427   41.7076 H         1 ASN         0.0826
     51 H17        16.9002    0.5734   43.4382 H         1 ASN         0.0551
     52 H18        18.3055   -0.3255   44.1045 H         1 ASN         0.0551
     53 H19        15.0327   -2.3025   44.1979 H         1 ASN         0.1814
     54 H20        15.3928   -0.6558   44.5964 H         1 ASN         0.1814
     55 H21        18.7057   -0.2928   39.5259 H         1 ILE         0.1876
     56 H22        16.3093    1.2695   38.7029 H         1 ILE         0.0729
     57 H23        19.1037    0.8119   37.5782 H         1 ILE         0.0338
     58 H24        18.5685    2.6400   39.2390 H         1 ILE         0.0267
     59 H25        17.4760    3.3597   38.0080 H         1 ILE         0.0267
     60 H26        17.5592    0.4418   35.6893 H         1 ILE         0.0234
     61 H27        18.4994    1.9614   35.5066 H         1 ILE         0.0234
     62 H28        16.7797    2.0257   36.0216 H         1 ILE         0.0234
     63 H29        19.6710    4.5119   38.0443 H         1 ILE         0.0230
     64 H30        19.4114    3.6764   36.4755 H         1 ILE         0.0230
     65 H31        20.5039    2.9567   37.7064 H         1 ILE         0.0230
@<TRIPOS>BOND
     1    1    2 1  
     2    2    3 1  
     3    2    5 1  
     4    3    4 2  
     5    3    9 am 
     6    5    6 1  
     7    6    7 2  
     8    6    8 am 
     9    9   10 1  
    10   10   11 1  
    11   10   13 1  
    12   11   12 2  
    13   11   18 am 
    14   13   14 1  
    15   14   15 1  
    16   15   16 ar 
    17   15   17 ar 
    18   18   19 1  
    19   19   20 1  
    20   19   22 1  
    21   20   21 2  
    22   20   26 am 
    23   22   23 1  
    24   23   24 2  
    25   23   25 am 
    26   26   27 1  
    27   27   28 1  
    28   27   30 1  
    29   28   29 ar 
    30   28   34 ar 
    31   30   31 1  
    32   30   32 1  
    33   31   33 1  
    34    1   35 1  
    35    1   36 1  
    36    1   37 1  
    37    2   38 1  
    38    5   39 1  
    39    5   40 1  
    40    8   41 1  
    41    8   42 1  
    42    9   43 1  
    43   10   44 1  
    44   13   45 1  
    45   13   46 1  
    46   14   47 1  
    47   14   48 1  
    48   18   49 1  
    49   19   50 1  
    50   22   51 1  
    51   22   52 1  
    52   25   53 1  
    53   25   54 1  
    54   26   55 1  
    55   27   56 1  
    56   30   57 1  
    57   31   58 1  
    58   31   59 1  
    59   32   60 1  
    60   32   61 1  
    61   32   62 1  
    62   33   63 1  
    63   33   64 1  
    64   33   65 1  
@<TRIPOS>SUBSTRUCTURE
     1 ASN         1

