### 
### Created by X-TOOL on Mon Sep 10 21:13:04 2018
### 

@<TRIPOS>MOLECULE
3irx_ligand
   65    68     1     0     0
SMALL
GAST_HUCK


@<TRIPOS>ATOM
      1 CAA       -52.0760  -31.9410  -35.0700 C.3       1 UDR         0.0594
      2 CAB       -54.5510  -28.6040  -37.9260 C.3       1 UDR         0.0008
      3 CAC       -48.7850  -32.6170  -35.5650 C.3       1 UDR        -0.0323
      4 CAD       -52.8040  -24.4250  -36.7700 C.3       1 UDR         0.0261
      5 CAE       -46.0340  -31.5230  -43.5850 C.3       1 UDR        -0.0361
      6 CAF       -50.9360  -34.3920  -41.1970 C.3       1 UDR         0.0456
      7 OAG       -52.5660  -29.0180  -35.2730 O.2       1 UDR        -0.3726
      8 OAH       -49.6420  -35.5350  -43.5140 O.2       1 UDR        -0.3735
      9 CAI       -47.8660  -28.5630  -39.7730 C.2       1 UDR        -0.0702
     10 CAJ       -48.6710  -31.1860  -37.6480 C.ar      1 UDR        -0.0615
     11 CAK       -47.2830  -30.6730  -41.5460 C.ar      1 UDR        -0.0795
     12 CAL       -50.2420  -29.4030  -38.0450 C.ar      1 UDR        -0.0542
     13 CAM       -49.2000  -31.8380  -40.6710 C.ar      1 UDR        -0.0519
     14 CAN       -47.8910  -27.4940  -38.8810 C.3       1 UDR        -0.0196
     15 CAO       -47.8390  -26.1570  -39.6200 C.3       1 UDR        -0.0242
     16 CAP       -49.2310  -25.7600  -40.1060 C.3       1 UDR         0.0401
     17 NAQ       -50.6100  -23.5240  -37.6710 N.2       1 UDR        -0.2666
     18 NAR       -49.7270  -23.8460  -38.4700 N.2       1 UDR        -0.2664
     19 OAS       -51.0180  -31.0060  -34.8600 O.3       1 UDR        -0.3201
     20 OAT       -51.1750  -25.4910  -38.4700 O.3       1 UDR        -0.1915
     21 OAU       -48.1460  -33.7770  -43.4440 O.3       1 UDR        -0.2067
     22 SAV       -52.9600  -27.8940  -37.5650 S.3       1 UDR        -0.0562
     23 CAW       -52.1360  -28.9330  -36.4180 C.2       1 UDR         0.1844
     24 CAX       -48.4540  -29.8130  -39.6080 C.2       1 UDR        -0.0384
     25 CAY       -49.3110  -31.4850  -36.4500 C.ar      1 UDR        -0.0123
     26 CAZ       -51.5220  -24.4890  -37.6340 C.2       1 UDR         0.1905
     27 CBA       -47.1540  -31.6410  -42.5430 C.ar      1 UDR        -0.0258
     28 CBB       -49.1260  -30.1360  -38.4460 C.ar      1 UDR        -0.0426
     29 CBC       -48.3060  -30.7770  -40.6140 C.ar      1 UDR        -0.0607
     30 CBD       -50.0080  -25.0420  -39.0060 C.2       1 UDR         0.1938
     31 CBE       -50.8850  -29.7050  -36.8510 C.ar      1 UDR         0.0643
     32 CBF       -50.4130  -30.7430  -36.0490 C.ar      1 UDR         0.1120
     33 CBG       -49.2200  -34.4950  -43.0050 C.2       1 UDR         0.3669
     34 CBH       -49.0640  -32.7990  -41.6620 C.ar      1 UDR         0.0983
     35 CBI       -48.0410  -32.6970  -42.5970 C.ar      1 UDR         0.1458
     36 NBJ       -49.7580  -33.9030  -41.9450 N.am      1 UDR        -0.1991
     37 H         -52.8011  -31.5173  -35.7649 H         1 UDR         0.0578
     38 H         -51.6678  -32.8622  -35.4857 H         1 UDR         0.0578
     39 H         -52.5641  -32.1550  -34.1192 H         1 UDR         0.0578
     40 H         -54.4156  -29.5976  -38.3531 H         1 UDR         0.0367
     41 H         -55.1313  -28.6785  -37.0063 H         1 UDR         0.0367
     42 H         -55.0774  -27.9693  -38.6389 H         1 UDR         0.0367
     43 H         -48.4917  -32.2127  -34.5962 H         1 UDR         0.0368
     44 H         -49.5682  -33.3624  -35.4270 H         1 UDR         0.0368
     45 H         -47.9217  -33.0794  -36.0436 H         1 UDR         0.0368
     46 H         -52.5284  -24.3326  -35.7195 H         1 UDR         0.0486
     47 H         -53.3988  -23.5617  -37.0682 H         1 UDR         0.0486
     48 H         -53.3847  -25.3358  -36.9158 H         1 UDR         0.0486
     49 H         -45.3962  -32.4054  -43.5325 H         1 UDR         0.0366
     50 H         -46.4719  -31.4483  -44.5804 H         1 UDR         0.0366
     51 H         -45.4410  -30.6318  -43.3797 H         1 UDR         0.0366
     52 H         -51.7945  -34.4429  -41.8667 H         1 UDR         0.0550
     53 H         -50.7253  -35.3843  -40.7982 H         1 UDR         0.0550
     54 H         -51.1535  -33.7080  -40.3767 H         1 UDR         0.0550
     55 H         -47.3248  -28.4023  -40.7054 H         1 UDR         0.0695
     56 H         -47.8101  -31.7746  -37.9649 H         1 UDR         0.0535
     57 H         -46.5831  -29.8387  -41.4995 H         1 UDR         0.0385
     58 H         -50.6114  -28.5902  -38.6703 H         1 UDR         0.0563
     59 H         -50.0051  -31.9153  -39.9403 H         1 UDR         0.0391
     60 H         -47.0211  -27.5650  -38.2281 H         1 UDR         0.0465
     61 H         -48.8176  -27.5397  -38.3087 H         1 UDR         0.0465
     62 H         -47.1776  -26.2538  -40.4810 H         1 UDR         0.0323
     63 H         -47.4696  -25.3902  -38.9391 H         1 UDR         0.0323
     64 H         -49.7744  -26.6620  -40.3873 H         1 UDR         0.0524
     65 H         -49.1263  -25.0874  -40.9573 H         1 UDR         0.0524
@<TRIPOS>BOND
     1   19    1 1  
     2   22    2 1  
     3   25    3 1  
     4   26    4 1  
     5   27    5 1  
     6   36    6 1  
     7   23    7 2  
     8   33    8 2  
     9    9   14 1  
    10   24    9 2  
    11   10   25 ar 
    12   28   10 ar 
    13   27   11 ar 
    14   11   29 ar 
    15   28   12 ar 
    16   12   31 ar 
    17   29   13 ar 
    18   13   34 ar 
    19   14   15 1  
    20   15   16 1  
    21   16   30 1  
    22   18   17 1  
    23   26   17 2  
    24   30   18 2  
    25   32   19 1  
    26   20   26 1  
    27   30   20 1  
    28   33   21 1  
    29   21   35 1  
    30   23   22 1  
    31   31   23 1  
    32   24   28 1  
    33   29   24 1  
    34   25   32 ar 
    35   35   27 ar 
    36   31   32 ar 
    37   33   36 am 
    38   34   35 ar 
    39   34   36 1  
    40    1   37 1  
    41    1   38 1  
    42    1   39 1  
    43    2   40 1  
    44    2   41 1  
    45    2   42 1  
    46    3   43 1  
    47    3   44 1  
    48    3   45 1  
    49    4   46 1  
    50    4   47 1  
    51    4   48 1  
    52    5   49 1  
    53    5   50 1  
    54    5   51 1  
    55    6   52 1  
    56    6   53 1  
    57    6   54 1  
    58    9   55 1  
    59   10   56 1  
    60   11   57 1  
    61   12   58 1  
    62   13   59 1  
    63   14   60 1  
    64   14   61 1  
    65   15   62 1  
    66   15   63 1  
    67   16   64 1  
    68   16   65 1  
@<TRIPOS>SUBSTRUCTURE
     1 UDR         1

