### 
### Created by X-TOOL on Mon Sep 10 21:13:04 2018
### 

@<TRIPOS>MOLECULE
3is9_ligand
   63    64     1     0     0
SMALL
GAST_HUCK


@<TRIPOS>ATOM
      1 C1         50.0780  -28.7320   38.2230 C.ar      1 AC7        -0.0367
      2 O1         51.1610  -30.4810   35.0620 O.3       1 AC7        -0.3064
      3 C2         50.8800  -29.0920   37.0940 C.ar      1 AC7         0.1007
      4 O2         46.2770  -33.0780   43.3100 O.3       1 AC7        -0.3064
      5 C3         50.4020  -30.1070   36.1830 C.ar      1 AC7         0.1495
      6 O3         50.8840  -23.4290   36.9350 O.3       1 AC7        -0.2802
      7 C4         49.0810  -30.6380   36.3720 C.ar      1 AC7         0.1286
      8 C5         48.3140  -30.2690   37.4840 C.ar      1 AC7        -0.0272
      9 O5         52.7230  -27.4860   37.9320 O.3       1 AC7        -0.2825
     10 C6         48.7630  -29.2870   38.4090 C.ar      1 AC7        -0.0237
     11 C7         52.2600  -28.4570   36.9450 C.2       1 AC7         0.2591
     12 O7         48.4850  -34.6450   42.2630 O.3       1 AC7        -0.2825
     13 C8         47.8620  -28.8750   39.6160 C.2       1 AC7        -0.0266
     14 C9         47.3970  -27.5950   39.7910 C.2       1 AC7        -0.0700
     15 C10        46.6500  -32.0640   42.4300 C.ar      1 AC7         0.1495
     16 C11        45.9410  -30.8010   42.4270 C.ar      1 AC7         0.1286
     17 C12        46.3310  -29.7760   41.5070 C.ar      1 AC7        -0.0272
     18 C13        47.4390  -29.9640   40.6240 C.ar      1 AC7        -0.0237
     19 C14        48.1220  -31.1970   40.6590 C.ar      1 AC7        -0.0367
     20 C15        47.7750  -32.2300   41.5400 C.ar      1 AC7         0.1007
     21 C16        48.6310  -33.4810   41.4210 C.2       1 AC7         0.2591
     22 C17        47.6760  -26.4120   38.8800 C.3       1 AC7        -0.0202
     23 C18        48.8430  -25.5930   39.3880 C.3       1 AC7        -0.0235
     24 C19        49.0600  -24.3980   38.4590 C.3       1 AC7         0.0510
     25 C20        50.3360  -24.5690   37.6550 C.2       1 AC7         0.2337
     26 C21        52.1170  -23.4990   36.2090 C.3       1 AC7         0.0658
     27 C22        51.0120  -29.8900   33.7540 C.3       1 AC7         0.0641
     28 C23        45.2570  -34.0320   42.9220 C.3       1 AC7         0.0641
     29 C24        53.9920  -27.6510   38.5720 C.3       1 AC7         0.0644
     30 C25        49.1610  -35.8510   41.8700 C.3       1 AC7         0.0644
     31 O35        52.9960  -28.7190   35.9900 O.2       1 AC7        -0.3631
     32 O36        49.5160  -33.5310   40.5610 O.2       1 AC7        -0.3631
     33 O37        50.9150  -25.6540   37.5960 O.2       1 AC7        -0.3704
     34 N69        48.1740  -32.3420   34.8860 N.1       1 AC7        -0.3382
     35 N74        44.0190  -30.3670   43.9280 N.1       1 AC7        -0.3382
     36 C77        48.6020  -31.5380   35.5970 C.1       1 AC7         0.0926
     37 C82        44.9210  -30.5790   43.2150 C.1       1 AC7         0.0926
     38 H          50.4696  -28.0254   38.9547 H         1 AC7         0.0691
     39 H          47.3477  -30.7470   37.6446 H         1 AC7         0.0701
     40 H          46.7702  -27.4109   40.6636 H         1 AC7         0.0688
     41 H          45.7751  -28.8388   41.4795 H         1 AC7         0.0701
     42 H          48.9542  -31.3531   39.9725 H         1 AC7         0.0691
     43 H          46.7906  -25.7768   38.8537 H         1 AC7         0.0462
     44 H          47.9212  -26.7881   37.8867 H         1 AC7         0.0462
     45 H          49.7418  -26.2094   39.4075 H         1 AC7         0.0319
     46 H          48.6300  -25.2386   40.3965 H         1 AC7         0.0319
     47 H          49.1415  -23.4933   39.0615 H         1 AC7         0.0520
     48 H          48.2169  -24.3281   37.7717 H         1 AC7         0.0520
     49 H          52.9248  -23.7619   36.8919 H         1 AC7         0.0577
     50 H          52.0362  -24.2577   35.4306 H         1 AC7         0.0577
     51 H          52.3248  -22.5305   35.7541 H         1 AC7         0.0577
     52 H          49.9939  -30.0492   33.3986 H         1 AC7         0.0587
     53 H          51.2139  -28.8206   33.8148 H         1 AC7         0.0587
     54 H          51.7160  -30.3554   33.0641 H         1 AC7         0.0587
     55 H          44.3262  -33.5033   42.7165 H         1 AC7         0.0587
     56 H          45.5799  -34.5632   42.0267 H         1 AC7         0.0587
     57 H          45.1006  -34.7443   43.7321 H         1 AC7         0.0587
     58 H          54.0043  -28.5971   39.1131 H         1 AC7         0.0575
     59 H          54.7800  -27.6514   37.8189 H         1 AC7         0.0575
     60 H          54.1551  -26.8297   39.2698 H         1 AC7         0.0575
     61 H          48.8031  -36.1634   40.8890 H         1 AC7         0.0575
     62 H          50.2343  -35.6661   41.8247 H         1 AC7         0.0575
     63 H          48.9565  -36.6348   42.5994 H         1 AC7         0.0575
@<TRIPOS>BOND
     1    1    3 ar 
     2   10    1 ar 
     3    5    2 1  
     4    2   27 1  
     5    3    5 ar 
     6    3   11 1  
     7   15    4 1  
     8    4   28 1  
     9    7    5 ar 
    10   25    6 1  
    11    6   26 1  
    12    8    7 ar 
    13    7   36 1  
    14   10    8 ar 
    15   11    9 1  
    16    9   29 1  
    17   13   10 1  
    18   11   31 2  
    19   21   12 1  
    20   12   30 1  
    21   14   13 2  
    22   13   18 1  
    23   22   14 1  
    24   16   15 ar 
    25   20   15 ar 
    26   17   16 ar 
    27   16   37 1  
    28   18   17 ar 
    29   18   19 ar 
    30   19   20 ar 
    31   20   21 1  
    32   21   32 2  
    33   23   22 1  
    34   24   23 1  
    35   24   25 1  
    36   25   33 2  
    37   36   34 3  
    38   37   35 3  
    39    1   38 1  
    40    8   39 1  
    41   14   40 1  
    42   17   41 1  
    43   19   42 1  
    44   22   43 1  
    45   22   44 1  
    46   23   45 1  
    47   23   46 1  
    48   24   47 1  
    49   24   48 1  
    50   26   49 1  
    51   26   50 1  
    52   26   51 1  
    53   27   52 1  
    54   27   53 1  
    55   27   54 1  
    56   28   55 1  
    57   28   56 1  
    58   28   57 1  
    59   29   58 1  
    60   29   59 1  
    61   29   60 1  
    62   30   61 1  
    63   30   62 1  
    64   30   63 1  
@<TRIPOS>SUBSTRUCTURE
     1 AC7         1

