### 
### Created by X-TOOL on Mon Sep 10 21:13:00 2018
### 

@<TRIPOS>MOLECULE
3isj_ligand
   30    31     1     0     0
SMALL
GAST_HUCK


@<TRIPOS>ATOM
      1 CAA        11.0400    9.5660   -5.2060 C.3       1 A8D         0.0569
      2 CAB        14.2820   10.5410    4.7060 C.3       1 A8D         0.0779
      3 OAC        17.0380   11.3770    1.0800 O.2       1 A8D        -0.3825
      4 OAD        16.8010   10.4920    3.8290 O.2       1 A8D        -0.1511
      5 OAE        15.7360   12.7050    3.6400 O.2       1 A8D        -0.1511
      6 CAF        14.6860   10.1600   -4.7680 C.ar      1 A8D        -0.0427
      7 CAG        15.6850   10.4580   -3.8230 C.ar      1 A8D        -0.0454
      8 CAH        13.0970    9.9720   -2.9520 C.ar      1 A8D        -0.0452
      9 CAI        14.1390   10.4010   -0.7280 C.2       1 A8D        -0.0433
     10 NAJ        14.9930   10.8070    1.9470 N.am      1 A8D        -0.1567
     11 NAK        16.1710   10.7820   -1.4720 N.pl3     1 A8D        -0.2716
     12 OAL        12.4860    9.5880   -5.3440 O.3       1 A8D        -0.3292
     13 CAM        15.8730   10.9740    0.9110 C.2       1 A8D         0.2459
     14 CAN        13.3710    9.9150   -4.3520 C.ar      1 A8D         0.0753
     15 CAO        15.3970   10.7170   -0.3580 C.2       1 A8D         0.1313
     16 CAP        14.1150   10.2490   -2.0700 C.ar      1 A8D        -0.0275
     17 CAQ        15.3830   10.5020   -2.5250 C.ar      1 A8D         0.0588
     18 SAR        15.5060   11.1820    3.5930 S.o2      1 A8D         0.0581
     19 H1         10.5849    9.2680   -6.1621 H         1 A8D         0.0573
     20 H2         10.6830   10.5683   -4.9267 H         1 A8D         0.0573
     21 H3         10.7571    8.8451   -4.4248 H         1 A8D         0.0573
     22 H4         14.2081    9.4506    4.5812 H         1 A8D         0.0486
     23 H5         13.3081   11.0022    4.4851 H         1 A8D         0.0486
     24 H6         14.5710   10.7727    5.7418 H         1 A8D         0.0486
     25 H7         14.9350   10.1198   -5.8223 H         1 A8D         0.0503
     26 H8         16.7001   10.6518   -4.1502 H         1 A8D         0.0534
     27 H9         12.0916    9.7978   -2.5862 H         1 A8D         0.0449
     28 H10        13.2875   10.2877   -0.0587 H         1 A8D         0.0386
     29 H11        14.0662   10.4749    1.7718 H         1 A8D         0.2132
     30 H12        17.1761   11.0047   -1.5044 H         1 A8D         0.2240
@<TRIPOS>BOND
     1   12    1 1  
     2   18    2 1  
     3   13    3 2  
     4   18    4 2  
     5   18    5 2  
     6    7    6 ar 
     7    6   14 ar 
     8   17    7 ar 
     9    8   14 ar 
    10   16    8 ar 
    11   15    9 2  
    12    9   16 1  
    13   13   10 am 
    14   10   18 am 
    15   15   11 1  
    16   11   17 1  
    17   14   12 1  
    18   13   15 1  
    19   16   17 ar 
    20    1   19 1  
    21    1   20 1  
    22    1   21 1  
    23    2   22 1  
    24    2   23 1  
    25    2   24 1  
    26    6   25 1  
    27    7   26 1  
    28    8   27 1  
    29    9   28 1  
    30   10   29 1  
    31   11   30 1  
@<TRIPOS>SUBSTRUCTURE
     1 A8D         1

