### 
### Created by X-TOOL on Mon Sep 10 21:13:02 2018
### 

@<TRIPOS>MOLECULE
3itc_ligand
   18    17     1     0     0
SMALL
GAST_HUCK


@<TRIPOS>ATOM
      1 C1        -27.9770  -31.5900  -20.4630 C.2       1 CIT         0.0371
      2 O1        -27.5540  -30.7200  -19.7370 O.co2     1 CIT        -0.5690
      3 O2        -27.9350  -32.8590  -20.0260 O.co2     1 CIT        -0.5690
      4 C2        -28.6110  -31.3000  -21.7880 C.3       1 CIT         0.0356
      5 C3        -28.1080  -29.9680  -22.3480 C.3       1 CIT         0.1328
      6 O7        -26.6880  -29.8960  -22.4170 O.3       1 CIT        -0.3818
      7 C4        -28.6510  -29.7840  -23.7770 C.3       1 CIT         0.0356
      8 C5        -28.1970  -31.0040  -24.5490 C.2       1 CIT         0.0371
      9 O3        -27.0200  -31.2720  -24.6350 O.co2     1 CIT        -0.5690
     10 O4        -29.1260  -31.7150  -25.2040 O.co2     1 CIT        -0.5690
     11 C6        -28.7050  -28.8240  -21.5530 C.2       1 CIT         0.0796
     12 O5        -28.0020  -27.9170  -21.1660 O.co2     1 CIT        -0.5449
     13 O6        -30.0160  -28.9040  -21.2880 O.co2     1 CIT        -0.5449
     14 H1        -29.7027  -31.2498  -21.6628 H         1 CIT         0.0452
     15 H2        -28.3594  -32.1061  -22.4929 H         1 CIT         0.0452
     16 H3        -26.3640  -30.5883  -22.9812 H         1 CIT         0.2091
     17 H4        -28.2393  -28.8694  -24.2288 H         1 CIT         0.0452
     18 H5        -29.7493  -29.7248  -23.7651 H         1 CIT         0.0452
@<TRIPOS>BOND
     1    1    2 ar 
     2    1    3 ar 
     3    1    4 1  
     4    4    5 1  
     5    5    6 1  
     6    5    7 1  
     7    5   11 1  
     8    7    8 1  
     9    8    9 ar 
    10    8   10 ar 
    11   11   12 ar 
    12   11   13 ar 
    13    4   14 1  
    14    4   15 1  
    15    6   16 1  
    16    7   17 1  
    17    7   18 1  
@<TRIPOS>SUBSTRUCTURE
     1 CIT         1

