### 
### Created by X-TOOL on Sun Sep  9 21:51:20 2018
### 

@<TRIPOS>MOLECULE
3ith_ligand
   28    28     1     0     0
SMALL
GAST_HUCK


@<TRIPOS>ATOM
      1 C23        30.0670  -18.3710    7.0520 C.3       1 NON         0.0203
      2 N21        30.8750  -19.5910    7.2010 N.pl3     1 NON        -0.2940
      3 C25        30.1970  -20.8950    7.2980 C.3       1 NON         0.0203
      4 C1         32.1940  -19.5250    7.3110 C.ar      1 NON         0.1296
      5 C2         32.8740  -18.3820    6.8610 C.ar      1 NON         0.0106
      6 N6         32.8770  -20.4840    7.9340 N.ar      1 NON        -0.2305
      7 C5         34.2000  -20.3830    8.1490 C.ar      1 NON         0.2214
      8 S17        35.0530  -21.6700    8.9750 S.o2      1 NON         0.0241
      9 C29        34.6310  -23.2420    8.2540 C.3       1 NON         0.0647
     10 O27        36.4670  -21.4700    8.8670 O.2       1 NON        -0.1647
     11 O19        34.6610  -21.6770   10.4210 O.2       1 NON        -0.1647
     12 N4         34.8640  -19.2900    7.7350 N.ar      1 NON        -0.2585
     13 C3         34.2370  -18.2920    7.1030 C.ar      1 NON         0.0464
     14 C13        34.9220  -17.1420    6.7310 C.2       1 NON        -0.0379
     15 C15        36.3150  -17.1210    6.6980 C.2       1 NON        -0.0853
     16 H          30.2187  -17.7281    7.9191 H         1 NON         0.0488
     17 H          30.3721  -17.8428    6.1487 H         1 NON         0.0488
     18 H          29.0136  -18.6412    6.9782 H         1 NON         0.0488
     19 H          30.5632  -21.5530    6.5099 H         1 NON         0.0488
     20 H          30.4057  -21.3401    8.2709 H         1 NON         0.0488
     21 H          29.1222  -20.7535    7.1848 H         1 NON         0.0488
     22 H          32.3452  -17.5868    6.3356 H         1 NON         0.0663
     23 H          34.9240  -23.2492    7.2042 H         1 NON         0.0472
     24 H          35.1561  -24.0363    8.7845 H         1 NON         0.0472
     25 H          33.5554  -23.3997    8.3334 H         1 NON         0.0472
     26 H          34.3633  -16.2456    6.4618 H         1 NON         0.0653
     27 H          36.8800  -18.0138    6.9660 H         1 NON         0.0660
     28 H          36.8395  -16.2118    6.4042 H         1 NON         0.0660
@<TRIPOS>BOND
     1    1    2 1  
     2    2    3 1  
     3    2    4 1  
     4    4    5 ar 
     5    4    6 ar 
     6    5   13 ar 
     7    6    7 ar 
     8    7    8 1  
     9    7   12 ar 
    10    8    9 1  
    11    8   10 2  
    12    8   11 2  
    13   12   13 ar 
    14   13   14 1  
    15   14   15 2  
    16    1   16 1  
    17    1   17 1  
    18    1   18 1  
    19    3   19 1  
    20    3   20 1  
    21    3   21 1  
    22    5   22 1  
    23    9   23 1  
    24    9   24 1  
    25    9   25 1  
    26   14   26 1  
    27   15   27 1  
    28   15   28 1  
@<TRIPOS>SUBSTRUCTURE
     1 NON         1

