### 
### Created by X-TOOL on Mon Sep 10 21:13:00 2018
### 

@<TRIPOS>MOLECULE
3itu_ligand
   30    31     1     0     0
SMALL
GAST_HUCK


@<TRIPOS>ATOM
      1 N9         10.0430   -6.4090   -6.2220 N.pl3     1 IBM        -0.2331
      2 C8         10.5860   -6.8080   -7.4800 C.2       1 IBM         0.0869
      3 N7          9.8290   -6.3660   -8.5440 N.2       1 IBM        -0.3333
      4 C5          8.7620   -5.7220   -7.9230 C.2       1 IBM         0.1086
      5 C4          8.9470   -5.7620   -6.5670 C.2       1 IBM         0.2028
      6 N3          8.0780   -5.2310   -5.6650 N.am      1 IBM        -0.1692
      7 C2          6.9930   -4.6100   -6.0990 C.2       1 IBM         0.3262
      8 N1          6.7490   -4.4950   -7.4050 N.am      1 IBM        -0.1760
      9 C6          7.6290   -5.0500   -8.3500 C.2       1 IBM         0.2019
     10 O6          7.3730   -4.9740   -9.5670 O.2       1 IBM        -0.4078
     11 O2          6.2310   -4.1510   -5.2150 O.2       1 IBM        -0.3843
     12 C10         5.5100   -3.7990   -7.8080 C.3       1 IBM         0.0476
     13 C11         8.3260   -5.3180   -4.2240 C.3       1 IBM         0.0651
     14 C12         9.3130   -4.2460   -3.7330 C.3       1 IBM        -0.0203
     15 C13         8.9320   -2.7680   -3.9360 C.3       1 IBM        -0.0603
     16 C14         9.5970   -4.5510   -2.2470 C.3       1 IBM        -0.0603
     17 H1         10.4153   -6.5834   -5.2776 H         1 IBM         0.2397
     18 H2         11.4964   -7.3958   -7.5874 H         1 IBM         0.1123
     19 H3          4.9785   -3.4477   -6.9112 H         1 IBM         0.0539
     20 H4          4.8655   -4.4924   -8.3681 H         1 IBM         0.0539
     21 H5          5.7633   -2.9385   -8.4447 H         1 IBM         0.0539
     22 H6          8.7410   -6.3109   -3.9963 H         1 IBM         0.0599
     23 H7          7.3714   -5.1889   -3.6929 H         1 IBM         0.0599
     24 H8         10.2464   -4.3951   -4.2956 H         1 IBM         0.0320
     25 H9          9.7307   -2.1254   -3.5371 H         1 IBM         0.0233
     26 H10         7.9916   -2.5556   -3.4063 H         1 IBM         0.0233
     27 H11         8.8016   -2.5671   -5.0096 H         1 IBM         0.0233
     28 H12         9.8656   -5.6118   -2.1353 H         1 IBM         0.0233
     29 H13         8.6985   -4.3355   -1.6502 H         1 IBM         0.0233
     30 H14        10.4294   -3.9231   -1.8964 H         1 IBM         0.0233
@<TRIPOS>BOND
     1    1    2 1  
     2    1    5 1  
     3    2    3 2  
     4    3    4 1  
     5    4    5 2  
     6    4    9 1  
     7    5    6 1  
     8    6    7 am 
     9    6   13 1  
    10    7    8 am 
    11    7   11 2  
    12    8    9 am 
    13    8   12 1  
    14    9   10 2  
    15   13   14 1  
    16   14   15 1  
    17   14   16 1  
    18    1   17 1  
    19    2   18 1  
    20   12   19 1  
    21   12   20 1  
    22   12   21 1  
    23   13   22 1  
    24   13   23 1  
    25   14   24 1  
    26   15   25 1  
    27   15   26 1  
    28   15   27 1  
    29   16   28 1  
    30   16   29 1  
    31   16   30 1  
@<TRIPOS>SUBSTRUCTURE
     1 IBM         1

