### 
### Created by X-TOOL on Mon Sep 10 21:13:04 2018
### 

@<TRIPOS>MOLECULE
3itz_ligand
   46    50     1     0     0
SMALL
GAST_HUCK


@<TRIPOS>ATOM
      1 N1          1.9830   31.0080   31.0480 N.ar      1 P66        -0.2859
      2 N3         -0.4300   34.2020   30.9690 N.pl3     1 P66        -0.1316
      3 C4         -1.7040   34.3970   31.3390 C.ar      1 P66         0.1874
      4 C5         -2.7500   34.1340   30.4560 C.ar      1 P66         0.1695
      5 C6         -2.0020   34.8700   32.6210 C.ar      1 P66         0.1695
      6 C7          2.4040   32.2100   30.5850 C.ar      1 P66         0.1313
      7 C8         -4.0720   34.3380   30.8490 C.ar      1 P66        -0.0342
      8 C10        -3.3250   35.0810   33.0180 C.ar      1 P66        -0.0342
      9 C13         4.4680   30.4450   29.0390 C.ar      1 P66        -0.0166
     10 C15         6.3650   29.2370   29.9250 C.ar      1 P66        -0.0524
     11 C17         5.5340   31.2080   31.0650 C.ar      1 P66         0.0688
     12 C20         6.5090   26.9030   25.2830 C.3       1 P66        -0.0279
     13 C21         7.6190   26.1930   26.0500 C.3       1 P66        -0.0279
     14 C19         6.2440   26.3920   26.7020 C.3       1 P66         0.0417
     15 N5          6.1790   27.4270   27.7500 N.am      1 P66        -0.2832
     16 C18         5.2570   28.3990   27.7800 C.2       1 P66         0.2027
     17 O1          4.3680   28.5490   26.9400 O.2       1 P66        -0.3847
     18 C14         5.3700   29.3820   28.9560 C.ar      1 P66         0.0412
     19 C16         6.4450   30.1490   30.9780 C.ar      1 P66        -0.0511
     20 CL1         5.6770   32.3170   32.3890 Cl        1 P66        -0.0745
     21 C12         4.5390   31.3620   30.0890 C.ar      1 P66         0.0877
     22 N4          3.6590   32.3700   30.1360 N.pl3     1 P66        -0.2488
     23 N6          0.8350   30.8120   31.4770 N.ar      1 P66        -0.2781
     24 C11        -0.0950   31.7640   31.5220 C.ar      1 P66         0.0619
     25 C1          0.2200   33.0440   31.0690 C.ar      1 P66         0.1607
     26 C2          1.4950   33.2770   30.5890 C.ar      1 P66         0.0838
     27 C3          1.5160   34.5620   30.2320 C.2       1 P66         0.0382
     28 N2          0.3070   35.0760   30.4890 N.2       1 P66        -0.1766
     29 F1         -2.4870   33.6750   29.2200 F         1 P66        -0.1852
     30 C9         -4.3640   34.8150   32.1290 C.ar      1 P66        -0.0708
     31 F2         -1.0100   35.1250   33.4890 F         1 P66        -0.1852
     32 H1         -4.8785   34.1251   30.1567 H         1 P66         0.0556
     33 H2         -3.5420   35.4502   34.0138 H         1 P66         0.0556
     34 H3          3.7036   30.5593   28.2789 H         1 P66         0.0593
     35 H4          7.0729   28.4187   29.8594 H         1 P66         0.0577
     36 H5          6.0325   26.4089   24.4235 H         1 P66         0.0288
     37 H6          6.5778   27.9842   25.0926 H         1 P66         0.0288
     38 H7          8.4873   26.7623   26.4133 H         1 P66         0.0288
     39 H8          7.9420   25.1870   25.7442 H         1 P66         0.0288
     40 H9          5.5640   25.5517   26.9059 H         1 P66         0.0555
     41 H10         6.8619   27.4022   28.4801 H         1 P66         0.1848
     42 H11         7.2159   30.0369   31.7318 H         1 P66         0.0606
     43 H12         3.9559   33.3028   29.8158 H         1 P66         0.2220
     44 H13        -1.0849   31.5462   31.9062 H         1 P66         0.1058
     45 H14         2.3644   35.0969   29.8077 H         1 P66         0.0772
     46 H15        -5.3930   34.9772   32.4288 H         1 P66         0.0550
@<TRIPOS>BOND
     1    1    6 ar 
     2   23    1 ar 
     3    2    3 1  
     4   25    2 1  
     5    2   28 1  
     6    3    4 ar 
     7    3    5 ar 
     8    4    7 ar 
     9    4   29 1  
    10    5    8 ar 
    11    5   31 1  
    12    6   22 1  
    13    6   26 ar 
    14    7   30 ar 
    15    8   30 ar 
    16    9   18 ar 
    17   21    9 ar 
    18   18   10 ar 
    19   19   10 ar 
    20   11   19 ar 
    21   11   20 1  
    22   21   11 ar 
    23   13   12 1  
    24   14   12 1  
    25   14   13 1  
    26   15   14 1  
    27   16   15 am 
    28   16   17 2  
    29   18   16 1  
    30   22   21 1  
    31   24   23 ar 
    32   24   25 ar 
    33   25   26 ar 
    34   26   27 1  
    35   27   28 2  
    36    7   32 1  
    37    8   33 1  
    38    9   34 1  
    39   10   35 1  
    40   12   36 1  
    41   12   37 1  
    42   13   38 1  
    43   13   39 1  
    44   14   40 1  
    45   15   41 1  
    46   19   42 1  
    47   22   43 1  
    48   24   44 1  
    49   27   45 1  
    50   30   46 1  
@<TRIPOS>SUBSTRUCTURE
     1 P66         1

