### 
### Created by X-TOOL on Mon Sep 10 21:13:02 2018
### 

@<TRIPOS>MOLECULE
3iu7_ligand
   21    22     1     0     0
SMALL
GAST_HUCK


@<TRIPOS>ATOM
      1 OA        -35.1640  -29.4720   -4.3730 O.3       1 FCD        -0.2487
      2 CA        -34.1030  -29.6920   -3.5940 C.2       1 FCD         0.1495
      3 C         -34.0930  -29.2450   -2.2270 C.2       1 FCD         0.0931
      4 OB        -35.0930  -28.5180   -1.8160 O.co2     1 FCD        -0.5608
      5 CB        -33.0580  -30.3410   -4.3020 C.2       1 FCD        -0.0448
      6 CG        -33.5990  -30.5650   -5.5650 C.2       1 FCD        -0.0487
      7 CD        -34.8880  -30.0280   -5.5630 C.2       1 FCD         0.1250
      8 OXT       -33.1780  -29.4490   -1.3860 O.co2     1 FCD        -0.5608
      9 C1        -35.8690  -29.8390   -6.6680 C.ar      1 FCD         0.0249
     10 C2        -36.5820  -28.5880   -6.6690 C.ar      1 FCD        -0.0537
     11 C3        -37.4600  -28.3340   -7.7290 C.ar      1 FCD        -0.0635
     12 C4        -37.6930  -29.2430   -8.7520 C.ar      1 FCD        -0.0635
     13 C5        -37.0780  -30.4720   -8.7110 C.ar      1 FCD        -0.0497
     14 C6        -36.0740  -30.7170   -7.7070 C.ar      1 FCD         0.0480
     15 CL2       -35.2770  -32.2650   -7.7410 Cl        1 FCD        -0.0713
     16 H1        -32.0644  -30.6028   -3.9412 H         1 FCD         0.0419
     17 H2        -33.1086  -31.0654   -6.3987 H         1 FCD         0.0398
     18 H3        -36.4430  -27.8651   -5.8732 H         1 FCD         0.0605
     19 H4        -37.9819  -27.3842   -7.7522 H         1 FCD         0.0613
     20 H5        -38.3521  -28.9868   -9.5736 H         1 FCD         0.0598
     21 H6        -37.3444  -31.2447   -9.4230 H         1 FCD         0.0617
@<TRIPOS>BOND
     1    1    2 1  
     2    1    7 1  
     3    2    3 1  
     4    2    5 2  
     5    3    4 ar 
     6    3    8 ar 
     7    5    6 1  
     8    6    7 2  
     9    7    9 1  
    10    9   10 ar 
    11    9   14 ar 
    12   10   11 ar 
    13   11   12 ar 
    14   12   13 ar 
    15   13   14 ar 
    16   14   15 1  
    17    5   16 1  
    18    6   17 1  
    19   10   18 1  
    20   11   19 1  
    21   12   20 1  
    22   13   21 1  
@<TRIPOS>SUBSTRUCTURE
     1 FCD         1

