### 
### Created by X-TOOL on Mon Sep 10 21:13:02 2018
### 

@<TRIPOS>MOLECULE
3iu8_ligand
   22    23     1     0     0
SMALL
GAST_HUCK


@<TRIPOS>ATOM
      1 F           6.7540   46.4650    8.4770 F         1 T03        -0.1893
      2 S          10.4220   43.0520    4.4420 S.3       1 T03        -0.0229
      3 C1          9.6980   45.2510    5.7960 C.ar      1 T03        -0.0339
      4 N1          7.8540   43.0640    3.5700 N.2       1 T03        -0.2872
      5 C2         10.0570   45.4040    7.1650 C.ar      1 T03        -0.0610
      6 N2          8.0370   43.2670    1.4100 N.2       1 T03        -0.2036
      7 C3          9.0470   45.7890    8.0870 C.ar      1 T03        -0.0349
      8 N3          9.3680   43.2330    1.9050 N.pl3     1 T03        -0.1818
      9 C4          7.7320   46.0720    7.6200 C.ar      1 T03         0.1248
     10 C5          7.3720   45.9370    6.2690 C.ar      1 T03        -0.0349
     11 C6          8.3720   45.5350    5.3760 C.ar      1 T03        -0.0610
     12 C7         10.7110   44.7790    4.7380 C.3       1 T03         0.0476
     13 C8          7.1260   43.1350    2.4240 C.2       1 T03         0.0487
     14 C9          9.1430   43.1040    3.2370 C.2       1 T03         0.2072
     15 H1         11.0748   45.2312    7.4955 H         1 T03         0.0547
     16 H2          9.2769   45.8671    9.1435 H         1 T03         0.0587
     17 H3         10.2599   43.2905    1.3930 H         1 T03         0.2593
     18 H4          6.3612   46.1360    5.9318 H         1 T03         0.0587
     19 H5          8.1249   45.4369    4.3251 H         1 T03         0.0547
     20 H6         10.5710   45.3469    3.8064 H         1 T03         0.0565
     21 H7         11.7359   44.9288    5.1083 H         1 T03         0.0565
     22 H8          6.0417   43.0951    2.3314 H         1 T03         0.0831
@<TRIPOS>BOND
     1    9    1 1  
     2   12    2 1  
     3    2   14 1  
     4    5    3 ar 
     5    3   11 ar 
     6    3   12 1  
     7    4   13 1  
     8   14    4 2  
     9    7    5 ar 
    10    6    8 1  
    11   13    6 2  
    12    7    9 ar 
    13    8   14 1  
    14    9   10 ar 
    15   10   11 ar 
    16    5   15 1  
    17    7   16 1  
    18    8   17 1  
    19   10   18 1  
    20   11   19 1  
    21   12   20 1  
    22   12   21 1  
    23   13   22 1  
@<TRIPOS>SUBSTRUCTURE
     1 T03         1

