### 
### Created by X-TOOL on Mon Sep 10 21:13:02 2018
### 

@<TRIPOS>MOLECULE
3iu9_ligand
   24    25     1     0     0
SMALL
GAST_HUCK


@<TRIPOS>ATOM
      1 S         -10.8170   43.8280   -4.3810 S.3       1 T07        -0.0233
      2 C1         -9.9410   49.1270   -3.9830 C.ar      1 T07         0.0335
      3 N1         -8.1450   43.8390   -3.7660 N.2       1 T07        -0.2681
      4 CL1        -7.7360   46.7360   -6.2830 Cl        1 T07        -0.0771
      5 C2         -9.0700   47.3530   -5.2420 C.ar      1 T07         0.0428
      6 N2         -8.1860   43.7230   -1.5830 N.2       1 T07        -0.2106
      7 CL2        -9.7920   50.7880   -3.4710 Cl        1 T07        -0.0770
      8 C3        -10.0750   46.5420   -4.8600 C.ar      1 T07        -0.0157
      9 N3         -6.0240   43.8800   -2.5770 N.pl3     1 T07        -0.3249
     10 C4        -10.1840   45.1440   -5.4510 C.3       1 T07         0.0502
     11 N4         -9.5310   43.6660   -1.9910 N.pl3     1 T07        -0.2001
     12 C5         -8.9170   48.6720   -4.8090 C.ar      1 T07        -0.0406
     13 C6        -10.9780   47.0060   -3.8940 C.ar      1 T07        -0.0581
     14 C7        -10.8740   48.2940   -3.4900 C.ar      1 T07        -0.0544
     15 C8         -7.3950   43.8240   -2.6410 C.2       1 T07         0.1375
     16 C9         -9.4170   43.7770   -3.3170 C.2       1 T07         0.2000
     17 H1         -5.4708   43.9585   -3.4423 H         1 T07         0.1720
     18 H2         -5.5491   43.8435   -1.6637 H         1 T07         0.1720
     19 H3        -10.8500   45.2070   -6.3242 H         1 T07         0.0575
     20 H4         -9.1771   44.8459   -5.7786 H         1 T07         0.0575
     21 H5        -10.3807   43.5651   -1.4176 H         1 T07         0.2492
     22 H6         -8.0722   49.2893   -5.0922 H         1 T07         0.0612
     23 H7        -11.7382   46.3522   -3.4819 H         1 T07         0.0558
     24 H8        -11.5665   48.6662   -2.7437 H         1 T07         0.0607
@<TRIPOS>BOND
     1   10    1 1  
     2    1   16 1  
     3    2    7 1  
     4   12    2 ar 
     5    2   14 ar 
     6    3   15 1  
     7   16    3 2  
     8    5    4 1  
     9    8    5 ar 
    10    5   12 ar 
    11    6   11 1  
    12   15    6 2  
    13    8   10 1  
    14    8   13 ar 
    15   15    9 1  
    16   11   16 1  
    17   13   14 ar 
    18    9   17 1  
    19    9   18 1  
    20   10   19 1  
    21   10   20 1  
    22   11   21 1  
    23   12   22 1  
    24   13   23 1  
    25   14   24 1  
@<TRIPOS>SUBSTRUCTURE
     1 T07         1

