### 
### Created by X-TOOL on Mon Sep 10 21:13:00 2018
### 

@<TRIPOS>MOLECULE
3iub_ligand
   39    41     1     0     0
SMALL
GAST_HUCK


@<TRIPOS>ATOM
      1 CAA        10.8770    9.4100   -5.0490 C.3       1 FG2         0.0569
      2 CAB        20.1760    7.7200    4.4200 C.3       1 FG2        -0.0248
      3 OAC        16.6800   11.2270    0.9690 O.2       1 FG2        -0.3825
      4 OAD        14.1780   10.3500    4.3490 O.2       1 FG2        -0.1446
      5 OAE        15.4650   12.3990    3.7040 O.2       1 FG2        -0.1446
      6 CAF        19.1370    9.9050    4.1180 C.ar      1 FG2        -0.0388
      7 CAG        17.9810   10.6580    3.8810 C.ar      1 FG2        -0.0128
      8 CAH        14.5280    9.8560   -4.8460 C.ar      1 FG2        -0.0427
      9 CAI        15.5000   10.1140   -3.8770 C.ar      1 FG2        -0.0454
     10 CAJ        17.8180    7.8980    4.0050 C.ar      1 FG2         0.0144
     11 CAK        12.8560    9.9910   -3.1000 C.ar      1 FG2        -0.0452
     12 CAL        13.7790   10.4290   -0.8570 C.2       1 FG2        -0.0433
     13 NAM        16.6770    8.6680    3.7610 N.ar      1 FG2        -0.2775
     14 NAN        14.6890   10.6340    1.8330 N.am      1 FG2        -0.1511
     15 NAO        15.8550   10.4990   -1.4940 N.pl3     1 FG2        -0.2716
     16 OAP        12.2640    9.5650   -5.4360 O.3       1 FG2        -0.3292
     17 CAQ        15.5220   10.8470    0.7990 C.2       1 FG2         0.2463
     18 CAR        19.0480    8.5140    4.1830 C.ar      1 FG2        -0.0180
     19 CAS        13.1900    9.7990   -4.4600 C.ar      1 FG2         0.0753
     20 CAT        16.7520   10.0120    3.7060 C.ar      1 FG2         0.1797
     21 CAU        15.0480   10.6080   -0.4490 C.2       1 FG2         0.1313
     22 CAV        13.8270   10.2250   -2.1910 C.ar      1 FG2        -0.0275
     23 CAW        15.1220   10.2680   -2.5810 C.ar      1 FG2         0.0588
     24 SAX        15.2520   10.9220    3.4070 S.o2      1 FG2         0.1026
     25 H1         10.2645    9.2288   -5.9446 H         1 FG2         0.0573
     26 H2         10.5315   10.3262   -4.5478 H         1 FG2         0.0573
     27 H3         10.7814    8.5572   -4.3608 H         1 FG2         0.0573
     28 H4         21.0599    8.3643    4.5370 H         1 FG2         0.0406
     29 H5         20.3293    7.0379    3.5708 H         1 FG2         0.0406
     30 H6         20.0254    7.1339    5.3386 H         1 FG2         0.0406
     31 H7         20.0932   10.3983    4.2499 H         1 FG2         0.0678
     32 H8         18.0377   11.7395    3.8331 H         1 FG2         0.0713
     33 H9         14.8096    9.7026   -5.8815 H         1 FG2         0.0503
     34 H10        16.5447   10.1906   -4.1558 H         1 FG2         0.0534
     35 H11        17.7414    6.8179    4.0552 H         1 FG2         0.0766
     36 H12        11.8192    9.9504   -2.7863 H         1 FG2         0.0449
     37 H13        12.8866   10.4454   -0.2331 H         1 FG2         0.0386
     38 H14        13.7552   10.3119    1.6769 H         1 FG2         0.2136
     39 H15        16.8815   10.5798   -1.4694 H         1 FG2         0.2240
@<TRIPOS>BOND
     1   16    1 1  
     2   18    2 1  
     3   17    3 2  
     4   24    4 2  
     5   24    5 2  
     6    7    6 ar 
     7    6   18 ar 
     8   20    7 ar 
     9    9    8 ar 
    10    8   19 ar 
    11   23    9 ar 
    12   13   10 ar 
    13   10   18 ar 
    14   11   19 ar 
    15   22   11 ar 
    16   21   12 2  
    17   12   22 1  
    18   20   13 ar 
    19   14   17 am 
    20   24   14 am 
    21   21   15 1  
    22   15   23 1  
    23   19   16 1  
    24   17   21 1  
    25   20   24 1  
    26   22   23 ar 
    27    1   25 1  
    28    1   26 1  
    29    1   27 1  
    30    2   28 1  
    31    2   29 1  
    32    2   30 1  
    33    6   31 1  
    34    7   32 1  
    35    8   33 1  
    36    9   34 1  
    37   10   35 1  
    38   11   36 1  
    39   12   37 1  
    40   14   38 1  
    41   15   39 1  
@<TRIPOS>SUBSTRUCTURE
     1 FG2         1

