### 
### Created by X-TOOL on Mon Sep 10 21:13:02 2018
### 

@<TRIPOS>MOLECULE
3iut_ligand
   64    66     1     0     0
SMALL
GAST_HUCK


@<TRIPOS>ATOM
      1 C1          0.8790   13.3170   -1.3890 C.ar      1 KB2         0.0084
      2 N2          1.3520   14.0030   -0.3630 N.ar      1 KB2        -0.2983
      3 C3          0.8690   13.7880    0.8960 C.ar      1 KB2         0.0424
      4 C4         -0.1000   12.7710    1.1390 C.ar      1 KB2        -0.0005
      5 C5         -0.6190   12.1120    0.0280 C.ar      1 KB2        -0.0381
      6 C6         -0.0920   12.3970   -1.1990 C.ar      1 KB2        -0.0341
      7 C7         -0.5070   12.5480    2.4700 C.ar      1 KB2        -0.0417
      8 C8          0.0510   13.2680    3.5200 C.ar      1 KB2         0.0075
      9 C9          0.9910   14.2840    3.2680 C.ar      1 KB2        -0.0461
     10 C10         1.4050   14.5290    1.9630 C.ar      1 KB2        -0.0416
     11 C11        -0.3240   12.9150    4.9850 C.3       1 KB2        -0.0037
     12 N12        -0.1450   11.3910    5.1680 N.4       1 KB2         0.1860
     13 C13         0.2450   10.9200    6.5290 C.3       1 KB2        -0.0150
     14 C14         1.6060   11.5790    6.8650 C.2       1 KB2         0.0954
     15 N15         2.6520   11.4320    5.9860 N.2       1 KB2        -0.1923
     16 N16         3.6720   12.0390    6.4630 N.2       1 KB2        -0.0530
     17 N17         3.3310   12.5080    7.6110 N.pl3     1 KB2        -0.1048
     18 C18         2.0360   12.2710    7.9230 C.2       1 KB2         0.1345
     19 C19         4.3390   13.2990    8.3610 C.3       1 KB2         0.1739
     20 C20         5.1730   12.4330    9.3040 C.2       1 KB2         0.1407
     21 O21         6.4080   12.5410    9.3540 O.2       1 KB2        -0.3882
     22 C22         4.5260   11.3850   10.1020 C.3       1 KB2         0.0130
     23 C23         3.7280   14.4820    9.0420 C.3       1 KB2        -0.0007
     24 C24         3.2540   15.4900    7.9650 C.3       1 KB2        -0.0480
     25 C25         4.3970   16.1390    7.1830 C.3       1 KB2        -0.0557
     26 C26         5.0030   17.3820    7.8650 C.3       1 KB2        -0.0653
     27 C27         0.4150    9.3660    6.4580 C.3       1 KB2        -0.0320
     28 C28        -0.8250    8.5920    6.1170 C.3       1 KB2        -0.0671
     29 C29         1.0690    8.7930    7.7590 C.3       1 KB2        -0.0671
     30 C30        -0.8650   11.3220    7.5520 C.3       1 KB2        -0.0499
     31 H           1.2729   13.4938   -2.3899 H         1 KB2         0.0846
     32 H          -1.4257   11.3868    0.1349 H         1 KB2         0.0752
     33 H          -0.4726   11.8569   -2.0659 H         1 KB2         0.0687
     34 H          -1.2711   11.7994    2.6791 H         1 KB2         0.0564
     35 H           1.3925   14.8757    4.0907 H         1 KB2         0.0623
     36 H           2.1497   15.3004    1.7667 H         1 KB2         0.0640
     37 H          -1.3558   13.2008    5.1896 H         1 KB2         0.0987
     38 H           0.3183   13.4563    5.6797 H         1 KB2         0.0987
     39 H           0.6190   11.1217    4.5481 H         1 KB2         0.1974
     40 H          -1.0574   10.9764    4.9782 H         1 KB2         0.1974
     41 H           1.4830   12.5697    8.8136 H         1 KB2         0.1589
     42 H           5.0395   13.6979    7.6273 H         1 KB2         0.0950
     43 H           4.9028   10.4100    9.7929 H         1 KB2         0.0460
     44 H           4.7484   11.5441   11.1571 H         1 KB2         0.0460
     45 H           3.4479   11.4252    9.9465 H         1 KB2         0.0460
     46 H           4.4647   14.9551    9.6913 H         1 KB2         0.0325
     47 H           2.8795   14.1620    9.6467 H         1 KB2         0.0325
     48 H           2.7176   16.2874    8.4792 H         1 KB2         0.0268
     49 H           2.6424   14.9392    7.2504 H         1 KB2         0.0268
     50 H           3.9883   16.4641    6.2262 H         1 KB2         0.0263
     51 H           5.1919   15.3977    7.1003 H         1 KB2         0.0263
     52 H           4.2294   18.1396    7.9901 H         1 KB2         0.0230
     53 H           5.4004   17.1021    8.8406 H         1 KB2         0.0230
     54 H           5.8061   17.7799    7.2447 H         1 KB2         0.0230
     55 H           1.0876    9.2213    5.6126 H         1 KB2         0.0229
     56 H          -1.5895    8.7829    6.8701 H         1 KB2         0.0225
     57 H          -1.1901    8.9057    5.1391 H         1 KB2         0.0225
     58 H          -0.5926    7.5273    6.0951 H         1 KB2         0.0225
     59 H           2.0537    9.2397    7.8962 H         1 KB2         0.0225
     60 H           0.4384    9.0301    8.6159 H         1 KB2         0.0225
     61 H           1.1688    7.7114    7.6679 H         1 KB2         0.0225
     62 H          -0.9760   12.4063    7.5583 H         1 KB2         0.0162
     63 H          -1.8089   10.8605    7.2620 H         1 KB2         0.0162
     64 H          -0.5818   10.9787    8.5470 H         1 KB2         0.0162
@<TRIPOS>BOND
     1    1    2 ar 
     2    1    6 ar 
     3    2    3 ar 
     4    3    4 ar 
     5    3   10 ar 
     6    4    5 ar 
     7    4    7 ar 
     8    5    6 ar 
     9    7    8 ar 
    10    8    9 ar 
    11    8   11 1  
    12    9   10 ar 
    13   11   12 1  
    14   12   13 1  
    15   13   14 1  
    16   13   27 1  
    17   13   30 1  
    18   14   15 1  
    19   14   18 2  
    20   15   16 2  
    21   16   17 1  
    22   17   18 1  
    23   17   19 1  
    24   19   20 1  
    25   19   23 1  
    26   20   21 2  
    27   20   22 1  
    28   23   24 1  
    29   24   25 1  
    30   25   26 1  
    31   27   28 1  
    32   27   29 1  
    33    1   31 1  
    34    5   32 1  
    35    6   33 1  
    36    7   34 1  
    37    9   35 1  
    38   10   36 1  
    39   11   37 1  
    40   11   38 1  
    41   12   39 1  
    42   12   40 1  
    43   18   41 1  
    44   19   42 1  
    45   22   43 1  
    46   22   44 1  
    47   22   45 1  
    48   23   46 1  
    49   23   47 1  
    50   24   48 1  
    51   24   49 1  
    52   25   50 1  
    53   25   51 1  
    54   26   52 1  
    55   26   53 1  
    56   26   54 1  
    57   27   55 1  
    58   28   56 1  
    59   28   57 1  
    60   28   58 1  
    61   29   59 1  
    62   29   60 1  
    63   29   61 1  
    64   30   62 1  
    65   30   63 1  
    66   30   64 1  
@<TRIPOS>SUBSTRUCTURE
     1 KB2         1

