### 
### Created by X-TOOL on Mon Sep 10 21:12:59 2018
### 

@<TRIPOS>MOLECULE
3ivc_ligand
   44    47     1     0     0
SMALL
GAST_HUCK


@<TRIPOS>ATOM
      1 C          17.8110   11.4290   -0.7810 C.2       1 FG4         0.0636
      2 N          15.5440   10.2960   -1.2630 N.pl3     1 FG4        -0.2438
      3 O          17.2150   12.5230   -0.6310 O.co2     1 FG4        -0.5663
      4 CA         17.0270   10.1610   -1.2120 C.3       1 FG4         0.1031
      5 CAA        10.9910    8.8770   -5.0130 C.3       1 FG4         0.0570
      6 OAC        16.0950   10.4000    1.7240 O.2       1 FG4        -0.3564
      7 CAE        13.6090    8.3450    7.8690 C.ar      1 FG4        -0.0806
      8 CAF        14.8080    7.7130    7.5610 C.ar      1 FG4        -0.0770
      9 CAG        14.3170    9.6580   -4.7160 C.ar      1 FG4        -0.0425
     10 CAH        13.1990    9.4280    7.1210 C.ar      1 FG4        -0.0766
     11 CAI        15.6100    8.1550    6.5150 C.ar      1 FG4        -0.0351
     12 CAJ        15.2710    9.7940   -3.7030 C.ar      1 FG4        -0.0450
     13 CAK        12.5850   10.1700   -3.0770 C.ar      1 FG4        -0.0450
     14 CAL        13.8240   10.8490    5.2050 C.2       1 FG4        -0.0475
     15 CAM        13.4470   10.5840   -0.7490 C.2       1 FG4        -0.0415
     16 CAN        14.9640   11.9010    3.2460 C.3       1 FG4         0.1445
     17 OAP        12.0430    9.7380   -5.3770 O.3       1 FG4        -0.3291
     18 OAQ        14.2640   11.5950    2.0960 O.3       1 FG4        -0.2577
     19 OAR        15.7240    9.8840    4.6690 O.3       1 FG4        -0.2474
     20 CAT        15.0530   10.8480    1.2480 C.2       1 FG4         0.2872
     21 CAU        12.9720    9.8490   -4.3940 C.ar      1 FG4         0.0755
     22 CAV        14.8540   10.8900    4.3840 C.2       1 FG4         0.1341
     23 CAW        14.6870   10.5700   -0.2580 C.2       1 FG4         0.1460
     24 CAX        13.9860    9.8570    6.0640 C.ar      1 FG4        -0.0224
     25 CAY        13.5320   10.2980   -2.0670 C.ar      1 FG4        -0.0267
     26 CAZ        15.1820    9.2290    5.7460 C.ar      1 FG4         0.1202
     27 CBA        14.8750   10.1040   -2.3890 C.ar      1 FG4         0.0633
     28 OXT        19.0430   11.2440   -0.6290 O.co2     1 FG4        -0.5663
     29 H1         17.2675    9.3582   -0.4995 H         1 FG4         0.0768
     30 H2         17.3737    9.8761   -2.2163 H         1 FG4         0.0768
     31 H3         10.2643    8.8174   -5.8366 H         1 FG4         0.0573
     32 H4         10.4934    9.2663   -4.1125 H         1 FG4         0.0573
     33 H5         11.3929    7.8743   -4.8054 H         1 FG4         0.0573
     34 H6         13.0002    7.9886    8.6921 H         1 FG4         0.0517
     35 H7         15.1241    6.8584    8.1481 H         1 FG4         0.0514
     36 H8         14.6149    9.4099   -5.7283 H         1 FG4         0.0504
     37 H9         12.2720    9.9380    7.3568 H         1 FG4         0.0515
     38 H10        16.5552    7.6685    6.3029 H         1 FG4         0.0551
     39 H11        16.3221    9.6598   -3.9314 H         1 FG4         0.0535
     40 H12        11.5358   10.3189   -2.8488 H         1 FG4         0.0450
     41 H13        12.9720   11.5267    5.1799 H         1 FG4         0.0214
     42 H14        12.5345   10.7882   -0.1908 H         1 FG4         0.0392
     43 H15        14.5945   12.8680    3.6179 H         1 FG4         0.0840
     44 H16        16.0271   11.9928    2.9788 H         1 FG4         0.0840
@<TRIPOS>BOND
     1    1    3 ar 
     2    4    1 1  
     3    1   28 ar 
     4    2    4 1  
     5   23    2 1  
     6    2   27 1  
     7   17    5 1  
     8   20    6 2  
     9    8    7 ar 
    10   10    7 ar 
    11   11    8 ar 
    12   12    9 ar 
    13   21    9 ar 
    14   24   10 ar 
    15   26   11 ar 
    16   27   12 ar 
    17   13   21 ar 
    18   25   13 ar 
    19   22   14 2  
    20   14   24 1  
    21   23   15 2  
    22   15   25 1  
    23   18   16 1  
    24   16   22 1  
    25   21   17 1  
    26   20   18 1  
    27   22   19 1  
    28   19   26 1  
    29   20   23 1  
    30   24   26 ar 
    31   25   27 ar 
    32    4   29 1  
    33    4   30 1  
    34    5   31 1  
    35    5   32 1  
    36    5   33 1  
    37    7   34 1  
    38    8   35 1  
    39    9   36 1  
    40   10   37 1  
    41   11   38 1  
    42   12   39 1  
    43   13   40 1  
    44   14   41 1  
    45   15   42 1  
    46   16   43 1  
    47   16   44 1  
@<TRIPOS>SUBSTRUCTURE
     1 FG4         1

