### 
### Created by X-TOOL on Mon Sep 10 21:13:00 2018
### 

@<TRIPOS>MOLECULE
3ivg_ligand
   46    49     1     0     0
SMALL
GAST_HUCK


@<TRIPOS>ATOM
      1 C           2.1690  -13.2940   38.7590 C.2       1 FG5         0.0635
      2 N           1.0270  -10.9390   38.7200 N.pl3     1 FG5        -0.2501
      3 O           3.2920  -13.8500   38.9340 O.co2     1 FG5        -0.5663
      4 CA          2.0520  -11.8850   39.3060 C.3       1 FG5         0.1031
      5 CAA        -2.9080   -6.8670   40.9480 C.3       1 FG5         0.0567
      6 OAC        -0.9840  -10.2620   33.7540 O.2       1 FG5        -0.1460
      7 OAD         0.2400  -12.4860   33.7990 O.2       1 FG5        -0.1460
      8 CAF         2.3080  -10.0390   27.9140 C.ar      1 FG5        -0.0767
      9 CAG         3.4440   -9.5110   28.5220 C.ar      1 FG5        -0.0734
     10 CAH        -0.6190   -9.5480   41.6640 C.ar      1 FG5        -0.0489
     11 CAI         1.3050  -10.5040   28.7450 C.ar      1 FG5        -0.0712
     12 CAJ         3.5490   -9.4570   29.9090 C.ar      1 FG5        -0.0310
     13 CAK         0.2420  -10.3270   40.9140 C.ar      1 FG5        -0.0524
     14 CAL        -1.4020   -8.6720   39.5410 C.ar      1 FG5        -0.0541
     15 CAM        -0.2960   -9.6160   37.5530 C.2       1 FG5        -0.0688
     16 CAN         0.6370  -10.8250   31.0380 C.2       1 FG5        -0.0189
     17 CAO         1.3880  -11.1080   36.2430 C.3       1 FG5         0.0846
     18 NAQ         1.3760  -10.2290   35.0640 N.am      1 FG5        -0.2288
     19 OAR        -2.3030   -7.9420   41.6670 O.3       1 FG5        -0.3308
     20 OAS         2.3800  -10.0170   32.0480 O.3       1 FG5        -0.2287
     21 CAU        -1.4540   -8.7030   40.9490 C.ar      1 FG5         0.0691
     22 CAV         0.6860  -10.5270   37.4960 C.2       1 FG5         0.0618
     23 CAW         1.1860  -10.5710   32.2120 C.2       1 FG5         0.2522
     24 CAX         1.4560  -10.4350   30.0710 C.ar      1 FG5        -0.0094
     25 CAY        -0.5460   -9.4560   38.8590 C.ar      1 FG5        -0.0477
     26 CAZ         2.5520   -9.9290   30.6510 C.ar      1 FG5         0.1269
     27 CBA         0.2700  -10.2680   39.5690 C.ar      1 FG5         0.0540
     28 SBC         0.3880  -10.9540   33.7370 S.o2      1 FG5         0.1039
     29 OXT         1.1570  -13.8020   38.2310 O.co2     1 FG5        -0.5663
     30 H1          3.0356  -11.4097   39.1777 H         1 FG5         0.0766
     31 H2          1.8260  -11.9764   40.3786 H         1 FG5         0.0766
     32 H3         -3.5792   -6.3097   41.6180 H         1 FG5         0.0573
     33 H4         -3.4854   -7.2701   40.1030 H         1 FG5         0.0573
     34 H5         -2.1256   -6.1930   40.5692 H         1 FG5         0.0573
     35 H6          2.2138  -10.0837   26.8350 H         1 FG5         0.0527
     36 H7          4.2558   -9.1378   27.9082 H         1 FG5         0.0542
     37 H8         -0.6401   -9.5949   42.7468 H         1 FG5         0.0453
     38 H9          0.3992  -10.9231   28.3220 H         1 FG5         0.0546
     39 H10         4.4313   -9.0360   30.3775 H         1 FG5         0.0562
     40 H11         0.9153  -11.0062   41.4242 H         1 FG5         0.0517
     41 H12        -2.0624   -8.0056   38.9979 H         1 FG5         0.0403
     42 H13        -0.7844   -9.1149   36.7185 H         1 FG5         0.0155
     43 H14        -0.3388  -11.2844   30.8873 H         1 FG5         0.0361
     44 H15         2.4362  -11.3157   36.5039 H         1 FG5         0.0685
     45 H16         0.8840  -12.0479   35.9738 H         1 FG5         0.0685
     46 H17         1.8499   -9.3504   35.0051 H         1 FG5         0.1706
@<TRIPOS>BOND
     1    1    3 ar 
     2    4    1 1  
     3    1   29 ar 
     4    2    4 1  
     5   22    2 1  
     6    2   27 1  
     7   19    5 1  
     8   28    6 2  
     9   28    7 2  
    10    9    8 ar 
    11   11    8 ar 
    12   12    9 ar 
    13   13   10 ar 
    14   21   10 ar 
    15   24   11 ar 
    16   26   12 ar 
    17   27   13 ar 
    18   14   21 ar 
    19   25   14 ar 
    20   22   15 2  
    21   15   25 1  
    22   23   16 2  
    23   16   24 1  
    24   18   17 1  
    25   17   22 1  
    26   28   18 am 
    27   21   19 1  
    28   23   20 1  
    29   20   26 1  
    30   23   28 1  
    31   24   26 ar 
    32   25   27 ar 
    33    4   30 1  
    34    4   31 1  
    35    5   32 1  
    36    5   33 1  
    37    5   34 1  
    38    8   35 1  
    39    9   36 1  
    40   10   37 1  
    41   11   38 1  
    42   12   39 1  
    43   13   40 1  
    44   14   41 1  
    45   15   42 1  
    46   16   43 1  
    47   17   44 1  
    48   17   45 1  
    49   18   46 1  
@<TRIPOS>SUBSTRUCTURE
     1 FG5         1

