### 
### Created by X-TOOL on Mon Sep 10 21:13:04 2018
### 

@<TRIPOS>MOLECULE
3ivh_ligand
   73    75     1     0     0
SMALL
GAST_HUCK


@<TRIPOS>ATOM
      1 C4         13.2080   -4.5360   18.2520 C.2       1 1LI         0.1733
      2 C7         15.6830   -5.5280   16.0490 C.3       1 1LI         0.1193
      3 C8         13.4220   -6.5450   15.4070 C.3       1 1LI         0.0048
      4 C10        10.9310   -6.0910   15.2820 C.ar      1 1LI        -0.0310
      5 C13        10.4510   -7.6790   17.5070 C.ar      1 1LI         0.1242
      6 C17        16.4400   -4.7730   17.1580 C.3       1 1LI        -0.0086
      7 C20        18.8230   -4.4490   18.0190 C.3       1 1LI        -0.0075
      8 C21        18.3630   -3.1590   18.7120 C.3       1 1LI        -0.0281
      9 C22        19.3990   -2.5060   19.6350 C.3       1 1LI        -0.0549
     10 C24        18.8690   -5.6940   18.8930 C.ar      1 1LI         0.0286
     11 C26        18.9560   -8.0430   20.4340 C.ar      1 1LI        -0.0151
     12 C28        19.3470   -6.8890   18.3550 C.ar      1 1LI        -0.0093
     13 F16        10.2280   -8.4380   18.5820 F         1 1LI        -0.1863
     14 C14        11.7510   -7.5270   17.0260 C.ar      1 1LI        -0.0310
     15 C12         9.3910   -7.0440   16.8750 C.ar      1 1LI        -0.0019
     16 C11         9.6320   -6.2580   15.7550 C.ar      1 1LI         0.1242
     17 F15         8.6070   -5.6230   15.1510 F         1 1LI        -0.1863
     18 C9         11.9990   -6.7290   15.9100 C.ar      1 1LI        -0.0445
     19 C31        14.2690   -5.9030   16.5060 C.3       1 1LI         0.0821
     20 N6         13.5850   -4.7050   16.9810 N.am      1 1LI        -0.2795
     21 O5         13.4770   -5.3380   19.1160 O.2       1 1LI        -0.3974
     22 C3         12.4310   -3.2930   18.5710 C.3       1 1LI         0.0257
     23 O18        16.4000   -6.6910   15.6900 O.3       1 1LI        -0.3840
     24 N19        17.8760   -4.7100   16.9280 N.4       1 1LI         0.1905
     25 C34        20.7780   -2.3900   18.9880 C.3       1 1LI        -0.0540
     26 C33        21.2150   -3.7330   18.4190 C.3       1 1LI        -0.0549
     27 C32        20.1930   -4.2100   17.3920 C.3       1 1LI        -0.0281
     28 C23        18.4330   -5.7000   20.2190 C.ar      1 1LI        -0.0100
     29 C27        19.4110   -8.0750   19.1090 C.ar      1 1LI        -0.0168
     30 C25        18.4810   -6.8700   20.9810 C.ar      1 1LI        -0.0076
     31 C29        19.9210   -9.3560   18.4800 C.3       1 1LI        -0.0371
     32 C30        21.0730   -9.0790   17.5150 C.3       1 1LI        -0.0823
     33 C2         20.4570  -10.3410   19.5220 C.3       1 1LI        -0.0823
     34 C1         18.7590   -9.9850   17.7150 C.3       1 1LI        -0.0823
     35 H1         15.6045   -4.8733   15.1685 H         1 1LI         0.0672
     36 H2         13.4167   -5.8942   14.5202 H         1 1LI         0.0448
     37 H3         13.8468   -7.5241   15.1408 H         1 1LI         0.0448
     38 H4         11.1127   -5.4603   14.4193 H         1 1LI         0.0508
     39 H5         16.2609   -5.2848   18.1150 H         1 1LI         0.0841
     40 H6         16.0488   -3.7464   17.2124 H         1 1LI         0.0841
     41 H7         17.4729   -3.3951   19.3136 H         1 1LI         0.0229
     42 H8         18.0959   -2.4308   17.9320 H         1 1LI         0.0229
     43 H9         19.4890   -3.1133   20.5477 H         1 1LI         0.0260
     44 H10        19.0485   -1.4972   19.8988 H         1 1LI         0.0260
     45 H11        18.9776   -8.9464   21.0328 H         1 1LI         0.1053
     46 H12        19.6796   -6.9043   17.3234 H         1 1LI         0.1134
     47 H13        12.5723   -8.0315   17.5219 H         1 1LI         0.0508
     48 H14         8.3817   -7.1605   17.2528 H         1 1LI         0.0532
     49 H15        14.3568   -6.6200   17.3356 H         1 1LI         0.0606
     50 H16        13.3891   -3.9762   16.3248 H         1 1LI         0.1857
     51 H17        12.1860   -3.2789   19.6433 H         1 1LI         0.0467
     52 H18        11.5018   -3.2802   17.9824 H         1 1LI         0.0467
     53 H19        13.0355   -2.4085   18.3214 H         1 1LI         0.0467
     54 H20        15.9490   -7.1333   14.9806 H         1 1LI         0.2101
     55 H21        18.0219   -3.9820   16.2463 H         1 1LI         0.1977
     56 H22        18.1386   -5.5989   16.5318 H         1 1LI         0.1977
     57 H23        21.5065   -2.0632   19.7446 H         1 1LI         0.0265
     58 H24        20.7356   -1.6494   18.1758 H         1 1LI         0.0265
     59 H25        21.2873   -4.4695   19.2329 H         1 1LI         0.0260
     60 H26        22.1967   -3.6237   17.9351 H         1 1LI         0.0260
     61 H27        20.0959   -3.4463   16.6063 H         1 1LI         0.0229
     62 H28        20.5491   -5.1508   16.9469 H         1 1LI         0.0229
     63 H29        18.0530   -4.7868   20.6624 H         1 1LI         0.1055
     64 H30        18.1421   -6.8554   22.0105 H         1 1LI         0.0767
     65 H31        21.4197  -10.0263   17.0764 H         1 1LI         0.0141
     66 H32        21.9012   -8.6024   18.0599 H         1 1LI         0.0141
     67 H33        20.7274   -8.4090   16.7140 H         1 1LI         0.0141
     68 H34        19.6634  -10.5763   20.2464 H         1 1LI         0.0141
     69 H35        21.3113   -9.8897   20.0478 H         1 1LI         0.0141
     70 H36        20.7814  -11.2648   19.0206 H         1 1LI         0.0141
     71 H37        18.3812   -9.2700   16.9693 H         1 1LI         0.0141
     72 H38        17.9530  -10.2415   18.4183 H         1 1LI         0.0141
     73 H39        19.1056  -10.8966   17.2062 H         1 1LI         0.0141
@<TRIPOS>BOND
     1   20    1 am 
     2    1   21 2  
     3    1   22 1  
     4    2    6 1  
     5   19    2 1  
     6    2   23 1  
     7    3   18 1  
     8   19    3 1  
     9    4   16 ar 
    10   18    4 ar 
    11    5   13 1  
    12   14    5 ar 
    13    5   15 ar 
    14    6   24 1  
    15    7    8 1  
    16    7   10 1  
    17   24    7 1  
    18    7   27 1  
    19    8    9 1  
    20    9   25 1  
    21   10   12 ar 
    22   10   28 ar 
    23   29   11 ar 
    24   11   30 ar 
    25   12   29 ar 
    26   18   14 ar 
    27   16   15 ar 
    28   16   17 1  
    29   19   20 1  
    30   25   26 1  
    31   26   27 1  
    32   28   30 ar 
    33   29   31 1  
    34   31   32 1  
    35   31   33 1  
    36   31   34 1  
    37    2   35 1  
    38    3   36 1  
    39    3   37 1  
    40    4   38 1  
    41    6   39 1  
    42    6   40 1  
    43    8   41 1  
    44    8   42 1  
    45    9   43 1  
    46    9   44 1  
    47   11   45 1  
    48   12   46 1  
    49   14   47 1  
    50   15   48 1  
    51   19   49 1  
    52   20   50 1  
    53   22   51 1  
    54   22   52 1  
    55   22   53 1  
    56   23   54 1  
    57   24   55 1  
    58   24   56 1  
    59   25   57 1  
    60   25   58 1  
    61   26   59 1  
    62   26   60 1  
    63   27   61 1  
    64   27   62 1  
    65   28   63 1  
    66   30   64 1  
    67   32   65 1  
    68   32   66 1  
    69   32   67 1  
    70   33   68 1  
    71   33   69 1  
    72   33   70 1  
    73   34   71 1  
    74   34   72 1  
    75   34   73 1  
@<TRIPOS>SUBSTRUCTURE
     1 1LI         1

