### 
### Created by X-TOOL on Mon Sep 10 21:13:03 2018
### 

@<TRIPOS>MOLECULE
3ivi_ligand
   74    77     1     0     0
SMALL
GAST_HUCK


@<TRIPOS>ATOM
      1 C4         15.5350    0.2800   49.1850 C.2       1 2LI        -0.0368
      2 C5         14.1880   -0.2680   48.8130 C.3       1 2LI        -0.0132
      3 C6         14.3000   -1.7560   48.5190 C.3       1 2LI        -0.0028
      4 C7         14.4200   -2.5880   49.8060 C.ar      1 2LI         0.0298
      5 C8         14.4670   -2.0180   51.0890 C.ar      1 2LI        -0.0099
      6 C10        14.6890   -4.1830   52.1330 C.ar      1 2LI        -0.0151
      7 C13        14.7490   -6.2920   50.7090 C.3       1 2LI        -0.0371
      8 C15        15.1790   -6.9490   52.0240 C.3       1 2LI        -0.0823
      9 C20         9.4020   -2.3460   48.5640 C.3       1 2LI         0.0821
     10 C22         9.1380   -0.2440   49.8570 C.2       1 2LI         0.1733
     11 C26         8.1650   -3.0390   47.9860 C.3       1 2LI         0.0048
     12 C28         5.8090   -2.0830   48.1800 C.ar      1 2LI        -0.0310
     13 F34         3.6170   -1.1810   48.3510 F         1 2LI        -0.1863
     14 C29         4.6830   -1.7470   48.9470 C.ar      1 2LI         0.1242
     15 C30         4.6530   -1.9840   50.3210 C.ar      1 2LI        -0.0019
     16 C31         5.7690   -2.5580   50.9250 C.ar      1 2LI         0.1242
     17 F33         5.7940   -2.8110   52.2500 F         1 2LI        -0.1863
     18 C32         6.8880   -2.8910   50.1550 C.ar      1 2LI        -0.0310
     19 C27         6.9240   -2.6620   48.7840 C.ar      1 2LI        -0.0445
     20 N21         9.0980   -0.9260   48.7030 N.am      1 2LI        -0.2795
     21 C23         8.6680    1.1840   49.8040 C.3       1 2LI         0.0257
     22 O25         9.5060   -0.7120   50.9230 O.2       1 2LI        -0.3974
     23 C19        10.6610   -2.6140   47.7280 C.3       1 2LI         0.1193
     24 O24        11.0560   -3.9890   47.7650 O.3       1 2LI        -0.3840
     25 C18        11.7920   -1.7540   48.2610 C.3       1 2LI        -0.0085
     26 N17        13.1100   -2.1150   47.7740 N.4       1 2LI         0.1914
     27 C35        15.8150    1.4740   49.7930 C.2       1 2LI        -0.0169
     28 C3         16.8190   -0.3910   48.9170 C.2       1 2LI         0.0611
     29 N37        17.8210    0.3960   49.3700 N.pl3     1 2LI        -0.2275
     30 N36        17.1510    1.5240   49.8870 N.2       1 2LI        -0.2396
     31 C2         16.8730   -1.7250   48.2520 C.3       1 2LI         0.0023
     32 C1         15.5100   -2.0060   47.6180 C.3       1 2LI        -0.0155
     33 C9         14.5900   -2.8050   52.2350 C.ar      1 2LI        -0.0076
     34 C11        14.6430   -4.7890   50.8660 C.ar      1 2LI        -0.0168
     35 C12        14.5110   -3.9750   49.7230 C.ar      1 2LI        -0.0092
     36 C16        15.7820   -6.6240   49.6510 C.3       1 2LI        -0.0823
     37 C14        13.4250   -6.9030   50.2670 C.3       1 2LI        -0.0823
     38 H1         13.8158    0.2537   47.9190 H         1 2LI         0.0293
     39 H2         13.4875   -0.1123   49.6467 H         1 2LI         0.0293
     40 H3         14.4063   -0.9406   51.1915 H         1 2LI         0.1055
     41 H4         14.8012   -4.7896   53.0244 H         1 2LI         0.1053
     42 H5         15.2486   -8.0379   51.8843 H         1 2LI         0.0141
     43 H6         14.4371   -6.7263   52.8050 H         1 2LI         0.0141
     44 H7         16.1602   -6.5548   52.3272 H         1 2LI         0.0141
     45 H8          9.5863   -2.7542   49.5687 H         1 2LI         0.0606
     46 H9          8.3066   -4.1290   48.0295 H         1 2LI         0.0448
     47 H10         8.0312   -2.7281   46.9394 H         1 2LI         0.0448
     48 H11         5.8118   -1.8915   47.1131 H         1 2LI         0.0508
     49 H12         3.7783   -1.7265   50.9073 H         1 2LI         0.0532
     50 H13         7.7485   -3.3387   50.6390 H         1 2LI         0.0508
     51 H14         8.8409   -0.4243   47.8771 H         1 2LI         0.1857
     52 H15         8.7482    1.6338   50.8046 H         1 2LI         0.0467
     53 H16         7.6197    1.2129   49.4720 H         1 2LI         0.0467
     54 H17         9.2924    1.7496   49.0967 H         1 2LI         0.0467
     55 H18        10.4554   -2.3369   46.6835 H         1 2LI         0.0672
     56 H19        10.3538   -4.5284   47.4210 H         1 2LI         0.2101
     57 H20        11.7976   -1.8367   49.3579 H         1 2LI         0.0841
     58 H21        11.5943   -0.7110   47.9730 H         1 2LI         0.0841
     59 H22        13.1185   -3.1190   47.6849 H         1 2LI         0.1978
     60 H23        13.2043   -1.6959   46.8621 H         1 2LI         0.1978
     61 H24        15.1021    2.2253   50.1296 H         1 2LI         0.0594
     62 H25        18.8345    0.2144   49.3436 H         1 2LI         0.2500
     63 H26        17.1034   -2.5016   48.9961 H         1 2LI         0.0443
     64 H27        17.6504   -1.7206   47.4738 H         1 2LI         0.0443
     65 H28        15.4102   -1.3635   46.7307 H         1 2LI         0.0254
     66 H29        15.4908   -3.0619   47.3102 H         1 2LI         0.0254
     67 H30        14.6082   -2.3348   53.2115 H         1 2LI         0.0767
     68 H31        14.4793   -4.4445   48.7465 H         1 2LI         0.1134
     69 H32        15.4914   -6.1606   48.6967 H         1 2LI         0.0141
     70 H33        15.8409   -7.7152   49.5257 H         1 2LI         0.0141
     71 H34        16.7634   -6.2371   49.9626 H         1 2LI         0.0141
     72 H35        12.6503   -6.6800   51.0154 H         1 2LI         0.0141
     73 H36        13.5383   -7.9928   50.1702 H         1 2LI         0.0141
     74 H37        13.1305   -6.4772   49.2964 H         1 2LI         0.0141
@<TRIPOS>BOND
     1    2    1 1  
     2    1   27 1  
     3    1   28 2  
     4    3    2 1  
     5    3    4 1  
     6   26    3 1  
     7    3   32 1  
     8    4    5 ar 
     9    4   35 ar 
    10    5   33 ar 
    11   33    6 ar 
    12    6   34 ar 
    13    7    8 1  
    14   34    7 1  
    15    7   36 1  
    16    7   37 1  
    17    9   11 1  
    18    9   20 1  
    19   23    9 1  
    20   20   10 am 
    21   10   21 1  
    22   10   22 2  
    23   11   19 1  
    24   12   14 ar 
    25   19   12 ar 
    26   14   13 1  
    27   14   15 ar 
    28   16   15 ar 
    29   16   17 1  
    30   18   16 ar 
    31   19   18 ar 
    32   23   24 1  
    33   25   23 1  
    34   25   26 1  
    35   27   30 2  
    36   28   29 1  
    37   28   31 1  
    38   29   30 1  
    39   31   32 1  
    40   34   35 ar 
    41    2   38 1  
    42    2   39 1  
    43    5   40 1  
    44    6   41 1  
    45    8   42 1  
    46    8   43 1  
    47    8   44 1  
    48    9   45 1  
    49   11   46 1  
    50   11   47 1  
    51   12   48 1  
    52   15   49 1  
    53   18   50 1  
    54   20   51 1  
    55   21   52 1  
    56   21   53 1  
    57   21   54 1  
    58   23   55 1  
    59   24   56 1  
    60   25   57 1  
    61   25   58 1  
    62   26   59 1  
    63   26   60 1  
    64   27   61 1  
    65   29   62 1  
    66   31   63 1  
    67   31   64 1  
    68   32   65 1  
    69   32   66 1  
    70   33   67 1  
    71   35   68 1  
    72   36   69 1  
    73   36   70 1  
    74   36   71 1  
    75   37   72 1  
    76   37   73 1  
    77   37   74 1  
@<TRIPOS>SUBSTRUCTURE
     1 2LI         1

