### 
### Created by X-TOOL on Mon Sep 10 21:13:00 2018
### 

@<TRIPOS>MOLECULE
3ivx_ligand
   45    48     1     0     0
SMALL
GAST_HUCK


@<TRIPOS>ATOM
      1 C          18.6710   11.0570   -0.9580 C.2       1 FG6         0.0636
      2 N          16.1740   10.3380   -1.3780 N.pl3     1 FG6        -0.2447
      3 O          18.3150   12.1710   -0.5580 O.co2     1 FG6        -0.5663
      4 CA         17.6490   10.1280   -1.5980 C.3       1 FG6         0.1030
      5 CAA        11.0750    9.7570   -5.0100 C.3       1 FG6         0.0569
      6 OAC        17.0190   10.3670    1.2910 O.2       1 FG6        -0.3825
      7 OAD        15.1490   13.0720    3.7420 O.2       1 FG6        -0.1415
      8 OAE        17.0670   11.6710    3.5830 O.2       1 FG6        -0.1415
      9 CAG        13.2690    8.7830    8.1850 C.ar      1 FG6        -0.0767
     10 CAH        12.9810    7.7440    7.3010 C.ar      1 FG6        -0.0734
     11 CAI        14.7120    9.8780   -4.7050 C.ar      1 FG6        -0.0427
     12 CAJ        13.8850    9.9210    7.6900 C.ar      1 FG6        -0.0712
     13 CAK        13.3160    7.8940    5.9520 C.ar      1 FG6        -0.0310
     14 CAL        15.7120    9.9650   -3.7420 C.ar      1 FG6        -0.0452
     15 CAM        13.1110   10.3400   -2.9690 C.ar      1 FG6        -0.0452
     16 CAN        14.7670   10.9740    5.7220 C.2       1 FG6        -0.0185
     17 CAO        14.1290   10.6380   -0.7250 C.2       1 FG6        -0.0430
     18 NAQ        15.0740   11.3750    1.8160 N.am      1 FG6        -0.1484
     19 OAR        12.4620    9.9520   -5.3340 O.3       1 FG6        -0.3292
     20 OAS        14.3660    9.4720    4.2000 O.3       1 FG6        -0.2283
     21 CAU        15.8920   10.7650    0.9530 C.2       1 FG6         0.2467
     22 CAV        13.3910   10.0610   -4.3290 C.ar      1 FG6         0.0753
     23 CAW        14.8640   10.6520    4.4470 C.2       1 FG6         0.2569
     24 CAX        15.4110   10.5900   -0.3130 C.2       1 FG6         0.1352
     25 CAY        14.1880    9.9990    6.3980 C.ar      1 FG6        -0.0094
     26 CAZ        14.1080   10.4150   -2.0560 C.ar      1 FG6        -0.0272
     27 CBA        13.9070    9.0160    5.5280 C.ar      1 FG6         0.1269
     28 CBB        15.3880   10.2200   -2.4470 C.ar      1 FG6         0.0630
     29 SBD        15.5540   11.6840    3.4010 S.o2      1 FG6         0.1239
     30 OXT        19.8340   10.6020   -0.9190 O.co2     1 FG6        -0.5663
     31 H1         17.8787    9.1138   -1.2394 H         1 FG6         0.0768
     32 H2         17.8149   10.1793   -2.6842 H         1 FG6         0.0768
     33 H3         10.4873    9.6932   -5.9376 H         1 FG6         0.0573
     34 H4         10.7168   10.6041   -4.4066 H         1 FG6         0.0573
     35 H5         10.9596    8.8245   -4.4380 H         1 FG6         0.0573
     36 H6         13.0166    8.7022    9.2361 H         1 FG6         0.0527
     37 H7         12.5057    6.8358    7.6535 H         1 FG6         0.0542
     38 H8         14.9635    9.6693   -5.7386 H         1 FG6         0.0503
     39 H9         14.1191   10.7451    8.3541 H         1 FG6         0.0546
     40 H10        13.0962    7.0992    5.2484 H         1 FG6         0.0562
     41 H11        16.7497    9.8294   -4.0245 H         1 FG6         0.0535
     42 H12        12.0852   10.4955   -2.6550 H         1 FG6         0.0449
     43 H13        15.1148   11.9105    6.1555 H         1 FG6         0.0362
     44 H14        13.2611   10.8242   -0.0941 H         1 FG6         0.0386
     45 H15        14.1615   11.6528    1.5158 H         1 FG6         0.2138
@<TRIPOS>BOND
     1    1    3 ar 
     2    4    1 1  
     3    1   30 ar 
     4    2    4 1  
     5   24    2 1  
     6    2   28 1  
     7   19    5 1  
     8   21    6 2  
     9   29    7 2  
    10   29    8 2  
    11   10    9 ar 
    12   12    9 ar 
    13   13   10 ar 
    14   14   11 ar 
    15   22   11 ar 
    16   25   12 ar 
    17   27   13 ar 
    18   28   14 ar 
    19   15   22 ar 
    20   26   15 ar 
    21   23   16 2  
    22   16   25 1  
    23   24   17 2  
    24   17   26 1  
    25   18   21 am 
    26   29   18 am 
    27   22   19 1  
    28   23   20 1  
    29   20   27 1  
    30   21   24 1  
    31   23   29 1  
    32   25   27 ar 
    33   26   28 ar 
    34    4   31 1  
    35    4   32 1  
    36    5   33 1  
    37    5   34 1  
    38    5   35 1  
    39    9   36 1  
    40   10   37 1  
    41   11   38 1  
    42   12   39 1  
    43   13   40 1  
    44   14   41 1  
    45   15   42 1  
    46   16   43 1  
    47   17   44 1  
    48   18   45 1  
@<TRIPOS>SUBSTRUCTURE
     1 FG6         1

