### 
### Created by X-TOOL on Mon Sep 10 21:13:01 2018
### 

@<TRIPOS>MOLECULE
3iw5_ligand
   63    67     1     0     0
SMALL
GAST_HUCK


@<TRIPOS>ATOM
      1 OAA        20.8150    1.4000  -26.2370 O.2       1 DF3        -0.3852
      2 OAB        22.1330    1.0210  -21.4740 O.2       1 DF3        -0.3839
      3 FAC        23.4750   -5.4220  -19.2310 F         1 DF3        -0.2197
      4 FAD        21.5500   -4.9010  -19.5740 F         1 DF3        -0.2197
      5 FAE        22.5890   -5.7520  -21.1930 F         1 DF3        -0.2197
      6 CAF        24.8490   -2.2670  -21.7950 C.ar      1 DF3        -0.0272
      7 CAG        17.6210    3.6120  -23.5460 C.ar      1 DF3        -0.0792
      8 CAH        17.5310    3.9380  -22.2000 C.ar      1 DF3        -0.0768
      9 CAI        24.1230   -1.1000  -21.5750 C.ar      1 DF3        -0.0146
     10 CAJ        24.3720   -3.4870  -21.3180 C.ar      1 DF3        -0.0277
     11 CAK        21.5510    3.5770  -25.6190 C.ar      1 DF3        -0.0605
     12 CAL        21.5060    4.9330  -25.9020 C.ar      1 DF3        -0.0541
     13 CAM        18.0820    2.3610  -23.9220 C.ar      1 DF3        -0.0739
     14 CAN        17.9150    2.9920  -21.2390 C.ar      1 DF3        -0.0441
     15 CAO        21.2130    3.9740  -23.2920 C.ar      1 DF3        -0.0207
     16 CAP        22.4190   -2.4090  -20.4160 C.ar      1 DF3        -0.0111
     17 CAQ        19.1620   -0.3030  -21.7960 C.2       1 DF3         0.0297
     18 CAR        20.3610    1.1070  -19.1520 C.3       1 DF3         0.0563
     19 CAS        21.2560    7.9500  -24.0630 C.3       1 DF3         0.0920
     20 CAT        20.3210    7.3190  -23.0580 C.3       1 DF3         0.0944
     21 CAU        18.9620    0.5460  -19.5180 C.3       1 DF3         0.0685
     22 CAV        21.0290   -0.4230  -24.7800 C.3       1 DF3         0.0952
     23 NAW        21.2900    0.0500  -19.5530 N.am      1 DF3        -0.2831
     24 NAX        21.4440    1.8210  -24.1220 N.am      1 DF3        -0.2417
     25 OAY        21.2750    7.1180  -25.2140 O.3       1 DF3        -0.3287
     26 OAZ        20.9860    6.1600  -22.5520 O.3       1 DF3        -0.3226
     27 SBA        19.3000   -0.8610  -24.4400 S.3       1 DF3        -0.1089
     28 CBB        21.0910    1.0320  -25.1120 C.2       1 DF3         0.2121
     29 CBC        22.0860    0.0990  -20.6560 C.2       1 DF3         0.2121
     30 CBD        21.4440    3.0980  -24.3310 C.ar      1 DF3         0.0466
     31 CBE        22.9180   -1.1670  -20.8750 C.ar      1 DF3         0.0792
     32 CBF        23.1600   -3.5620  -20.6320 C.ar      1 DF3         0.0540
     33 CBG        21.3170    5.8090  -24.8760 C.ar      1 DF3         0.1045
     34 CBH        21.1650    5.3240  -23.5800 C.ar      1 DF3         0.1076
     35 CBI        18.9550    0.1300  -23.0230 C.2       1 DF3         0.0134
     36 CBJ        18.4680    1.4270  -22.9730 C.ar      1 DF3        -0.0110
     37 CBK        18.3940    1.7400  -21.6330 C.ar      1 DF3         0.0636
     38 NBL        18.8290    0.6700  -20.9730 N.pl3     1 DF3        -0.2720
     39 CBM        22.6930   -4.9350  -20.1490 C.3       1 DF3         0.3783
     40 H1         25.7864   -2.2272  -22.3379 H         1 DF3         0.0708
     41 H2         17.3314    4.3341  -24.3008 H         1 DF3         0.0510
     42 H3         17.1680    4.9129  -21.8951 H         1 DF3         0.0530
     43 H4         24.4900   -0.1490  -21.9437 H         1 DF3         0.0903
     44 H5         24.9505   -4.3889  -21.4824 H         1 DF3         0.0883
     45 H6         21.6739    2.8729  -26.4340 H         1 DF3         0.0385
     46 H7         21.6189    5.2894  -26.9195 H         1 DF3         0.0475
     47 H8         18.1419    2.1085  -24.9745 H         1 DF3         0.0541
     48 H9         17.8399    3.2332  -20.1849 H         1 DF3         0.0541
     49 H10        21.0732    3.6141  -22.2791 H         1 DF3         0.0397
     50 H11        21.4668   -2.4592  -19.9005 H         1 DF3         0.0912
     51 H12        19.5391   -1.2849  -21.5141 H         1 DF3         0.0805
     52 H13        20.4331    1.2999  -18.0715 H         1 DF3         0.0546
     53 H14        20.5653    2.0358  -19.7048 H         1 DF3         0.0546
     54 H15        22.2678    8.0254  -23.6381 H         1 DF3         0.0630
     55 H16        20.8955    8.9538  -24.3319 H         1 DF3         0.0630
     56 H17        19.3775    7.0324  -23.5454 H         1 DF3         0.0636
     57 H18        20.1118    8.0238  -22.2398 H         1 DF3         0.0636
     58 H19        18.1760    1.1276  -19.0141 H         1 DF3         0.0615
     59 H20        18.8861   -0.5097  -19.2185 H         1 DF3         0.0615
     60 H21        21.4016   -1.0139  -25.6296 H         1 DF3         0.0637
     61 H22        21.6455   -0.6279  -23.8923 H         1 DF3         0.0637
     62 H23        21.3438   -0.7653  -18.9764 H         1 DF3         0.1846
     63 H24        21.7051    1.4453  -23.2328 H         1 DF3         0.2219
@<TRIPOS>BOND
     1   28    1 2  
     2   29    2 2  
     3   39    3 1  
     4   39    4 1  
     5   39    5 1  
     6    9    6 ar 
     7    6   10 ar 
     8    7    8 ar 
     9   13    7 ar 
    10    8   14 ar 
    11   31    9 ar 
    12   32   10 ar 
    13   11   12 ar 
    14   30   11 ar 
    15   12   33 ar 
    16   36   13 ar 
    17   14   37 ar 
    18   30   15 ar 
    19   15   34 ar 
    20   31   16 ar 
    21   16   32 ar 
    22   35   17 2  
    23   17   38 1  
    24   21   18 1  
    25   18   23 1  
    26   20   19 1  
    27   25   19 1  
    28   26   20 1  
    29   38   21 1  
    30   27   22 1  
    31   22   28 1  
    32   23   29 am 
    33   28   24 am 
    34   24   30 1  
    35   33   25 1  
    36   34   26 1  
    37   35   27 1  
    38   29   31 1  
    39   32   39 1  
    40   34   33 ar 
    41   35   36 1  
    42   36   37 ar 
    43   37   38 1  
    44    6   40 1  
    45    7   41 1  
    46    8   42 1  
    47    9   43 1  
    48   10   44 1  
    49   11   45 1  
    50   12   46 1  
    51   13   47 1  
    52   14   48 1  
    53   15   49 1  
    54   16   50 1  
    55   17   51 1  
    56   18   52 1  
    57   18   53 1  
    58   19   54 1  
    59   19   55 1  
    60   20   56 1  
    61   20   57 1  
    62   21   58 1  
    63   21   59 1  
    64   22   60 1  
    65   22   61 1  
    66   23   62 1  
    67   24   63 1  
@<TRIPOS>SUBSTRUCTURE
     1 DF3         1

