### 
### Created by X-TOOL on Mon Sep 10 21:13:01 2018
### 

@<TRIPOS>MOLECULE
3iw6_ligand
   61    63     1     0     0
SMALL
GAST_HUCK


@<TRIPOS>ATOM
      1 CAA       -27.3760    0.2050    6.2160 C.3       1 PP0        -0.0374
      2 CAB       -24.6350   -3.5520    5.0890 C.3       1 PP0        -0.0376
      3 CAC       -20.5200    0.5160    5.4200 C.3       1 PP0        -0.0435
      4 CAD       -21.4380   -4.2950    6.9290 C.3       1 PP0        -0.0012
      5 OAE       -23.5060    0.9790    4.9150 O.2       1 PP0        -0.3770
      6 OAF       -18.6560   -2.3790    7.4650 O.2       1 PP0        -0.4062
      7 CAG       -12.5870   -6.0680    2.3600 C.ar      1 PP0        -0.0687
      8 CAH       -13.6040   -6.8870    2.8680 C.ar      1 PP0        -0.0684
      9 CAI       -12.9130   -4.7890    1.8950 C.ar      1 PP0        -0.0684
     10 CAJ       -14.9240   -6.4280    2.9100 C.ar      1 PP0        -0.0553
     11 CAK       -14.2390   -4.3260    1.9250 C.ar      1 PP0        -0.0553
     12 CAL       -26.1300    0.4040    5.3190 C.3       1 PP0         0.0718
     13 CAM       -24.0790   -2.9870    6.4260 C.3       1 PP0         0.0505
     14 CAN       -18.3530   -3.1080    2.9830 C.3       1 PP0        -0.0097
     15 CAO       -16.5360   -3.6280    4.5980 C.3       1 PP0        -0.0097
     16 CAP       -18.7910   -1.9620    3.8940 C.3       1 PP0         0.0726
     17 CAQ       -16.8560   -2.4260    5.4380 C.3       1 PP0         0.0726
     18 CAR       -16.7110   -4.6870    2.4710 C.3       1 PP0         0.0021
     19 OAS       -25.0430   -0.4830    5.7380 O.3       1 PP0        -0.2828
     20 CAT       -23.7510   -0.0900    5.4800 C.2       1 PP0         0.2576
     21 CAU       -19.1130   -2.1750    6.3470 C.2       1 PP0         0.1755
     22 CAV       -15.2380   -5.1530    2.4410 C.ar      1 PP0         0.0014
     23 CAW       -21.2360   -0.7740    5.8190 C.2       1 PP0        -0.0333
     24 CAX       -21.6140   -2.8590    6.4690 C.2       1 PP0         0.0656
     25 CAY       -20.6110   -1.9380    6.2110 C.2       1 PP0         0.0454
     26 CAZ       -22.6080   -1.0350    5.8570 C.2       1 PP0         0.1299
     27 NBA       -16.9090   -3.4180    3.1820 N.4       1 PP0         0.2500
     28 NBB       -18.3010   -2.1800    5.2700 N.am      1 PP0        -0.2690
     29 NBC       -22.7880   -2.3010    6.2440 N.pl3     1 PP0        -0.2596
     30 H1        -28.1785    0.8800    5.8838 H         1 PP0         0.0255
     31 H2        -27.1157    0.4310    7.2606 H         1 PP0         0.0255
     32 H3        -27.7192   -0.8374    6.1409 H         1 PP0         0.0255
     33 H4        -25.5964   -4.0533    5.2744 H         1 PP0         0.0257
     34 H5        -23.9193   -4.2749    4.6705 H         1 PP0         0.0257
     35 H6        -24.7829   -2.7277    4.3759 H         1 PP0         0.0257
     36 H7        -19.4326    0.3731    5.5048 H         1 PP0         0.0350
     37 H8        -20.8357    1.3319    6.0868 H         1 PP0         0.0350
     38 H9        -20.7763    0.7714    4.3812 H         1 PP0         0.0350
     39 H10       -20.3662   -4.5147    7.0431 H         1 PP0         0.0448
     40 H11       -21.8743   -4.9752    6.1827 H         1 PP0         0.0448
     41 H12       -21.9459   -4.4356    7.8945 H         1 PP0         0.0448
     42 H13       -11.5623   -6.4201    2.3276 H         1 PP0         0.0559
     43 H14       -13.3664   -7.8808    3.2300 H         1 PP0         0.0599
     44 H15       -12.1313   -4.1465    1.5062 H         1 PP0         0.0599
     45 H16       -15.7054   -7.0651    3.3083 H         1 PP0         0.0558
     46 H17       -14.4835   -3.3381    1.5518 H         1 PP0         0.0558
     47 H18       -25.7933    1.4484    5.3953 H         1 PP0         0.0607
     48 H19       -26.3968    0.1800    4.2756 H         1 PP0         0.0607
     49 H20       -23.9420   -3.8187    7.1328 H         1 PP0         0.0610
     50 H21       -24.8057   -2.2715    6.8381 H         1 PP0         0.0610
     51 H22       -18.5190   -2.8193    1.9346 H         1 PP0         0.0834
     52 H23       -18.9495   -4.0024    3.2159 H         1 PP0         0.0834
     53 H24       -17.0904   -4.4941    4.9884 H         1 PP0         0.0834
     54 H25       -15.4558   -3.8272    4.6567 H         1 PP0         0.0834
     55 H26       -19.8896   -1.9078    3.9052 H         1 PP0         0.0573
     56 H27       -18.3811   -1.0165    3.5092 H         1 PP0         0.0573
     57 H28       -16.2784   -1.5554    5.0939 H         1 PP0         0.0573
     58 H29       -16.6235   -2.6260    6.4944 H         1 PP0         0.0573
     59 H30       -17.3115   -5.4625    2.9689 H         1 PP0         0.0980
     60 H31       -17.0583   -4.5633    1.4346 H         1 PP0         0.0980
     61 H32       -16.3391   -2.6848    2.7900 H         1 PP0         0.2050
@<TRIPOS>BOND
     1   12    1 1  
     2   13    2 1  
     3   23    3 1  
     4   24    4 1  
     5   20    5 2  
     6   21    6 2  
     7    8    7 ar 
     8    9    7 ar 
     9   10    8 ar 
    10   11    9 ar 
    11   22   10 ar 
    12   22   11 ar 
    13   19   12 1  
    14   29   13 1  
    15   16   14 1  
    16   14   27 1  
    17   17   15 1  
    18   15   27 1  
    19   28   16 1  
    20   28   17 1  
    21   18   22 1  
    22   27   18 1  
    23   20   19 1  
    24   26   20 1  
    25   25   21 1  
    26   21   28 am 
    27   25   23 1  
    28   23   26 2  
    29   24   25 2  
    30   24   29 1  
    31   26   29 1  
    32    1   30 1  
    33    1   31 1  
    34    1   32 1  
    35    2   33 1  
    36    2   34 1  
    37    2   35 1  
    38    3   36 1  
    39    3   37 1  
    40    3   38 1  
    41    4   39 1  
    42    4   40 1  
    43    4   41 1  
    44    7   42 1  
    45    8   43 1  
    46    9   44 1  
    47   10   45 1  
    48   11   46 1  
    49   12   47 1  
    50   12   48 1  
    51   13   49 1  
    52   13   50 1  
    53   14   51 1  
    54   14   52 1  
    55   15   53 1  
    56   15   54 1  
    57   16   55 1  
    58   16   56 1  
    59   17   57 1  
    60   17   58 1  
    61   18   59 1  
    62   18   60 1  
    63   27   61 1  
@<TRIPOS>SUBSTRUCTURE
     1 PP0         1

