### 
### Created by X-TOOL on Mon Sep 10 21:13:01 2018
### 

@<TRIPOS>MOLECULE
3iw7_ligand
   46    48     1     0     0
SMALL
GAST_HUCK


@<TRIPOS>ATOM
      1 OAA        19.8470    1.2650  -26.2270 O.2       1 IPK        -0.3876
      2 CAB        23.3840   -4.6850  -20.9720 C.ar      1 IPK        -0.0687
      3 CAC        22.1240   -4.3700  -20.4590 C.ar      1 IPK        -0.0686
      4 CAD        24.2050   -3.6660  -21.4750 C.ar      1 IPK        -0.0686
      5 CAF        21.6830   -3.0510  -20.4620 C.ar      1 IPK        -0.0603
      6 CAG        23.7710   -2.3460  -21.4700 C.ar      1 IPK        -0.0603
      7 CAH        17.8320    4.9830  -24.2070 C.ar      1 IPK        -0.0536
      8 CAI        20.0070    5.5530  -25.1100 C.ar      1 IPK        -0.0536
      9 CAJ        18.1050    3.6350  -24.3930 C.ar      1 IPK        -0.0485
     10 CAK        20.2770    4.1990  -25.2910 C.ar      1 IPK        -0.0485
     11 CAN        20.0890    0.7430  -21.6040 C.3       1 IPK        -0.0279
     12 CAO        20.8150   -1.1210  -23.1750 C.3       1 IPK        -0.0279
     13 CAP        19.3160    1.4610  -22.6970 C.3       1 IPK         0.0336
     14 CAQ        19.8710   -0.5590  -24.2570 C.3       1 IPK         0.0336
     15 CAR        18.4240    7.4490  -24.3450 C.3       1 IPK         0.0266
     16 CAS        22.0490   -0.5890  -20.9540 C.3       1 IPK        -0.0162
     17 SAW        19.6980    8.3340  -23.3400 S.3       1 IPK        -0.1635
     18 CAX        19.6120    1.7240  -25.1160 C.2       1 IPK         0.2024
     19 CAY        18.7740    5.9520  -24.5610 C.ar      1 IPK        -0.0287
     20 CAZ        22.5090   -2.0460  -20.9820 C.ar      1 IPK        -0.0428
     21 CBA        19.3290    3.2360  -24.9290 C.ar      1 IPK         0.0429
     22 CBE        21.2760   -0.0550  -22.1640 C.3       1 IPK        -0.0277
     23 NBF        19.5980    0.8970  -24.0650 N.am      1 IPK        -0.2734
     24 H1         23.7260   -5.7136  -20.9813 H         1 IPK         0.0559
     25 H2         21.4901   -5.1530  -20.0587 H         1 IPK         0.0599
     26 H3         25.1846   -3.9094  -21.8703 H         1 IPK         0.0599
     27 H4         20.7058   -2.8020  -20.0643 H         1 IPK         0.0557
     28 H5         24.4139   -1.5577  -21.8445 H         1 IPK         0.0557
     29 H6         16.8811    5.2861  -23.7840 H         1 IPK         0.0570
     30 H7         20.7437    6.2969  -25.3909 H         1 IPK         0.0570
     31 H8         17.3652    2.8908  -24.1211 H         1 IPK         0.0652
     32 H9         21.2259    3.8898  -25.7142 H         1 IPK         0.0652
     33 H10        19.4095    0.0507  -21.0853 H         1 IPK         0.0289
     34 H11        20.4684    1.4885  -20.8897 H         1 IPK         0.0289
     35 H12        21.7029   -1.5421  -23.6692 H         1 IPK         0.0289
     36 H13        20.2873   -1.9167  -22.6288 H         1 IPK         0.0289
     37 H14        19.5974    2.5244  -22.6885 H         1 IPK         0.0522
     38 H15        18.2399    1.3647  -22.4902 H         1 IPK         0.0522
     39 H16        18.9180   -1.1068  -24.2153 H         1 IPK         0.0522
     40 H17        20.3353   -0.7055  -25.2434 H         1 IPK         0.0522
     41 H18        18.3463    7.9386  -25.3270 H         1 IPK         0.0546
     42 H19        17.4567    7.5139  -23.8253 H         1 IPK         0.0546
     43 H20        22.9472    0.0354  -20.8383 H         1 IPK         0.0429
     44 H21        21.4018   -0.4673  -20.0729 H         1 IPK         0.0429
     45 H22        19.4260    9.2982  -23.2285 H         1 IPK         0.1042
     46 H23        21.9374    0.6353  -22.7081 H         1 IPK         0.0324
@<TRIPOS>BOND
     1   18    1 2  
     2    3    2 ar 
     3    4    2 ar 
     4    5    3 ar 
     5    6    4 ar 
     6   20    5 ar 
     7   20    6 ar 
     8    9    7 ar 
     9    7   19 ar 
    10   10    8 ar 
    11    8   19 ar 
    12   21    9 ar 
    13   21   10 ar 
    14   13   11 1  
    15   11   22 1  
    16   14   12 1  
    17   12   22 1  
    18   23   13 1  
    19   23   14 1  
    20   15   17 1  
    21   19   15 1  
    22   16   20 1  
    23   22   16 1  
    24   18   21 1  
    25   18   23 am 
    26    2   24 1  
    27    3   25 1  
    28    4   26 1  
    29    5   27 1  
    30    6   28 1  
    31    7   29 1  
    32    8   30 1  
    33    9   31 1  
    34   10   32 1  
    35   11   33 1  
    36   11   34 1  
    37   12   35 1  
    38   12   36 1  
    39   13   37 1  
    40   13   38 1  
    41   14   39 1  
    42   14   40 1  
    43   15   41 1  
    44   15   42 1  
    45   16   43 1  
    46   16   44 1  
    47   17   45 1  
    48   22   46 1  
@<TRIPOS>SUBSTRUCTURE
     1 IPK         1

