### 
### Created by X-TOOL on Mon Sep 10 21:13:01 2018
### 

@<TRIPOS>MOLECULE
3iw8_ligand
   47    49     1     0     0
SMALL
GAST_HUCK


@<TRIPOS>ATOM
      1 NAA        22.0300   -0.7590   16.8520 N.4       1 HIZ         0.2326
      2 OAB        17.9090    4.5110   18.2350 O.2       1 HIZ        -0.3764
      3 FAC        13.8760    9.0330   17.0480 F         1 HIZ        -0.1955
      4 CLAD       14.4380    7.9180   19.6240 Cl        1 HIZ        -0.0761
      5 CAE        24.3520    5.0380   20.9760 C.ar      1 HIZ        -0.0687
      6 CAF        23.2420    4.4810   20.3390 C.ar      1 HIZ        -0.0685
      7 CAG        25.3390    4.2150   21.5340 C.ar      1 HIZ        -0.0685
      8 CAH        23.1410    3.0930   20.2750 C.ar      1 HIZ        -0.0581
      9 CAI        25.2350    2.8270   21.4690 C.ar      1 HIZ        -0.0581
     10 CAJ        15.8710    8.2480   15.9420 C.ar      1 HIZ        -0.0412
     11 CAK        17.0830    7.5540   15.9980 C.ar      1 HIZ        -0.0427
     12 CAL        20.1770    0.8540   18.8770 C.2       1 HIZ        -0.0105
     13 CAM        16.6940    7.0580   18.3210 C.ar      1 HIZ        -0.0290
     14 CAN        24.0120    0.8870   20.7560 C.3       1 HIZ         0.0821
     15 CAO        22.8620   -0.5140   19.1600 C.3       1 HIZ         0.1004
     16 NAP        21.2720    2.4400   17.6000 N.2       1 HIZ        -0.3118
     17 NAQ        18.6810    6.2850   17.1230 N.am      1 HIZ        -0.2146
     18 NAR        20.0070    4.4360   17.4830 N.am      1 HIZ        -0.1744
     19 OAS        22.7520    0.2640   20.4010 O.3       1 HIZ        -0.3600
     20 SAT        19.1580    2.2100   18.9000 S.3       1 HIZ        -0.0031
     21 CAU        18.8250    5.0530   17.6250 C.2       1 HIZ         0.3283
     22 CAV        24.1270    2.2690   20.8320 C.ar      1 HIZ        -0.0175
     23 CAW        15.0620    8.3580   17.0730 C.ar      1 HIZ         0.1298
     24 CAX        17.5160    6.9620   17.1870 C.ar      1 HIZ         0.0641
     25 CAY        15.4800    7.7590   18.2550 C.ar      1 HIZ         0.0601
     26 CAZ        21.2540    1.1910   18.1260 C.2       1 HIZ         0.0187
     27 CBA        20.2130    3.1870   17.9380 C.2       1 HIZ         0.2035
     28 CBB        22.4240    0.2180   17.8700 C.3       1 HIZ         0.0275
     29 H1         22.7934   -1.3953   16.6837 H         1 HIZ         0.2009
     30 H2         21.7985   -0.2784   15.9967 H         1 HIZ         0.2009
     31 H3         21.2270   -1.2756   17.1750 H         1 HIZ         0.2009
     32 H4         24.4512    6.1156   21.0395 H         1 HIZ         0.0559
     33 H5         22.4765    5.1135   19.9043 H         1 HIZ         0.0599
     34 H6         26.1956    4.6644   22.0232 H         1 HIZ         0.0599
     35 H7         22.2847    2.6431   19.7858 H         1 HIZ         0.0557
     36 H8         25.9996    2.1940   21.9046 H         1 HIZ         0.0557
     37 H9         15.5567    8.7051   15.0107 H         1 HIZ         0.0566
     38 H10        17.6951    7.4741   15.1069 H         1 HIZ         0.0495
     39 H11        20.0004   -0.1011   19.3695 H         1 HIZ         0.0413
     40 H12        16.9978    6.5894   19.2501 H         1 HIZ         0.0498
     41 H13        24.7483    0.5518   20.0107 H         1 HIZ         0.0724
     42 H14        24.2877    0.4947   21.7460 H         1 HIZ         0.0724
     43 H15        22.2369   -1.4127   19.2677 H         1 HIZ         0.0639
     44 H16        23.9141   -0.8114   19.0394 H         1 HIZ         0.0639
     45 H17        19.4668    6.7203   16.6837 H         1 HIZ         0.2252
     46 H18        20.7554    4.9173   17.0266 H         1 HIZ         0.2420
     47 H19        23.2805    0.7967   17.4937 H         1 HIZ         0.1007
@<TRIPOS>BOND
     1   28    1 1  
     2   21    2 2  
     3   23    3 1  
     4   25    4 1  
     5    6    5 ar 
     6    7    5 ar 
     7    8    6 ar 
     8    9    7 ar 
     9   22    8 ar 
    10   22    9 ar 
    11   11   10 ar 
    12   10   23 ar 
    13   24   11 ar 
    14   12   20 1  
    15   26   12 2  
    16   24   13 ar 
    17   13   25 ar 
    18   19   14 1  
    19   14   22 1  
    20   15   19 1  
    21   28   15 1  
    22   26   16 1  
    23   16   27 2  
    24   21   17 am 
    25   17   24 1  
    26   18   21 am 
    27   27   18 1  
    28   27   20 1  
    29   25   23 ar 
    30   26   28 1  
    31    1   29 1  
    32    1   30 1  
    33    1   31 1  
    34    5   32 1  
    35    6   33 1  
    36    7   34 1  
    37    8   35 1  
    38    9   36 1  
    39   10   37 1  
    40   11   38 1  
    41   12   39 1  
    42   13   40 1  
    43   14   41 1  
    44   14   42 1  
    45   15   43 1  
    46   15   44 1  
    47   17   45 1  
    48   18   46 1  
    49   28   47 1  
@<TRIPOS>SUBSTRUCTURE
     1 HIZ         1

