### 
### Created by X-TOOL on Mon Sep 10 21:12:59 2018
### 

@<TRIPOS>MOLECULE
3iww_ligand
   51    51     1     0     0
SMALL
GAST_HUCK


@<TRIPOS>ATOM
      1 C2         13.7880   47.1210   40.4710 C.2       1 YZE        -0.1173
      2 C4         14.9220   46.3540   40.3040 C.2       1 YZE        -0.0854
      3 C5         14.8830   44.8840   40.6840 C.3       1 YZE         0.0099
      4 C6         16.2680   44.3150   41.0210 C.3       1 YZE         0.1048
      5 C7         17.2720   44.4790   39.8440 C.2       1 YZE         0.0622
      6 O8         17.1860   43.6790   38.8630 O.co2     1 YZE        -0.5664
      7 O9         18.1870   45.3290   39.9880 O.co2     1 YZE        -0.5664
      8 N10        16.9100   45.0310   42.0950 N.am      1 YZE        -0.2555
      9 C11        18.0600   44.5840   42.5490 C.2       1 YZE         0.2609
     10 N12        18.6020   45.3360   43.4890 N.am      1 YZE        -0.2576
     11 C13        19.9210   45.0470   44.0430 C.3       1 YZE         0.0947
     12 C14        20.9220   45.7120   43.0540 C.3       1 YZE        -0.0181
     13 C15        22.3670   45.1740   43.1190 C.3       1 YZE        -0.0476
     14 C16        23.4210   45.9150   42.2060 C.3       1 YZE        -0.0326
     15 C17        23.5050   47.4540   42.3910 C.3       1 YZE         0.0305
     16 N18        23.6640   47.8450   43.8190 N.am      1 YZE        -0.2858
     17 C19        23.1740   49.0040   44.2920 C.2       1 YZE         0.2067
     18 C20        23.2870   49.3190   45.8240 C.ar      1 YZE         0.0523
     19 C21        22.7250   50.4980   46.4000 C.ar      1 YZE        -0.0391
     20 C22        22.8220   50.7700   47.8080 C.ar      1 YZE        -0.0453
     21 C23        23.4850   49.9060   48.7130 C.ar      1 YZE         0.0137
     22 I24        23.6840   50.1910   50.9180 I         1 YZE        -0.0459
     23 C25        24.0270   48.7550   48.0810 C.ar      1 YZE        -0.0453
     24 C26        23.9420   48.4470   46.6990 C.ar      1 YZE        -0.0391
     25 O27        22.5200   49.7510   43.5680 O.2       1 YZE        -0.3836
     26 C28        20.0050   45.6770   45.4580 C.2       1 YZE         0.0599
     27 O29        19.5440   46.8440   45.6470 O.co2     1 YZE        -0.5666
     28 O30        20.4350   44.9300   46.3480 O.co2     1 YZE        -0.5666
     29 O31        18.5840   43.5330   42.1340 O.2       1 YZE        -0.4006
     30 H1         13.8002   48.1765   40.2031 H         1 YZE         0.0290
     31 H2         12.8804   46.6711   40.8707 H         1 YZE         0.0290
     32 H3         15.8335   46.7966   39.9049 H         1 YZE         0.0674
     33 H4         14.4660   44.3147   39.8402 H         1 YZE         0.0483
     34 H5         14.2323   44.7663   41.5630 H         1 YZE         0.0483
     35 H6         16.1553   43.2527   41.2834 H         1 YZE         0.0750
     36 H7         16.4898   45.8498   42.4861 H         1 YZE         0.1871
     37 H8         18.0941   46.1265   43.8314 H         1 YZE         0.1869
     38 H9         20.1001   43.9634   44.1045 H         1 YZE         0.0723
     39 H10        20.9503   46.7898   43.2721 H         1 YZE         0.0305
     40 H11        20.5461   45.5544   42.0323 H         1 YZE         0.0305
     41 H12        22.3464   44.1159   42.8191 H         1 YZE         0.0268
     42 H13        22.7095   45.2532   44.1613 H         1 YZE         0.0268
     43 H14        23.1599   45.7142   41.1565 H         1 YZE         0.0285
     44 H15        24.4133   45.4934   42.4242 H         1 YZE         0.0285
     45 H16        22.5820   47.9078   42.0009 H         1 YZE         0.0519
     46 H17        24.3679   47.8318   41.8229 H         1 YZE         0.0519
     47 H18        24.1475   47.2299   44.4418 H         1 YZE         0.1845
     48 H19        22.2121   51.2061   45.7593 H         1 YZE         0.0675
     49 H20        22.3680   51.6756   48.1937 H         1 YZE         0.0657
     50 H21        24.5532   48.0480   48.7121 H         1 YZE         0.0657
     51 H22        24.3859   47.5334   46.3203 H         1 YZE         0.0675
@<TRIPOS>BOND
     1    1    2 2  
     2    2    3 1  
     3    3    4 1  
     4    4    5 1  
     5    4    8 1  
     6    5    6 ar 
     7    5    7 ar 
     8    8    9 am 
     9    9   10 am 
    10    9   29 2  
    11   10   11 1  
    12   11   12 1  
    13   11   26 1  
    14   12   13 1  
    15   13   14 1  
    16   14   15 1  
    17   15   16 1  
    18   16   17 am 
    19   17   18 1  
    20   17   25 2  
    21   18   19 ar 
    22   18   24 ar 
    23   19   20 ar 
    24   20   21 ar 
    25   21   22 1  
    26   21   23 ar 
    27   23   24 ar 
    28   26   27 ar 
    29   26   28 ar 
    30    1   30 1  
    31    1   31 1  
    32    2   32 1  
    33    3   33 1  
    34    3   34 1  
    35    4   35 1  
    36    8   36 1  
    37   10   37 1  
    38   11   38 1  
    39   12   39 1  
    40   12   40 1  
    41   13   41 1  
    42   13   42 1  
    43   14   43 1  
    44   14   44 1  
    45   15   45 1  
    46   15   46 1  
    47   16   47 1  
    48   19   48 1  
    49   20   49 1  
    50   23   50 1  
    51   24   51 1  
@<TRIPOS>SUBSTRUCTURE
     1 YZE         1

