### 
### Created by X-TOOL on Mon Sep 10 21:12:46 2018
### 

@<TRIPOS>MOLECULE
3jdw_ligand
   22    21     1     0     0
SMALL
GAST_HUCK


@<TRIPOS>ATOM
      1 N          45.3460   72.9490   15.1450 N.4       1 ORN         0.2327
      2 CA         44.3150   72.5380   16.1400 C.3       1 ORN         0.0285
      3 CB         44.6570   71.1800   16.7980 C.3       1 ORN         0.0072
      4 CG         46.1290   70.8250   17.0110 C.3       1 ORN        -0.0060
      5 CD         46.2630   69.2890   17.1560 C.3       1 ORN        -0.0351
      6 NE         47.6880   68.7310   17.0320 N.4       1 ORN         0.2185
      7 C          44.0600   73.6230   17.1850 C.2       1 ORN         0.0844
      8 O          43.1520   73.4310   18.0170 O.co2     1 ORN        -0.5643
      9 OXT        44.7150   74.6930   17.1210 O.co2     1 ORN        -0.5643
     10 H1         45.4827   72.2068   14.4767 H         1 ORN         0.2010
     11 H2         46.2149   73.1377   15.6199 H         1 ORN         0.2010
     12 H3         45.0377   73.7803   14.6655 H         1 ORN         0.2010
     13 H4         43.3745   72.3988   15.5867 H         1 ORN         0.1024
     14 H5         44.2211   70.3930   16.1650 H         1 ORN         0.0340
     15 H6         44.1730   71.1662   17.7857 H         1 ORN         0.0340
     16 H7         46.4978   71.3149   17.9242 H         1 ORN         0.0320
     17 H8         46.7191   71.1665   16.1478 H         1 ORN         0.0320
     18 H9         45.6473   68.8206   16.3740 H         1 ORN         0.0813
     19 H10        45.8748   69.0077   18.1460 H         1 ORN         0.0813
     20 H11        47.6671   67.7291   17.1405 H         1 ORN         0.1994
     21 H12        48.2704   69.1345   17.7490 H         1 ORN         0.1994
     22 H13        48.0620   68.9630   16.1252 H         1 ORN         0.1994
@<TRIPOS>BOND
     1    1    2 1  
     2    2    7 1  
     3    2    3 1  
     4    3    4 1  
     5    4    5 1  
     6    5    6 1  
     7    7    9 ar 
     8    7    8 ar 
     9    1   10 1  
    10    1   11 1  
    11    1   12 1  
    12    2   13 1  
    13    3   14 1  
    14    3   15 1  
    15    4   16 1  
    16    4   17 1  
    17    5   18 1  
    18    5   19 1  
    19    6   20 1  
    20    6   21 1  
    21    6   22 1  
@<TRIPOS>SUBSTRUCTURE
     1 ORN         1

