### 
### Created by X-TOOL on Mon Sep 10 21:13:00 2018
### 

@<TRIPOS>MOLECULE
3jpv_ligand
   28    31     1     0     0
SMALL
GAST_HUCK


@<TRIPOS>ATOM
      1 CAA        25.9580   47.7130   -0.6830 C.ar      1 1DR         0.0631
      2 CAB        25.5940   46.4990   -1.2530 C.ar      1 1DR        -0.0414
      3 CAC        25.2090   45.4660   -0.4020 C.ar      1 1DR        -0.0741
      4 CAD        25.1930   45.6560    0.9930 C.ar      1 1DR        -0.0760
      5 CAE        25.5530   46.8670    1.5720 C.ar      1 1DR        -0.0700
      6 CAF        25.9480   47.8800    0.7160 C.ar      1 1DR        -0.0104
      7 CAG        26.3450   49.1820    0.9840 C.ar      1 1DR        -0.0157
      8 CAH        26.5880   49.7730   -0.2590 C.ar      1 1DR         0.0902
      9 NAI        26.3300   48.8730   -1.2470 N.pl3     1 1DR        -0.2765
     10 CAJ        26.4820   49.8850    2.1680 C.ar      1 1DR        -0.0843
     11 CAK        26.9070   51.2190    2.1170 C.ar      1 1DR        -0.0860
     12 CAL        27.1570   51.8020    0.8720 C.ar      1 1DR        -0.0191
     13 CAM        27.0070   51.0860   -0.3080 C.ar      1 1DR         0.0956
     14 CAN        27.5600   53.0660    0.4560 C.2       1 1DR         0.0264
     15 CAO        27.6540   53.1220   -0.8770 C.2       1 1DR         0.0461
     16 NAP        27.3050   51.8990   -1.3350 N.pl3     1 1DR        -0.2722
     17 CAQ        27.8760   54.2070    1.4170 C.2       1 1DR         0.0994
     18 OAR        27.6810   54.0410    2.6210 O.2       1 1DR        -0.3825
     19 H1         25.6093   46.3602   -2.3280 H         1 1DR         0.0537
     20 H2         24.9192   44.5075   -0.8172 H         1 1DR         0.0560
     21 H3         24.8915   44.8348    1.6332 H         1 1DR         0.0515
     22 H4         25.5256   47.0116    2.6460 H         1 1DR         0.0566
     23 H5         26.4073   49.0521   -2.2584 H         1 1DR         0.2154
     24 H6         26.2642   49.4117    3.1186 H         1 1DR         0.0480
     25 H7         27.0398   51.7898    3.0289 H         1 1DR         0.0437
     26 H8         27.9524   53.9820   -1.4747 H         1 1DR         0.1053
     27 H9         27.2723   51.6293   -2.3285 H         1 1DR         0.2314
     28 H10        28.2675   55.1525    1.0445 H         1 1DR         0.1257
@<TRIPOS>BOND
     1    1    2 ar 
     2    1    6 ar 
     3    1    9 1  
     4    2    3 ar 
     5    3    4 ar 
     6    4    5 ar 
     7    5    6 ar 
     8    6    7 1  
     9    7    8 ar 
    10    7   10 ar 
    11    8    9 1  
    12    8   13 ar 
    13   10   11 ar 
    14   11   12 ar 
    15   12   13 ar 
    16   12   14 1  
    17   13   16 1  
    18   14   15 2  
    19   14   17 1  
    20   15   16 1  
    21   17   18 2  
    22    2   19 1  
    23    3   20 1  
    24    4   21 1  
    25    5   22 1  
    26    9   23 1  
    27   10   24 1  
    28   11   25 1  
    29   15   26 1  
    30   16   27 1  
    31   17   28 1  
@<TRIPOS>SUBSTRUCTURE
     1 1DR         1

