### 
### Created by X-TOOL on Mon Sep 10 21:12:59 2018
### 

@<TRIPOS>MOLECULE
3jq7_ligand
   32    34     1     0     0
SMALL
GAST_HUCK


@<TRIPOS>ATOM
      1 C4          8.3350   -9.5310   14.8690 C.ar      1 DX2         0.1446
      2 C6          7.8150  -13.0070   13.9630 C.ar      1 DX2         0.0997
      3 C7          9.1360  -13.3600   13.6130 C.ar      1 DX2         0.1478
      4 N1         10.8630  -10.2350   14.1350 N.ar      1 DX2        -0.2760
      5 N2         11.5690   -8.0470   14.6000 N.pl3     1 DX2        -0.3061
      6 N3          9.3380   -8.6160   14.9330 N.ar      1 DX2        -0.2376
      7 CAG         5.4890  -13.2700   14.4470 C.2       1 DX2        -0.0688
      8 CAE         4.2740  -14.0060   14.5020 C.2       1 DX2        -0.0875
      9 CAD         4.0900  -15.3630   14.1610 C.2       1 DX2        -0.0890
     10 CAF         5.2090  -16.0570   13.7810 C.2       1 DX2        -0.0817
     11 CAH         6.2580  -15.0960   13.5190 C.3       1 DX2        -0.0032
     12 CAN         6.7160  -13.8570   14.1690 C.3       1 DX2         0.0480
     13 N5          7.6020  -11.7350   14.4010 N.ar      1 DX2        -0.2691
     14 C4A         8.6000  -10.8220   14.4420 C.ar      1 DX2         0.1186
     15 N4          7.0750   -9.2460   15.2520 N.pl3     1 DX2        -0.3074
     16 C2         10.5910   -8.9690   14.5560 C.ar      1 DX2         0.1616
     17 C8A         9.8900  -11.1620   14.0590 C.ar      1 DX2         0.0973
     18 N8         10.1380  -12.4180   13.6300 N.ar      1 DX2        -0.2613
     19 NAB         9.4630  -14.5990   13.1720 N.pl3     1 DX2        -0.3116
     20 H          12.5269   -8.2984   14.3170 H         1 DX2         0.1841
     21 H          11.3601   -7.0894   14.9167 H         1 DX2         0.1841
     22 H           5.4558  -12.1972   14.6313 H         1 DX2         0.0623
     23 H           3.3922  -13.4657   14.8433 H         1 DX2         0.0413
     24 H           3.1091  -15.8345   14.1979 H         1 DX2         0.0404
     25 H           5.2934  -17.1391   13.6921 H         1 DX2         0.0616
     26 H           6.0359  -14.7658   12.4935 H         1 DX2         0.0492
     27 H           7.1645  -15.7191   13.5154 H         1 DX2         0.0492
     28 H           7.0355  -14.2559   15.1431 H         1 DX2         0.0684
     29 H           6.3419   -9.9667   15.1884 H         1 DX2         0.1878
     30 H           6.8449   -8.3074   15.6083 H         1 DX2         0.1878
     31 H          10.4392  -14.8173   12.9265 H         1 DX2         0.1827
     32 H           8.7353  -15.3224   13.0824 H         1 DX2         0.1827
@<TRIPOS>BOND
     1    1    6 ar 
     2   14    1 ar 
     3    1   15 1  
     4    2    3 ar 
     5    2   12 1  
     6   13    2 ar 
     7    3   18 ar 
     8    3   19 1  
     9   16    4 ar 
    10    4   17 ar 
    11   16    5 1  
    12    6   16 ar 
    13    7    8 2  
    14   12    7 1  
    15    8    9 1  
    16   10    9 2  
    17   11   10 1  
    18   12   11 1  
    19   13   14 ar 
    20   14   17 ar 
    21   17   18 ar 
    22    5   20 1  
    23    5   21 1  
    24    7   22 1  
    25    8   23 1  
    26    9   24 1  
    27   10   25 1  
    28   11   26 1  
    29   11   27 1  
    30   12   28 1  
    31   15   29 1  
    32   15   30 1  
    33   19   31 1  
    34   19   32 1  
@<TRIPOS>SUBSTRUCTURE
     1 DX2         1

