### 
### Created by X-TOOL on Mon Sep 10 21:13:02 2018
### 

@<TRIPOS>MOLECULE
3jq8_ligand
   29    30     1     0     0
SMALL
GAST_HUCK


@<TRIPOS>ATOM
      1 C4          3.6170  -11.3040   43.0230 C.ar      1 DX3         0.1480
      2 C5          2.7760  -10.8990   44.0560 C.ar      1 DX3         0.1762
      3 C6          2.7470   -9.5490   44.3960 C.ar      1 DX3         0.1583
      4 N1          3.5270   -8.6800   43.7310 N.ar      1 DX3        -0.2350
      5 N3          4.3730  -10.3960   42.3900 N.ar      1 DX3        -0.2359
      6 NAI         3.6910  -12.6470   42.6470 N.pl3     1 DX3        -0.3376
      7 CAO         2.7470  -13.6530   43.1900 C.3       1 DX3         0.0308
      8 CAB         3.5470  -14.8860   43.6300 C.3       1 DX3        -0.0790
      9 CAC         1.8010  -13.9980   42.0440 C.3       1 DX3        -0.0790
     10 CAJ         1.9390  -13.0860   44.3830 C.2       1 DX3         0.0150
     11 CAA         1.0250  -13.9870   45.2280 C.3       1 DX3        -0.0190
     12 NAF         2.0100  -11.7860   44.7150 N.2       1 DX3        -0.2365
     13 C2          4.3270   -9.1000   42.7340 C.ar      1 DX3         0.1771
     14 NAD         5.0910   -8.2320   42.0820 N.pl3     1 DX3        -0.2984
     15 NAE         1.9570   -9.1200   45.3760 N.pl3     1 DX3        -0.3048
     16 H           4.4162  -12.9446   41.9788 H         1 DX3         0.1744
     17 H           2.8600  -15.6431   44.0360 H         1 DX3         0.0095
     18 H           4.2718  -14.5956   44.4048 H         1 DX3         0.0095
     19 H           4.0828  -15.3034   42.7647 H         1 DX3         0.0095
     20 H           1.0698  -14.7459   42.3847 H         1 DX3         0.0095
     21 H           2.3788  -14.4071   41.2021 H         1 DX3         0.0095
     22 H           1.2722  -13.0899   41.7189 H         1 DX3         0.0095
     23 H           0.5485  -13.3880   46.0181 H         1 DX3         0.0427
     24 H           1.6225  -14.7890   45.6860 H         1 DX3         0.0427
     25 H           0.2496  -14.4289   44.5850 H         1 DX3         0.0427
     26 H           5.0670   -7.2337   42.3343 H         1 DX3         0.1901
     27 H           5.7078   -8.5568   41.3238 H         1 DX3         0.1901
     28 H           1.9396   -8.1203   45.6232 H         1 DX3         0.1900
     29 H           1.3625   -9.7875   45.8878 H         1 DX3         0.1900
@<TRIPOS>BOND
     1    1    2 ar 
     2    1    5 ar 
     3    1    6 1  
     4    2    3 ar 
     5    2   12 1  
     6    3    4 ar 
     7    3   15 1  
     8    4   13 ar 
     9    5   13 ar 
    10    6    7 1  
    11    7    8 1  
    12    7    9 1  
    13    7   10 1  
    14   10   11 1  
    15   10   12 2  
    16   13   14 1  
    17    6   16 1  
    18    8   17 1  
    19    8   18 1  
    20    8   19 1  
    21    9   20 1  
    22    9   21 1  
    23    9   22 1  
    24   11   23 1  
    25   11   24 1  
    26   11   25 1  
    27   14   26 1  
    28   14   27 1  
    29   15   28 1  
    30   15   29 1  
@<TRIPOS>SUBSTRUCTURE
     1 DX3         1

