### 
### Created by X-TOOL on Mon Sep 10 21:13:02 2018
### 

@<TRIPOS>MOLECULE
3jq9_ligand
   32    35     1     0     0
SMALL
GAST_HUCK


@<TRIPOS>ATOM
      1 CAG         0.0260  -10.0450   48.4770 C.ar      1 AX1         0.0007
      2 CAQ        -0.8300  -10.3590   49.5370 C.ar      1 AX1         0.1562
      3 OAM        -1.0040   -9.7890   50.7620 O.3       1 AX1        -0.2780
      4 CAH        -1.5840  -10.8460   51.5460 C.3       1 AX1         0.1991
      5 OAL        -2.4200  -11.5250   50.5990 O.3       1 AX1        -0.2621
      6 CAP        -1.7120  -11.4400   49.4410 C.ar      1 AX1         0.1646
      7 CAF        -1.7450  -12.2110   48.2850 C.ar      1 AX1        -0.0037
      8 CAE        -0.8930  -11.8900   47.2330 C.ar      1 AX1        -0.0330
      9 CAO         0.0000  -10.8130   47.3100 C.ar      1 AX1         0.0486
     10 CAS         0.8620  -10.5150   46.2420 C.2       1 AX1         0.1665
     11 NAK         1.4530   -9.3570   45.9270 N.pl3     1 AX1        -0.1760
     12 CAU         2.2120   -9.5030   44.8300 C.2       1 AX1         0.2624
     13 NAI         2.9830   -8.6340   44.1410 N.pl3     1 AX1        -0.2140
     14 CAN         3.6680   -9.0170   43.0440 C.cat     1 AX1         0.1909
     15 NAB         4.4220   -8.1470   42.3810 N.pl3     1 AX1        -0.3361
     16 NAJ         3.6030  -10.3390   42.5860 N.am      1 AX1        -0.2583
     17 CAT         2.8150  -11.2560   43.2760 C.2       1 AX1         0.2144
     18 OAC         2.7470  -12.4210   42.8830 O.2       1 AX1        -0.3868
     19 CAV         2.1200  -10.8300   44.4050 C.2       1 AX1         0.1767
     20 CAR         1.2690  -11.4530   45.3010 C.2       1 AX1         0.1728
     21 CAD         0.8840  -12.8320   45.2610 C.1       1 AX1         0.1032
     22 NAA         0.5660  -13.9250   45.2420 N.1       1 AX1        -0.3336
     23 H           0.7087   -9.2071   48.5604 H         1 AX1         0.0636
     24 H          -2.1775  -10.4411   52.3790 H         1 AX1         0.1001
     25 H          -0.8075  -11.5174   51.9413 H         1 AX1         0.1001
     26 H          -2.4254  -13.0510   48.2042 H         1 AX1         0.0629
     27 H          -0.9208  -12.4889   46.3299 H         1 AX1         0.0725
     28 H           1.3413   -8.4779   46.4520 H         1 AX1         0.2588
     29 H           3.0493   -7.6570   44.4604 H         1 AX1         0.2355
     30 H           4.9416   -8.4485   41.5443 H         1 AX1         0.1755
     31 H           4.4870   -7.1710   42.7037 H         1 AX1         0.1755
     32 H           4.1155  -10.6202   41.7747 H         1 AX1         0.1809
@<TRIPOS>BOND
     1    1    2 ar 
     2    1    9 ar 
     3    2    3 1  
     4    2    6 ar 
     5    3    4 1  
     6    4    5 1  
     7    5    6 1  
     8    6    7 ar 
     9    7    8 ar 
    10    8    9 ar 
    11    9   10 1  
    12   10   11 1  
    13   10   20 2  
    14   11   12 1  
    15   12   13 1  
    16   12   19 2  
    17   13   14 ar 
    18   14   15 ar 
    19   14   16 ar 
    20   16   17 am 
    21   17   18 2  
    22   17   19 1  
    23   19   20 1  
    24   20   21 1  
    25   21   22 3  
    26    1   23 1  
    27    4   24 1  
    28    4   25 1  
    29    7   26 1  
    30    8   27 1  
    31   11   28 1  
    32   13   29 1  
    33   15   30 1  
    34   15   31 1  
    35   16   32 1  
@<TRIPOS>SUBSTRUCTURE
     1 AX1         1

