### 
### Created by X-TOOL on Mon Sep 10 21:12:59 2018
### 

@<TRIPOS>MOLECULE
3jqa_ligand
   16    17     1     0     0
SMALL
GAST_HUCK


@<TRIPOS>ATOM
      1 C4          8.2050   -9.7000   14.9700 C.ar      1 DX4         0.1473
      2 C5          8.3280  -11.0020   14.5020 C.ar      1 DX4         0.0854
      3 C6          9.5880  -11.4330   14.0690 C.ar      1 DX4         0.0930
      4 C8          6.2740  -10.6440   15.1110 C.2       1 DX4         0.1047
      5 N1         10.6650  -10.6100   14.1310 N.ar      1 DX4        -0.2577
      6 N2         11.5060   -8.4890   14.6750 N.pl3     1 DX4        -0.3099
      7 N3          9.3010   -8.9360   15.0130 N.ar      1 DX4        -0.2540
      8 C2         10.5020   -9.3530   14.5970 C.ar      1 DX4         0.1616
      9 N9          6.9400   -9.5010   15.3480 N.pl3     1 DX4        -0.2384
     10 N7          7.1160  -11.5620   14.5980 N.2       1 DX4        -0.3014
     11 S6          9.8090  -13.0670   13.4610 S.3       1 DX4        -0.0927
     12 H           5.2143  -10.8039   15.3043 H         1 DX4         0.1331
     13 H          12.4488   -8.7658   14.3662 H         1 DX4         0.1809
     14 H          11.3425   -7.5415   15.0444 H         1 DX4         0.1809
     15 H           6.5486   -8.6353   15.7459 H         1 DX4         0.2384
     16 H           8.9255  -13.5520   13.4756 H         1 DX4         0.1289
@<TRIPOS>BOND
     1    1    2 ar 
     2    1    7 ar 
     3    1    9 1  
     4    2    3 ar 
     5    2   10 1  
     6    3    5 ar 
     7    3   11 1  
     8    9    4 1  
     9    4   10 2  
    10    5    8 ar 
    11    8    6 1  
    12    7    8 ar 
    13    4   12 1  
    14    6   13 1  
    15    6   14 1  
    16    9   15 1  
    17   11   16 1  
@<TRIPOS>SUBSTRUCTURE
     1 DX4         1

