### 
### Created by X-TOOL on Mon Sep 10 21:13:00 2018
### 

@<TRIPOS>MOLECULE
3jqb_ligand
   34    36     1     0     0
SMALL
GAST_HUCK


@<TRIPOS>ATOM
      1 CAF        14.7990  -16.7840   20.7260 C.ar      1 DX6        -0.0601
      2 CAD        15.0790  -17.8100   19.8260 C.ar      1 DX6        -0.0686
      3 CAC        15.2120  -19.1170   20.2880 C.ar      1 DX6        -0.0687
      4 CAE        15.0710  -19.3930   21.6480 C.ar      1 DX6        -0.0686
      5 CAG        14.7900  -18.3680   22.5460 C.ar      1 DX6        -0.0601
      6 CAN        14.6550  -17.0620   22.0850 C.ar      1 DX6        -0.0405
      7 CAI        14.3410  -15.9370   23.0700 C.3       1 DX6        -0.0066
      8 CAJ        12.8240  -15.7230   23.1480 C.3       1 DX6         0.0077
      9 CAP        12.4060  -14.3220   22.6750 C.2       1 DX6         0.0644
     10 CAH        13.1920  -13.4080   22.1000 C.2       1 DX6         0.1255
     11 NAL        12.4840  -12.3110   21.8310 N.pl3     1 DX6        -0.1651
     12 CAR        11.2240  -12.4880   22.2230 C.2       1 DX6         0.2722
     13 NAK        10.1410  -11.6900   22.1620 N.pl3     1 DX6        -0.2053
     14 CAS        11.1350  -13.7650   22.7680 C.2       1 DX6         0.1658
     15 CAQ         9.9120  -14.2200   23.2600 C.2       1 DX6         0.2106
     16 OAB         9.7970  -15.3420   23.7500 O.2       1 DX6        -0.3898
     17 NAM         8.8020  -13.3710   23.1890 N.am      1 DX6        -0.2578
     18 CAO         8.9480  -12.0940   22.6320 C.cat     1 DX6         0.1970
     19 NAA         7.8980  -11.2850   22.5580 N.pl3     1 DX6        -0.3344
     20 H          14.6927  -15.7661   20.3687 H         1 DX6         0.0557
     21 H          15.1929  -17.5918   18.7703 H         1 DX6         0.0599
     22 H          15.4250  -19.9195   19.5911 H         1 DX6         0.0559
     23 H          15.1808  -20.4100   22.0067 H         1 DX6         0.0599
     24 H          14.6766  -18.5862   23.6017 H         1 DX6         0.0557
     25 H          14.8237  -15.0088   22.7302 H         1 DX6         0.0455
     26 H          14.7235  -16.2060   24.0657 H         1 DX6         0.0455
     27 H          12.5017  -15.8545   24.1915 H         1 DX6         0.0495
     28 H          12.3282  -16.4726   22.5138 H         1 DX6         0.0495
     29 H          14.2512  -13.5391   21.8836 H         1 DX6         0.1624
     30 H          12.8546  -11.4580   21.3882 H         1 DX6         0.2656
     31 H          10.2284  -10.7514   21.7470 H         1 DX6         0.2436
     32 H           7.9128  -13.6730   23.5327 H         1 DX6         0.1809
     33 H           7.9999  -10.3450   22.1494 H         1 DX6         0.1764
     34 H           6.9815  -11.5973   22.9092 H         1 DX6         0.1764
@<TRIPOS>BOND
     1    1    2 ar 
     2    1    6 ar 
     3    2    3 ar 
     4    3    4 ar 
     5    4    5 ar 
     6    5    6 ar 
     7    6    7 1  
     8    7    8 1  
     9    8    9 1  
    10    9   10 2  
    11    9   14 1  
    12   10   11 1  
    13   11   12 1  
    14   12   13 1  
    15   12   14 2  
    16   13   18 ar 
    17   14   15 1  
    18   15   16 2  
    19   15   17 am 
    20   17   18 ar 
    21   18   19 ar 
    22    1   20 1  
    23    2   21 1  
    24    3   22 1  
    25    4   23 1  
    26    5   24 1  
    27    7   25 1  
    28    7   26 1  
    29    8   27 1  
    30    8   28 1  
    31   10   29 1  
    32   11   30 1  
    33   13   31 1  
    34   17   32 1  
    35   19   33 1  
    36   19   34 1  
@<TRIPOS>SUBSTRUCTURE
     1 DX6         1

