### 
### Created by X-TOOL on Mon Sep 10 21:12:59 2018
### 

@<TRIPOS>MOLECULE
3jqf_ligand
   15    15     1     0     0
SMALL
GAST_HUCK


@<TRIPOS>ATOM
      1 C2          9.7320  -11.3260   13.8620 C.ar      1 AX2         0.1685
      2 C4          8.2720   -9.6520   14.7120 C.ar      1 AX2         0.1685
      3 C6         10.5790   -9.1860   14.5300 C.ar      1 AX2         0.1685
      4 N7          9.8900  -12.5880   13.3710 N.pl3     1 AX2        -0.3029
      5 N8         11.6110   -8.3260   14.6930 N.pl3     1 AX2        -0.3029
      6 N5          9.3140   -8.7940   14.8700 N.ar      1 AX2        -0.2373
      7 N9          7.0250   -9.2710   15.0670 N.pl3     1 AX2        -0.3029
      8 N3          8.4640  -10.9100   14.1970 N.ar      1 AX2        -0.2373
      9 N1         10.7970  -10.4910   14.0610 N.ar      1 AX2        -0.2373
     10 H           9.0682  -13.1932   13.2321 H         1 AX2         0.1858
     11 H          10.8312  -12.9362   13.1389 H         1 AX2         0.1858
     12 H          11.4363   -7.3714   15.0380 H         1 AX2         0.1858
     13 H          12.5712   -8.6261   14.4721 H         1 AX2         0.1858
     14 H           6.8647   -8.3304   15.4549 H         1 AX2         0.1858
     15 H           6.2348   -9.9212   14.9497 H         1 AX2         0.1858
@<TRIPOS>BOND
     1    1    4 1  
     2    8    1 ar 
     3    1    9 ar 
     4    6    2 ar 
     5    2    7 1  
     6    2    8 ar 
     7    3    5 1  
     8    3    6 ar 
     9    3    9 ar 
    10    4   10 1  
    11    4   11 1  
    12    5   12 1  
    13    5   13 1  
    14    7   14 1  
    15    7   15 1  
@<TRIPOS>SUBSTRUCTURE
     1 AX2         1

