### 
### Created by X-TOOL on Mon Sep 10 21:13:01 2018
### 

@<TRIPOS>MOLECULE
3jqg_ligand
   32    33     1     0     0
SMALL
GAST_HUCK


@<TRIPOS>ATOM
      1 C4          9.8370  -11.2870   14.4320 C.ar      1 AX6         0.0765
      2 C5          8.5150  -10.8630   14.7560 C.ar      1 AX6         0.0030
      3 C6          8.3040   -9.5260   15.1660 C.ar      1 AX6         0.1022
      4 N1          9.3660   -8.6970   15.2120 N.ar      1 AX6        -0.2525
      5 N3         10.8370  -10.4000   14.5120 N.ar      1 AX6        -0.2633
      6 CAA         3.6200  -14.3990   16.7080 C.3       1 AX6         0.0579
      7 OAL         4.6220  -15.4440   16.5670 O.3       1 AX6        -0.3257
      8 CAP         5.6410  -15.0030   15.7860 C.ar      1 AX6         0.0837
      9 CAG         5.3490  -14.5400   14.5030 C.ar      1 AX6        -0.0396
     10 CAE         6.3590  -14.0630   13.6740 C.ar      1 AX6        -0.0678
     11 CAF         6.9540  -15.0040   16.2550 C.ar      1 AX6        -0.0396
     12 CAD         7.9670  -14.5180   15.4200 C.ar      1 AX6        -0.0678
     13 CAO         7.6740  -14.0460   14.1260 C.ar      1 AX6        -0.0411
     14 CAI         8.7380  -13.5180   13.1440 C.3       1 AX6         0.0396
     15 SAM        10.3140  -12.9620   13.9050 S.3       1 AX6        -0.0685
     16 C2         10.6100   -9.1220   14.9000 C.ar      1 AX6         0.1623
     17 NAC        11.6300   -8.2720   14.9750 N.pl3     1 AX6        -0.3078
     18 NAB         7.0810   -9.0380   15.5110 N.pl3     1 AX6        -0.3198
     19 H           7.6836  -11.5553   14.6891 H         1 AX6         0.0502
     20 H           2.7976  -14.7627   17.3416 H         1 AX6         0.0575
     21 H           3.2276  -14.1310   15.7160 H         1 AX6         0.0575
     22 H           4.0770  -13.5131   17.1731 H         1 AX6         0.0575
     23 H           4.3247  -14.5520   14.1484 H         1 AX6         0.0525
     24 H           6.1217  -13.7056   12.6785 H         1 AX6         0.0530
     25 H           7.1859  -15.3740   17.2472 H         1 AX6         0.0525
     26 H           8.9913  -14.5048   15.7745 H         1 AX6         0.0530
     27 H           8.3045  -12.6646   12.6020 H         1 AX6         0.0548
     28 H           8.9716  -14.3239   12.4327 H         1 AX6         0.0548
     29 H          11.4683   -7.2982   15.2689 H         1 AX6         0.1823
     30 H          12.5817   -8.5875   14.7392 H         1 AX6         0.1823
     31 H           6.9823   -8.0551   15.8028 H         1 AX6         0.1801
     32 H           6.2543   -9.6516   15.4803 H         1 AX6         0.1801
@<TRIPOS>BOND
     1    1    2 ar 
     2    1    5 ar 
     3   15    1 1  
     4    2    3 ar 
     5    3    4 ar 
     6    3   18 1  
     7   16    4 ar 
     8    5   16 ar 
     9    7    6 1  
    10    8    7 1  
    11    9    8 ar 
    12   11    8 ar 
    13   10    9 ar 
    14   13   10 ar 
    15   12   11 ar 
    16   13   12 ar 
    17   14   13 1  
    18   14   15 1  
    19   16   17 1  
    20    2   19 1  
    21    6   20 1  
    22    6   21 1  
    23    6   22 1  
    24    9   23 1  
    25   10   24 1  
    26   11   25 1  
    27   12   26 1  
    28   14   27 1  
    29   14   28 1  
    30   17   29 1  
    31   17   30 1  
    32   18   31 1  
    33   18   32 1  
@<TRIPOS>SUBSTRUCTURE
     1 AX6         1

