### 
### Created by X-TOOL on Mon Sep 10 21:13:00 2018
### 

@<TRIPOS>MOLECULE
3jrs_ligand
   40    40     1     0     0
SMALL
GAST_HUCK


@<TRIPOS>ATOM
      1 C1         30.4800  -14.7790   22.5860 C.2       1 A8S         0.0399
      2 C2         31.7790  -15.4850   22.8930 C.3       1 A8S         0.0281
      3 C3         32.0330  -16.8110   22.2050 C.3       1 A8S         0.0401
      4 C4         31.8270  -16.9400   20.6880 C.2       1 A8S        -0.0168
      5 C5         32.1870  -18.1010   20.0840 C.2       1 A8S        -0.0826
      6 C6         33.2820  -17.4930   22.7410 C.3       1 A8S        -0.0351
      7 C7         31.8590  -18.2470   18.5940 C.3       1 A8S         0.0026
      8 O7         30.8070  -17.3270   18.2230 O.3       1 A8S        -0.4705
      9 C8         33.0880  -18.0450   17.7010 C.2       1 A8S        -0.0521
     10 C9         33.6200  -19.1980   17.4220 C.2       1 A8S         0.0458
     11 C10        33.5290  -20.4250   17.6660 C.2       1 A8S         0.1554
     12 O10        34.3290  -21.4230   17.2910 O.3       1 A8S        -0.2764
     13 C11        32.4290  -20.6450   18.4810 C.2       1 A8S        -0.0837
     14 O11        29.9900  -14.0730   23.5170 O.co2     1 A8S        -0.5686
     15 C12        31.2650  -19.6720   18.3920 C.3       1 A8S        -0.1111
     16 O12        30.0130  -14.7880   21.4170 O.co2     1 A8S        -0.5686
     17 C13        33.4430  -16.6590   17.2400 C.3       1 A8S        -0.0209
     18 C14        30.6320  -19.9130   16.9990 C.3       1 A8S        -0.1266
     19 C15        30.1500  -19.9800   19.4290 C.3       1 A8S        -0.1266
     20 H1         31.8078  -15.6656   23.9777 H         1 A8S         0.0488
     21 H2         32.5976  -14.8059   22.6125 H         1 A8S         0.0488
     22 H3         31.2166  -17.4368   22.5946 H         1 A8S         0.0727
     23 H4         31.4024  -16.1197   20.1112 H         1 A8S         0.1464
     24 H5         32.6880  -18.8955   20.6351 H         1 A8S         0.0477
     25 H6         33.4309  -18.4490   22.2177 H         1 A8S         0.0288
     26 H7         33.1642  -17.6794   23.8187 H         1 A8S         0.0288
     27 H8         34.1544  -16.8440   22.5743 H         1 A8S         0.0288
     28 H9         30.0284  -17.5154   18.7337 H         1 A8S         0.1813
     29 H10        34.4415  -19.0422   16.7243 H         1 A8S         0.0992
     30 H11        33.9932  -22.2426   17.6344 H         1 A8S         0.2821
     31 H12        32.4000  -21.4913   19.1657 H         1 A8S         0.0475
     32 H13        34.3459  -16.7011   16.6131 H         1 A8S         0.0506
     33 H14        33.6333  -16.0192   18.1143 H         1 A8S         0.0506
     34 H15        32.6097  -16.2424   16.6552 H         1 A8S         0.0506
     35 H16        30.2406  -20.9397   16.9468 H         1 A8S         0.0025
     36 H17        31.3955  -19.7716   16.2199 H         1 A8S         0.0025
     37 H18        29.8103  -19.1989   16.8411 H         1 A8S         0.0025
     38 H19        30.5417  -19.8257   20.4452 H         1 A8S         0.0025
     39 H20        29.8231  -21.0243   19.3167 H         1 A8S         0.0025
     40 H21        29.2958  -19.3081   19.2594 H         1 A8S         0.0025
@<TRIPOS>BOND
     1    1    2 1  
     2    1   14 ar 
     3    1   16 ar 
     4    2    3 1  
     5    3    4 1  
     6    3    6 1  
     7    4    5 2  
     8    5    7 1  
     9    7    8 1  
    10    7    9 1  
    11    7   15 1  
    12    9   10 2  
    13    9   17 1  
    14   10   11 1  
    15   11   12 1  
    16   11   13 2  
    17   13   15 1  
    18   15   18 1  
    19   15   19 1  
    20    2   20 1  
    21    2   21 1  
    22    3   22 1  
    23    4   23 1  
    24    5   24 1  
    25    6   25 1  
    26    6   26 1  
    27    6   27 1  
    28    8   28 1  
    29   10   29 1  
    30   12   30 1  
    31   13   31 1  
    32   17   32 1  
    33   17   33 1  
    34   17   34 1  
    35   18   35 1  
    36   18   36 1  
    37   18   37 1  
    38   19   38 1  
    39   19   39 1  
    40   19   40 1  
@<TRIPOS>SUBSTRUCTURE
     1 A8S         1

