### 
### Created by X-TOOL on Mon Sep 10 21:13:04 2018
### 

@<TRIPOS>MOLECULE
3jrx_ligand
   81    83     1     0     0
SMALL
GAST_HUCK


@<TRIPOS>ATOM
      1 C1        -44.2290   25.2330  -16.0730 C.2       1 S1A         0.2441
      2 C2        -43.0360   25.4650  -17.0210 C.3       1 S1A         0.1137
      3 C3        -43.0030   24.3820  -18.1640 C.3       1 S1A         0.2182
      4 C4        -41.7590   24.5840  -19.1540 C.3       1 S1A         0.1405
      5 C5        -41.9300   23.7530  -20.5000 C.3       1 S1A         0.0916
      6 C6        -43.3720   23.8570  -21.0900 C.3       1 S1A         0.0130
      7 C7        -44.4530   23.5540  -19.9770 C.3       1 S1A         0.0760
      8 C8        -45.9070   23.7030  -20.5330 C.3       1 S1A        -0.0005
      9 C9        -46.9490   23.3900  -19.3810 C.2       1 S1A        -0.0909
     10 C10       -47.2590   22.0820  -18.9900 C.2       1 S1A        -0.0675
     11 C11       -48.2920   21.7990  -17.8550 C.3       1 S1A         0.1018
     12 C12       -47.9140   20.5050  -17.0590 C.3       1 S1A         0.0908
     13 C13       -46.5260   20.6350  -16.3780 C.3       1 S1A        -0.0225
     14 C14       -46.4040   21.7570  -15.3570 C.3       1 S1A        -0.0502
     15 C15       -45.1070   21.6290  -14.6050 C.3       1 S1A        -0.0485
     16 C16       -44.9050   22.6990  -13.5500 C.3       1 S1A        -0.0120
     17 C17       -44.9800   24.1660  -14.0080 C.3       1 S1A         0.1215
     18 C19       -41.7310   25.4840  -16.2010 C.3       1 S1A        -0.0388
     19 C20       -40.1980   26.3900  -19.4450 C.3       1 S1A         0.0372
     20 C21       -43.5590   25.2460  -21.7550 C.3       1 S1A        -0.0574
     21 C22       -46.1710   22.7650  -21.7270 C.3       1 S1A        -0.0533
     22 C23       -50.5980   22.3730  -17.7070 C.3       1 S1A         0.0392
     23 C24       -47.9660   18.1030  -17.2720 C.3       1 S1A         0.0371
     24 C25       -44.6950   24.9940  -12.7240 C.ar      1 S1A        -0.0098
     25 C26       -43.3360   25.0970  -12.2360 C.ar      1 S1A        -0.0575
     26 C27       -43.0540   25.8000  -11.0500 C.ar      1 S1A        -0.0685
     27 C28       -44.1070   26.4110  -10.3270 C.ar      1 S1A        -0.0687
     28 C29       -45.4540   26.3180  -10.7970 C.ar      1 S1A        -0.0685
     29 C30       -45.7440   25.6080  -12.0010 C.ar      1 S1A        -0.0575
     30 O1        -45.3970   25.6870  -16.1590 O.2       1 S1A        -0.3697
     31 O3        -42.8940   23.0670  -17.5630 O.3       1 S1A        -0.3605
     32 O4        -41.6040   25.9910  -19.4730 O.3       1 S1A        -0.3717
     33 O5        -41.6270   22.3800  -20.2420 O.3       1 S1A        -0.3887
     34 O7        -44.2830   24.4680  -18.8540 O.3       1 S1A        -0.3385
     35 O11       -49.5960   21.6190  -18.4420 O.3       1 S1A        -0.3684
     36 O12       -47.9080   19.3820  -17.9830 O.3       1 S1A        -0.3754
     37 O18       -43.9250   24.4360  -15.0020 O.3       1 S1A        -0.2599
     38 H1        -43.1568   26.4502  -17.4950 H         1 S1A         0.0606
     39 H2        -40.8501   24.2341  -18.6427 H         1 S1A         0.0678
     40 H3        -41.2208   24.1452  -21.2438 H         1 S1A         0.0624
     41 H4        -43.4796   23.0924  -21.8735 H         1 S1A         0.0351
     42 H5        -44.3126   22.5214  -19.6248 H         1 S1A         0.0623
     43 H6        -46.0459   24.7413  -20.8686 H         1 S1A         0.0446
     44 H7        -47.4406   24.2204  -18.8764 H         1 S1A         0.0454
     45 H8        -46.7698   21.2458  -19.4875 H         1 S1A         0.0476
     46 H9        -48.3130   22.6550  -17.1645 H         1 S1A         0.0747
     47 H10       -48.6720   20.3310  -16.2811 H         1 S1A         0.0642
     48 H11       -45.7767   20.8085  -17.1644 H         1 S1A         0.0293
     49 H12       -46.3081   19.6856  -15.8669 H         1 S1A         0.0293
     50 H13       -47.2433   21.6978  -14.6485 H         1 S1A         0.0266
     51 H14       -46.4300   22.7265  -15.8761 H         1 S1A         0.0266
     52 H15       -44.2795   21.6927  -15.3269 H         1 S1A         0.0268
     53 H16       -45.0877   20.6464  -14.1109 H         1 S1A         0.0268
     54 H17       -43.9107   22.5420  -13.1065 H         1 S1A         0.0316
     55 H18       -45.6770   22.5536  -12.7801 H         1 S1A         0.0316
     56 H19       -45.9693   24.4027  -14.4267 H         1 S1A         0.0814
     57 H20       -41.8013   26.2532  -15.4178 H         1 S1A         0.0259
     58 H21       -40.8842   25.7128  -16.8647 H         1 S1A         0.0259
     59 H22       -41.5763   24.4996  -15.7352 H         1 S1A         0.0259
     60 H23       -40.1153   27.4591  -19.6904 H         1 S1A         0.0524
     61 H24       -39.6346   25.7998  -20.1827 H         1 S1A         0.0524
     62 H25       -39.7861   26.2115  -18.4408 H         1 S1A         0.0524
     63 H26       -42.7796   25.3958  -22.5166 H         1 S1A         0.0234
     64 H27       -43.4800   26.0324  -20.9900 H         1 S1A         0.0234
     65 H28       -44.5499   25.2947  -22.2300 H         1 S1A         0.0234
     66 H29       -47.2025   22.9052  -22.0823 H         1 S1A         0.0253
     67 H30       -46.0309   21.7208  -21.4109 H         1 S1A         0.0253
     68 H31       -45.4681   22.9995  -22.5400 H         1 S1A         0.0253
     69 H32       -51.5839   22.2218  -18.1709 H         1 S1A         0.0526
     70 H33       -50.3421   23.4426  -17.7301 H         1 S1A         0.0526
     71 H34       -50.6264   22.0252  -16.6638 H         1 S1A         0.0526
     72 H35       -47.9598   17.2783  -17.9999 H         1 S1A         0.0524
     73 H36       -48.8882   18.0573  -16.6741 H         1 S1A         0.0524
     74 H37       -47.0936   18.0126  -16.6081 H         1 S1A         0.0524
     75 H38       -42.5293   24.6290  -12.7885 H         1 S1A         0.0558
     76 H39       -42.0338   25.8735  -10.6910 H         1 S1A         0.0599
     77 H40       -43.8908   26.9519   -9.4128 H         1 S1A         0.0559
     78 H41       -46.2559   26.7871  -10.2385 H         1 S1A         0.0599
     79 H42       -46.7646   25.5397  -12.3598 H         1 S1A         0.0558
     80 H43       -42.0628   22.9957  -17.1085 H         1 S1A         0.2130
     81 H44       -40.7501   22.3125  -19.8828 H         1 S1A         0.2099
@<TRIPOS>BOND
     1    1    2 1  
     2    1   30 2  
     3    1   37 1  
     4    2    3 1  
     5    2   18 1  
     6    3    4 1  
     7    3   31 1  
     8    3   34 1  
     9    4    5 1  
    10    4   32 1  
    11    5    6 1  
    12    5   33 1  
    13    6    7 1  
    14    6   20 1  
    15    7    8 1  
    16    7   34 1  
    17    8    9 1  
    18    8   21 1  
    19    9   10 2  
    20   10   11 1  
    21   11   12 1  
    22   11   35 1  
    23   12   13 1  
    24   12   36 1  
    25   13   14 1  
    26   14   15 1  
    27   15   16 1  
    28   16   17 1  
    29   17   24 1  
    30   17   37 1  
    31   32   19 1  
    32   35   22 1  
    33   36   23 1  
    34   24   25 ar 
    35   24   29 ar 
    36   25   26 ar 
    37   26   27 ar 
    38   27   28 ar 
    39   28   29 ar 
    40    2   38 1  
    41    4   39 1  
    42    5   40 1  
    43    6   41 1  
    44    7   42 1  
    45    8   43 1  
    46    9   44 1  
    47   10   45 1  
    48   11   46 1  
    49   12   47 1  
    50   13   48 1  
    51   13   49 1  
    52   14   50 1  
    53   14   51 1  
    54   15   52 1  
    55   15   53 1  
    56   16   54 1  
    57   16   55 1  
    58   17   56 1  
    59   18   57 1  
    60   18   58 1  
    61   18   59 1  
    62   19   60 1  
    63   19   61 1  
    64   19   62 1  
    65   20   63 1  
    66   20   64 1  
    67   20   65 1  
    68   21   66 1  
    69   21   67 1  
    70   21   68 1  
    71   22   69 1  
    72   22   70 1  
    73   22   71 1  
    74   23   72 1  
    75   23   73 1  
    76   23   74 1  
    77   25   75 1  
    78   26   76 1  
    79   27   77 1  
    80   28   78 1  
    81   29   79 1  
    82   31   80 1  
    83   33   81 1  
@<TRIPOS>SUBSTRUCTURE
     1 S1A         1

