### 
### Created by X-TOOL on Mon Sep 10 21:13:01 2018
### 

@<TRIPOS>MOLECULE
3jsi_ligand
   40    43     1     0     0
SMALL
GAST_HUCK


@<TRIPOS>ATOM
      1 C1         77.3900   52.0750   43.8100 C.2       1 WTC         0.0728
      2 C2         77.3450   52.1930   42.4050 C.2       1 WTC         0.1309
      3 N3         78.4660   51.5860   41.9290 N.pl3     1 WTC        -0.1953
      4 N4         79.2070   51.1000   43.0150 N.2       1 WTC        -0.2264
      5 C5         78.5720   51.3730   44.1230 C.2       1 WTC         0.0034
      6 C6         76.2860   52.6670   44.5880 C.2       1 WTC         0.2128
      7 N7         75.3000   53.2910   43.8860 N.am      1 WTC        -0.1967
      8 C8         75.3350   53.3510   42.5230 C.2       1 WTC         0.1588
      9 N9         76.3090   52.8340   41.8200 N.2       1 WTC        -0.2714
     10 C10        78.8480   51.5190   40.5150 C.3       1 WTC         0.0797
     11 C11        78.8160   50.0850   39.9730 C.3       1 WTC        -0.0213
     12 C12        80.0390   50.0010   39.0390 C.3       1 WTC        -0.0501
     13 C13        81.1060   50.8390   39.7870 C.3       1 WTC        -0.0501
     14 C14        80.2920   52.0400   40.3260 C.3       1 WTC        -0.0213
     15 O15        76.2510   52.6230   45.8100 O.2       1 WTC        -0.4052
     16 C16        74.2110   54.0610   41.8070 C.3       1 WTC         0.0719
     17 C17        74.6060   55.4950   41.5470 C.ar      1 WTC        -0.0201
     18 C18        74.6090   55.9930   40.2540 C.ar      1 WTC        -0.0569
     19 C19        74.9750   57.3120   40.0100 C.ar      1 WTC        -0.0678
     20 C20        75.3420   58.1430   41.0580 C.ar      1 WTC        -0.0682
     21 C21        75.3430   57.6470   42.3520 C.ar      1 WTC        -0.0678
     22 C22        74.9720   56.3290   42.5950 C.ar      1 WTC        -0.0569
     23 H1         78.9016   51.1026   45.1251 H         1 WTC         0.0665
     24 H2         74.5377   53.7122   44.3773 H         1 WTC         0.2542
     25 H3         78.1516   52.1414   39.9339 H         1 WTC         0.0663
     26 H4         77.8864   49.9006   39.4146 H         1 WTC         0.0295
     27 H5         78.9018   49.3569   40.7930 H         1 WTC         0.0295
     28 H6         79.8146   50.4352   38.0536 H         1 WTC         0.0266
     29 H7         80.3704   48.9596   38.9140 H         1 WTC         0.0266
     30 H8         81.8976   51.1743   39.1007 H         1 WTC         0.0266
     31 H9         81.5541   50.2639   40.6106 H         1 WTC         0.0266
     32 H10        80.7046   52.3823   41.2865 H         1 WTC         0.0295
     33 H11        80.3086   52.8692   39.6034 H         1 WTC         0.0295
     34 H12        73.3058   54.0376   42.4315 H         1 WTC         0.0721
     35 H13        74.0095   53.5570   40.8502 H         1 WTC         0.0721
     36 H14        74.3245   55.3509   39.4283 H         1 WTC         0.0564
     37 H15        74.9735   57.6929   38.9951 H         1 WTC         0.0601
     38 H16        75.6256   59.1716   40.8666 H         1 WTC         0.0564
     39 H17        75.6336   58.2878   43.1766 H         1 WTC         0.0601
     40 H18        74.9685   55.9498   43.6105 H         1 WTC         0.0564
@<TRIPOS>BOND
     1    1    2 2  
     2    1    5 1  
     3    1    6 1  
     4    2    3 1  
     5    2    9 1  
     6    3    4 1  
     7    3   10 1  
     8    4    5 2  
     9    6    7 am 
    10    6   15 2  
    11    7    8 1  
    12    8    9 2  
    13    8   16 1  
    14   10   11 1  
    15   10   14 1  
    16   11   12 1  
    17   12   13 1  
    18   13   14 1  
    19   16   17 1  
    20   17   18 ar 
    21   17   22 ar 
    22   18   19 ar 
    23   19   20 ar 
    24   20   21 ar 
    25   21   22 ar 
    26    5   23 1  
    27    7   24 1  
    28   10   25 1  
    29   11   26 1  
    30   11   27 1  
    31   12   28 1  
    32   12   29 1  
    33   13   30 1  
    34   13   31 1  
    35   14   32 1  
    36   14   33 1  
    37   16   34 1  
    38   16   35 1  
    39   18   36 1  
    40   19   37 1  
    41   20   38 1  
    42   21   39 1  
    43   22   40 1  
@<TRIPOS>SUBSTRUCTURE
     1 WTC         1

