### 
### Created by X-TOOL on Mon Sep 10 21:13:00 2018
### 

@<TRIPOS>MOLECULE
3jsw_ligand
   52    55     1     0     0
SMALL
GAST_HUCK


@<TRIPOS>ATOM
      1 C1         79.6000   50.9590   40.5740 C.3       1 JAR        -0.0334
      2 C2         78.0890   50.7740   40.6380 C.3       1 JAR         0.0774
      3 C3         77.5840   49.5020   39.9690 C.3       1 JAR        -0.0334
      4 N4         77.6120   50.8250   42.0440 N.pl3     1 JAR        -0.1723
      5 N5         78.3100   50.2130   43.0960 N.2       1 JAR        -0.2275
      6 C6         77.5790   50.4910   44.2030 C.2       1 JAR         0.0001
      7 C7         76.4900   51.2790   43.8380 C.2       1 JAR         0.0738
      8 C8         75.4130   51.9930   44.5240 C.2       1 JAR         0.1305
      9 O9         75.2060   51.9600   45.7480 O.2       1 JAR        -0.4240
     10 N10        74.5850   52.7160   43.7380 N.2       1 JAR        -0.2740
     11 C11        74.6700   52.8720   42.3870 C.2       1 JAR         0.1531
     12 N12        75.6210   52.2840   41.7250 N.pl3     1 JAR        -0.1970
     13 C13        76.5310   51.4960   42.4640 C.2       1 JAR         0.2188
     14 C14        73.6620   53.6650   41.6040 C.3       1 JAR         0.0990
     15 C16        72.8240   52.7630   40.6910 C.3       1 JAR        -0.0060
     16 N17        73.1200   53.2510   39.3380 N.4       1 JAR         0.2501
     17 C18        71.9190   53.1420   38.5320 C.3       1 JAR         0.0022
     18 C19        71.6400   51.6490   38.3090 C.ar      1 JAR         0.0014
     19 C20        70.3610   51.1150   38.6550 C.ar      1 JAR        -0.0553
     20 C21        70.0770   49.7310   38.4550 C.ar      1 JAR        -0.0684
     21 C22        71.0890   48.9120   37.8990 C.ar      1 JAR        -0.0687
     22 C23        72.3490   49.4630   37.5670 C.ar      1 JAR        -0.0684
     23 C24        72.6270   50.8300   37.7740 C.ar      1 JAR        -0.0553
     24 C25        73.4570   54.6310   39.4490 C.3       1 JAR        -0.0241
     25 C26        74.3080   54.7110   40.6960 C.3       1 JAR         0.0252
     26 C28        74.5010   56.0910   41.3180 C.3       1 JAR        -0.0541
     27 H1         79.9303   50.9178   39.5256 H         1 JAR         0.0260
     28 H2         80.0920   50.1580   41.1452 H         1 JAR         0.0260
     29 H3         79.8685   51.9348   41.0049 H         1 JAR         0.0260
     30 H4         77.6402   51.6220   40.1000 H         1 JAR         0.0660
     31 H5         76.4892   49.4489   40.0615 H         1 JAR         0.0260
     32 H6         78.0361   48.6263   40.4576 H         1 JAR         0.0260
     33 H7         77.8619   49.5123   38.9047 H         1 JAR         0.0260
     34 H8         77.8061   50.1533   45.2131 H         1 JAR         0.0654
     35 H9         75.7077   52.3882   40.7039 H         1 JAR         0.2418
     36 H10        72.9991   54.1728   42.3200 H         1 JAR         0.0672
     37 H11        71.7525   52.8653   40.9175 H         1 JAR         0.0856
     38 H12        73.1231   51.7102   40.8007 H         1 JAR         0.0856
     39 H13        73.8755   52.7272   38.9245 H         1 JAR         0.2051
     40 H14        72.0703   53.6433   37.5646 H         1 JAR         0.0980
     41 H15        71.0718   53.6069   39.0574 H         1 JAR         0.0980
     42 H16        69.6010   51.7656   39.0723 H         1 JAR         0.0558
     43 H17        69.1112   49.3174   38.7219 H         1 JAR         0.0599
     44 H18        70.8978   47.8589   37.7270 H         1 JAR         0.0559
     45 H19        73.1152   48.8224   37.1456 H         1 JAR         0.0599
     46 H20        73.5988   51.2369   37.5189 H         1 JAR         0.0558
     47 H21        72.5510   55.2456   39.5560 H         1 JAR         0.0820
     48 H22        74.0249   54.9651   38.5682 H         1 JAR         0.0820
     49 H23        75.3191   54.3636   40.4372 H         1 JAR         0.0391
     50 H24        75.1360   56.0046   42.2121 H         1 JAR         0.0237
     51 H25        73.5224   56.5054   41.6020 H         1 JAR         0.0237
     52 H26        74.9838   56.7578   40.5884 H         1 JAR         0.0237
@<TRIPOS>BOND
     1    1    2 1  
     2    2    3 1  
     3    2    4 1  
     4    4    5 1  
     5    4   13 1  
     6    5    6 2  
     7    6    7 1  
     8    7    8 1  
     9    7   13 2  
    10    8    9 2  
    11    8   10 1  
    12   10   11 2  
    13   11   12 1  
    14   11   14 1  
    15   12   13 1  
    16   14   15 1  
    17   14   25 1  
    18   15   16 1  
    19   16   17 1  
    20   16   24 1  
    21   17   18 1  
    22   18   19 ar 
    23   18   23 ar 
    24   19   20 ar 
    25   20   21 ar 
    26   21   22 ar 
    27   22   23 ar 
    28   24   25 1  
    29   25   26 1  
    30    1   27 1  
    31    1   28 1  
    32    1   29 1  
    33    2   30 1  
    34    3   31 1  
    35    3   32 1  
    36    3   33 1  
    37    6   34 1  
    38   12   35 1  
    39   14   36 1  
    40   15   37 1  
    41   15   38 1  
    42   16   39 1  
    43   17   40 1  
    44   17   41 1  
    45   19   42 1  
    46   20   43 1  
    47   21   44 1  
    48   22   45 1  
    49   23   46 1  
    50   24   47 1  
    51   24   48 1  
    52   25   49 1  
    53   26   50 1  
    54   26   51 1  
    55   26   52 1  
@<TRIPOS>SUBSTRUCTURE
     1 JAR         1

