### 
### Created by X-TOOL on Mon Sep 10 21:13:00 2018
### 

@<TRIPOS>MOLECULE
3juo_ligand
   32    33     1     0     0
SMALL
GAST_HUCK


@<TRIPOS>ATOM
      1 OAA        46.0170   -4.4040   93.0130 O.co2     1 AJD        -0.5650
      2 OAB        44.0180   -4.2730   92.3020 O.co2     1 AJD        -0.5650
      3 BRAC       48.3370    0.3930   93.7750 Br        1 AJD        -0.0611
      4 CAD        45.3940    0.4840   93.4910 C.ar      1 AJD        -0.0615
      5 CAE        44.1290   -0.0540   93.2690 C.ar      1 AJD        -0.0376
      6 CAF        46.4280   -1.7090   93.2330 C.ar      1 AJD        -0.0496
      7 CAG        39.1160   -1.6360   92.4640 C.3       1 AJD        -0.0103
      8 CAH        39.0140   -0.8880   91.1380 C.3       1 AJD        -0.0335
      9 CAI        40.4580   -2.3450   92.5620 C.3       1 AJD        -0.0206
     10 CAJ        41.4870   -0.4080   91.3180 C.3       1 AJD        -0.0106
     11 NAK        40.1170    0.0840   91.0420 N.4       1 AJD         0.2286
     12 NAL        42.8190   -2.0130   92.7670 N.pl3     1 AJD        -0.3102
     13 CAM        45.0580   -3.7380   92.7210 C.2       1 AJD         0.0566
     14 CAN        46.5510   -0.3440   93.4730 C.ar      1 AJD         0.0026
     15 CAO        44.0050   -1.4420   93.0160 C.ar      1 AJD         0.0565
     16 CAP        45.1560   -2.2510   92.9810 C.ar      1 AJD         0.0303
     17 CAQ        41.5260   -1.2890   92.6450 C.3       1 AJD         0.0764
     18 H1         45.4986    1.5463   93.6798 H         1 AJD         0.0630
     19 H2         43.2508    0.5811   93.2895 H         1 AJD         0.0530
     20 H3         47.3039   -2.3476   93.2403 H         1 AJD         0.0644
     21 H4         38.3068   -2.3786   92.5261 H         1 AJD         0.0317
     22 H5         39.0213   -0.9202   93.2938 H         1 AJD         0.0317
     23 H6         38.0515   -0.3578   91.0881 H         1 AJD         0.0814
     24 H7         39.0817   -1.6041   90.3058 H         1 AJD         0.0814
     25 H8         40.6176   -2.9705   91.6713 H         1 AJD         0.0291
     26 H9         40.4839   -2.9760   93.4626 H         1 AJD         0.0291
     27 H10        42.1601    0.4535   91.4394 H         1 AJD         0.0836
     28 H11        41.8257   -1.0213   90.4700 H         1 AJD         0.0836
     29 H12        39.9245    0.8252   91.6975 H         1 AJD         0.2014
     30 H13        40.1123    0.4547   90.1047 H         1 AJD         0.2014
     31 H14        42.8014   -3.0363   92.6507 H         1 AJD         0.1786
     32 H15        41.3669   -0.6447   93.5223 H         1 AJD         0.0604
@<TRIPOS>BOND
     1   13    1 ar 
     2   13    2 ar 
     3   14    3 1  
     4    4    5 ar 
     5   14    4 ar 
     6    5   15 ar 
     7    6   14 ar 
     8   16    6 ar 
     9    7    8 1  
    10    9    7 1  
    11   11    8 1  
    12   17    9 1  
    13   10   11 1  
    14   17   10 1  
    15   15   12 1  
    16   12   17 1  
    17   13   16 1  
    18   15   16 ar 
    19    4   18 1  
    20    5   19 1  
    21    6   20 1  
    22    7   21 1  
    23    7   22 1  
    24    8   23 1  
    25    8   24 1  
    26    9   25 1  
    27    9   26 1  
    28   10   27 1  
    29   10   28 1  
    30   11   29 1  
    31   11   30 1  
    32   12   31 1  
    33   17   32 1  
@<TRIPOS>SUBSTRUCTURE
     1 AJD         1

