### 
### Created by X-TOOL on Mon Sep 10 21:13:00 2018
### 

@<TRIPOS>MOLECULE
3jup_ligand
   32    33     1     0     0
SMALL
GAST_HUCK


@<TRIPOS>ATOM
      1 OAA        38.9860    3.7530   94.8320 O.co2     1 AKD        -0.5650
      2 OAB        38.9490    2.1830   93.3370 O.co2     1 AKD        -0.5650
      3 BRAC       43.9450    5.9970   93.9400 Br        1 AKD        -0.0611
      4 CAD        43.8240    3.2200   93.3410 C.ar      1 AKD        -0.0615
      5 CAE        43.1630    2.0130   93.2110 C.ar      1 AKD        -0.0376
      6 CAF        41.7270    4.2420   93.9670 C.ar      1 AKD        -0.0496
      7 CAG        39.4830   -1.3520   92.1670 C.3       1 AKD        -0.0103
      8 CAH        39.4770   -0.8550   90.7090 C.3       1 AKD        -0.0335
      9 CAI        40.8550   -1.5510   92.6620 C.3       1 AKD        -0.0206
     10 CAJ        41.7850    0.1140   91.0450 C.3       1 AKD        -0.0106
     11 NAK        40.3970    0.2650   90.5780 N.4       1 AKD         0.2286
     12 NAL        41.2230    0.7380   93.2920 N.pl3     1 AKD        -0.3102
     13 CAM        39.5230    2.9870   94.0350 C.2       1 AKD         0.0566
     14 CAN        43.0970    4.3160   93.7140 C.ar      1 AKD         0.0026
     15 CAO        41.7930    1.9460   93.4070 C.ar      1 AKD         0.0565
     16 CAP        41.0550    3.0490   93.7970 C.ar      1 AKD         0.0303
     17 CAQ        41.7940   -0.3620   92.5130 C.3       1 AKD         0.0764
     18 H1         44.8888    3.2954   93.1525 H         1 AKD         0.0630
     19 H2         43.7174    1.1173   92.9553 H         1 AKD         0.0530
     20 H3         41.1895    5.1234   94.2977 H         1 AKD         0.0644
     21 H4         38.9410   -2.3076   92.2214 H         1 AKD         0.0317
     22 H5         38.9786   -0.6077   92.8007 H         1 AKD         0.0317
     23 H6         38.4621   -0.5305   90.4357 H         1 AKD         0.0814
     24 H7         39.7935   -1.6702   90.0417 H         1 AKD         0.0814
     25 H8         41.2925   -2.3971   92.1118 H         1 AKD         0.0291
     26 H9         40.7946   -1.8009   93.7315 H         1 AKD         0.0291
     27 H10        42.3022    1.0820   90.9719 H         1 AKD         0.0836
     28 H11        42.3027   -0.6267   90.4179 H         1 AKD         0.0836
     29 H12        39.9968    1.0360   91.0892 H         1 AKD         0.2014
     30 H13        40.4399    0.4976   89.5982 H         1 AKD         0.2014
     31 H14        40.3310    0.5743   93.7804 H         1 AKD         0.1786
     32 H15        42.8111   -0.6153   92.8467 H         1 AKD         0.0604
@<TRIPOS>BOND
     1   13    1 ar 
     2   13    2 ar 
     3   14    3 1  
     4    4    5 ar 
     5   14    4 ar 
     6    5   15 ar 
     7    6   14 ar 
     8   16    6 ar 
     9    7    8 1  
    10    9    7 1  
    11   11    8 1  
    12   17    9 1  
    13   10   11 1  
    14   17   10 1  
    15   15   12 1  
    16   12   17 1  
    17   13   16 1  
    18   15   16 ar 
    19    4   18 1  
    20    5   19 1  
    21    6   20 1  
    22    7   21 1  
    23    7   22 1  
    24    8   23 1  
    25    8   24 1  
    26    9   25 1  
    27    9   26 1  
    28   10   27 1  
    29   10   28 1  
    30   11   29 1  
    31   11   30 1  
    32   12   31 1  
    33   17   32 1  
@<TRIPOS>SUBSTRUCTURE
     1 AKD         1

