### 
### Created by X-TOOL on Fri Sep 26 17:34:43 2014
### 

@<TRIPOS>MOLECULE
3juq_ligand
   32    33     1     0     0
SMALL
GAST_HUCK


@<TRIPOS>ATOM
      1 OAA        45.9040   -4.2940   93.0270 O.co2     1 AJD        -0.5650
      2 OAB        43.9650   -4.1030   91.9600 O.co2     1 AJD        -0.5650
      3 BRAC       47.9650    0.5310   93.7850 Br        1 AJD        -0.0611
      4 CAD        45.0680    0.4840   93.5450 C.ar      1 AJD        -0.0615
      5 CAE        43.8470   -0.1200   93.3260 C.ar      1 AJD        -0.0376
      6 CAF        46.1610   -1.5770   93.1810 C.ar      1 AJD        -0.0496
      7 CAG        38.7380   -1.6830   92.0470 C.3       1 AJD        -0.0103
      8 CAH        38.8590   -0.7320   90.8700 C.3       1 AJD        -0.0335
      9 CAI        40.0970   -2.2580   92.4420 C.3       1 AJD        -0.0206
     10 CAJ        41.2900   -0.4540   91.2570 C.3       1 AJD        -0.0106
     11 NAK        39.9780    0.1590   91.1160 N.4       1 AJD         0.2286
     12 NAL        42.5360   -2.0140   92.7670 N.pl3     1 AJD        -0.3102
     13 CAM        44.9330   -3.6270   92.6050 C.2       1 AJD         0.0566
     14 CAN        46.2350   -0.2560   93.4970 C.ar      1 AJD         0.0026
     15 CAO        43.7470   -1.4550   92.9830 C.ar      1 AJD         0.0565
     16 CAP        44.9280   -2.1820   92.9270 C.ar      1 AJD         0.0303
     17 CAQ        41.2850   -1.2470   92.5690 C.3       1 AJD         0.0764
     18 H1         45.1127    1.5463   93.7562 H         1 AJD         0.0630
     19 H2         42.9420    0.4683   93.4256 H         1 AJD         0.0530
     20 H3         47.0689   -2.1666   93.1257 H         1 AJD         0.0644
     21 H4         38.0663   -2.5094   91.7716 H         1 AJD         0.0317
     22 H5         38.3169   -1.1386   92.9050 H         1 AJD         0.0317
     23 H6         37.9332   -0.1467   90.7682 H         1 AJD         0.0814
     24 H7         39.0349   -1.3035   89.9468 H         1 AJD         0.0814
     25 H8         40.3754   -3.0038   91.6829 H         1 AJD         0.0291
     26 H9         39.9773   -2.7538   93.4166 H         1 AJD         0.0291
     27 H10        42.0671    0.3238   91.2905 H         1 AJD         0.0836
     28 H11        41.4830   -1.1290   90.4102 H         1 AJD         0.0836
     29 H12        39.7845    0.6629   91.9673 H         1 AJD         0.2014
     30 H13        40.0261    0.8071   90.3455 H         1 AJD         0.2014
     31 H14        42.4793   -3.0420   92.7382 H         1 AJD         0.1786
     32 H15        41.1322   -0.5677   93.4205 H         1 AJD         0.0604
@<TRIPOS>BOND
     1   13    1 ar 
     2   13    2 ar 
     3   14    3 1  
     4    4    5 ar 
     5   14    4 ar 
     6    5   15 ar 
     7    6   14 ar 
     8   16    6 ar 
     9    7    8 1  
    10    9    7 1  
    11   11    8 1  
    12   17    9 1  
    13   10   11 1  
    14   17   10 1  
    15   15   12 1  
    16   12   17 1  
    17   13   16 1  
    18   15   16 ar 
    19    4   18 1  
    20    5   19 1  
    21    6   20 1  
    22    7   21 1  
    23    7   22 1  
    24    8   23 1  
    25    8   24 1  
    26    9   25 1  
    27    9   26 1  
    28   10   27 1  
    29   10   28 1  
    30   11   29 1  
    31   11   30 1  
    32   12   31 1  
    33   17   32 1  
@<TRIPOS>SUBSTRUCTURE
     1 AJD         1

