### 
### Created by X-TOOL on Mon Sep 10 21:13:00 2018
### 

@<TRIPOS>MOLECULE
3jvk_ligand
   53    52     1     0     0
SMALL
GAST_HUCK


@<TRIPOS>ATOM
      1 N          10.2550  -12.2020  -11.9700 N.4       1 GLY         0.2357
      2 CA         11.2130  -11.0930  -11.7670 C.3       1 GLY         0.0545
      3 C          12.0010  -11.5490  -10.5610 C.2       1 GLY         0.2234
      4 O          12.1440  -12.7630  -10.3530 O.2       1 GLY        -0.3911
      5 N          12.5010  -10.6080   -9.7530 N.am      1 GLY        -0.2639
      6 CA         13.1760  -10.9650   -8.5050 C.3       1 GLY         0.1202
      7 C          14.0390   -9.9030   -7.8430 C.2       1 GLY         0.2007
      8 O          14.9050   -9.3060   -8.4980 O.2       1 GLY        -0.3947
      9 OH         14.6650   -4.4940    0.2770 O.2       1 ALY        -0.3974
     10 CH         13.4390   -5.1340    0.4100 C.2       1 ALY         0.1729
     11 CH3        12.4130   -4.1890    0.9300 C.3       1 ALY         0.0256
     12 NZ         13.3230   -6.5030    0.0320 N.am      1 ALY        -0.2872
     13 CE         13.2510   -6.5630   -1.4350 C.3       1 ALY         0.0309
     14 CD         13.7640   -7.8360   -2.0470 C.3       1 ALY        -0.0325
     15 CG         14.0270   -7.7260   -3.5450 C.3       1 ALY        -0.0470
     16 CB         13.8900   -9.1090   -4.1660 C.3       1 ALY        -0.0123
     17 CA         14.6760   -9.3860   -5.4410 C.3       1 ALY         0.1309
     18 N          13.7050   -9.6250   -6.5710 N.am      1 ALY        -0.2640
     19 C          15.5160  -10.6040   -5.0890 C.2       1 ALY         0.2033
     20 O          14.9830  -11.7160   -4.9020 O.2       1 ALY        -0.3944
     21 N          16.8240  -10.4430   -4.9570 N.am      1 ALA        -0.2698
     22 CA         17.7120  -11.5990   -5.1760 C.3       1 ALA         0.0916
     23 C          17.5920  -12.6870   -4.1300 C.2       1 ALA         0.0598
     24 O          17.4950  -13.8750   -4.4970 O.co2     1 ALA        -0.5666
     25 CB         19.1850  -11.1630   -5.3550 C.3       1 ALA        -0.0300
     26 H           9.6623  -11.9949  -12.7739 H         1 GLY         0.2012
     27 H          10.7687  -13.0669  -12.1387 H         1 GLY         0.2012
     28 H           9.6758  -12.3061  -11.1369 H         1 GLY         0.2012
     29 H          10.7231  -10.1312  -11.6152 H         1 GLY         0.1061
     30 H          11.8403  -10.9088  -12.6392 H         1 GLY         0.1061
     31 H          12.4103   -9.6253  -10.0110 H         1 GLY         0.1882
     32 H          13.8565  -11.7767   -8.7621 H         1 GLY         0.0763
     33 H          12.3796  -11.1807   -7.7928 H         1 GLY         0.0763
     34 H          12.7261   -3.8151    1.9048 H         1 ALY         0.0467
     35 H          12.3049   -3.3547    0.2370 H         1 ALY         0.0467
     36 H          11.4594   -4.7078    1.0277 H         1 ALY         0.0467
     37 H          13.2949   -7.3006    0.6672 H         1 ALY         0.1850
     38 H          13.8801   -5.7572   -1.8132 H         1 ALY         0.0520
     39 H          12.1964   -6.4899   -1.7006 H         1 ALY         0.0520
     40 H          13.0003   -8.6003   -1.9031 H         1 ALY         0.0285
     41 H          14.7118   -8.0737   -1.5640 H         1 ALY         0.0285
     42 H          15.0316   -7.3399   -3.7177 H         1 ALY         0.0268
     43 H          13.3085   -7.0432   -3.9984 H         1 ALY         0.0268
     44 H          12.8397   -9.2052   -4.4412 H         1 ALY         0.0312
     45 H          14.2797   -9.8049   -3.4231 H         1 ALY         0.0312
     46 H          15.3143   -8.5688   -5.7770 H         1 ALY         0.0800
     47 H          12.7105   -9.5710   -6.3509 H         1 ALY         0.1883
     48 H          17.2110   -9.5328   -4.7076 H         1 ALA         0.1875
     49 H          17.3637  -12.0461   -6.1071 H         1 ALA         0.0723
     50 O1         17.5902  -12.3959   -2.9041 O.co2     1 ALA        -0.5666
     51 H          19.2643  -10.5005   -6.2169 H         1 ALA         0.0270
     52 H          19.5186  -10.6381   -4.4598 H         1 ALA         0.0270
     53 H          19.8066  -12.0441   -5.5139 H         1 ALA         0.0270
@<TRIPOS>BOND
     1    2    1 1  
     2    3    2 1  
     3    3    4 2  
     4    5    3 am 
     5    6    5 1  
     6    7    6 1  
     7    7    8 2  
     8   18    7 am 
     9   10    9 2  
    10   10   11 1  
    11   12   10 am 
    12   13   12 1  
    13   14   13 1  
    14   15   14 1  
    15   16   15 1  
    16   17   16 1  
    17   17   18 1  
    18   17   19 1  
    19   19   20 2  
    20   19   21 am 
    21   21   22 1  
    22   22   23 1  
    23   22   25 1  
    24   23   24 ar 
    25    1   26 1  
    26    1   27 1  
    27    1   28 1  
    28    2   29 1  
    29    2   30 1  
    30    5   31 1  
    31    6   32 1  
    32    6   33 1  
    33   11   34 1  
    34   11   35 1  
    35   11   36 1  
    36   12   37 1  
    37   13   38 1  
    38   13   39 1  
    39   14   40 1  
    40   14   41 1  
    41   15   42 1  
    42   15   43 1  
    43   16   44 1  
    44   16   45 1  
    45   17   46 1  
    46   18   47 1  
    47   21   48 1  
    48   22   49 1  
    49   23   50 ar 
    50   25   51 1  
    51   25   52 1  
    52   25   53 1  
@<TRIPOS>SUBSTRUCTURE
     1 GLY         1

