### 
### Created by X-TOOL on Mon Sep 10 21:13:00 2018
### 

@<TRIPOS>MOLECULE
3jvs_ligand
   52    54     1     0     0
SMALL
GAST_HUCK


@<TRIPOS>ATOM
      1 C1         33.9930   -2.1240   17.6380 C.ar      1 AGY         0.0113
      2 N1         31.4940   -2.4220   17.7810 N.am      1 AGY        -0.2122
      3 O1         31.3890   -3.6210   15.8520 O.2       1 AGY        -0.3871
      4 C2         32.6240   -1.6310   17.5880 C.ar      1 AGY         0.0814
      5 N2         29.7930   -4.0180   17.3470 N.am      1 AGY        -0.1624
      6 O2         30.4340   -5.4590   19.4010 O.2       1 AGY        -0.3706
      7 C3         35.1360   -1.1870   17.4150 C.ar      1 AGY        -0.0315
      8 N3         29.1370   -3.8040   18.6060 N.am      1 AGY        -0.1773
      9 O3         24.8190   -4.7610   22.6990 O.2       1 AGY         0.1875
     10 C4         34.2740   -3.5170   17.9020 C.ar      1 AGY        -0.0551
     11 N4         25.6450   -3.8090   22.3680 N.2       1 AGY         0.3329
     12 O4         25.1680   -2.5480   22.0310 O.2       1 AGY         0.1875
     13 C5         32.4120   -0.2110   17.3180 C.ar      1 AGY        -0.0435
     14 C6         34.8990    0.2110   17.1500 C.ar      1 AGY        -0.0747
     15 C7         36.4760   -1.6760   17.4650 C.ar      1 AGY        -0.0608
     16 C8         35.6370   -3.9930   17.9490 C.ar      1 AGY        -0.0647
     17 C9         33.5260    0.7020   17.1010 C.ar      1 AGY        -0.0816
     18 C10        30.9160   -3.3510   16.9640 C.2       1 AGY         0.3134
     19 C11        36.7350   -3.0780   17.7320 C.ar      1 AGY        -0.0656
     20 C12        29.5470   -4.6110   19.6220 C.2       1 AGY         0.2462
     21 C13        28.9510   -4.4900   20.9510 C.ar      1 AGY         0.0865
     22 C14        27.5800   -4.1810   21.0710 C.ar      1 AGY         0.0278
     23 C15        29.7350   -4.6820   22.1300 C.ar      1 AGY        -0.0096
     24 C16        26.9430   -4.0570   22.3480 C.ar      1 AGY         0.2244
     25 C17        29.1390   -4.5650   23.4400 C.ar      1 AGY        -0.0290
     26 C18        27.7090   -4.2430   23.5950 C.ar      1 AGY        -0.0051
     27 C19        27.1220   -4.1330   25.0240 C.3       1 AGY        -0.0402
     28 C20        28.0260   -3.3630   26.0170 C.3       1 AGY        -0.0830
     29 C21        25.7950   -3.3270   25.2910 C.3       1 AGY        -0.0830
     30 C22        26.8120   -5.5700   25.4860 C.3       1 AGY        -0.0830
     31 H1         31.0322   -2.2882   18.6579 H         1 AGY         0.2311
     32 H2         29.4047   -4.6922   16.7188 H         1 AGY         0.2168
     33 H3         28.4277   -3.1097   18.7279 H         1 AGY         0.2163
     34 H4         33.4562   -4.2094   18.0659 H         1 AGY         0.0629
     35 H5         31.3992    0.1732   17.2781 H         1 AGY         0.0440
     36 H6         35.7302    0.8880   16.9893 H         1 AGY         0.0439
     37 H7         37.3045   -0.9961   17.3026 H         1 AGY         0.0587
     38 H8         35.8372   -5.0397   18.1476 H         1 AGY         0.0578
     39 H9         33.3342    1.7502   16.9023 H         1 AGY         0.0564
     40 H10        37.7557   -3.4410   17.7690 H         1 AGY         0.0611
     41 H11        26.9923   -4.0333   20.1722 H         1 AGY         0.0821
     42 H12        30.7891   -4.9182   22.0400 H         1 AGY         0.0777
     43 H13        29.7516   -4.7160   24.3215 H         1 AGY         0.0872
     44 H14        27.5411   -3.3291   27.0038 H         1 AGY         0.0139
     45 H15        28.1834   -2.3379   25.6505 H         1 AGY         0.0139
     46 H16        28.9959   -3.8748   26.1025 H         1 AGY         0.0139
     47 H17        24.9888   -3.7285   24.6595 H         1 AGY         0.0139
     48 H18        25.9557   -2.2659   25.0499 H         1 AGY         0.0139
     49 H19        25.5139   -3.4239   26.3500 H         1 AGY         0.0139
     50 H20        27.6976   -6.2039   25.3314 H         1 AGY         0.0139
     51 H21        25.9692   -5.9690   24.9025 H         1 AGY         0.0139
     52 H22        26.5480   -5.5630   26.5538 H         1 AGY         0.0139
@<TRIPOS>BOND
     1    4    1 ar 
     2    1    7 ar 
     3    1   10 ar 
     4    2    4 1  
     5   18    2 am 
     6   18    3 2  
     7    4   13 ar 
     8    8    5 1  
     9    5   18 am 
    10   20    6 2  
    11    7   14 ar 
    12    7   15 ar 
    13   20    8 am 
    14   11    9 2  
    15   10   16 ar 
    16   11   12 2  
    17   24   11 1  
    18   13   17 ar 
    19   17   14 ar 
    20   15   19 ar 
    21   16   19 ar 
    22   21   20 1  
    23   22   21 ar 
    24   21   23 ar 
    25   22   24 ar 
    26   23   25 ar 
    27   24   26 ar 
    28   25   26 ar 
    29   26   27 1  
    30   27   28 1  
    31   27   29 1  
    32   27   30 1  
    33    2   31 1  
    34    5   32 1  
    35    8   33 1  
    36   10   34 1  
    37   13   35 1  
    38   14   36 1  
    39   15   37 1  
    40   16   38 1  
    41   17   39 1  
    42   19   40 1  
    43   22   41 1  
    44   23   42 1  
    45   25   43 1  
    46   28   44 1  
    47   28   45 1  
    48   28   46 1  
    49   29   47 1  
    50   29   48 1  
    51   29   49 1  
    52   30   50 1  
    53   30   51 1  
    54   30   52 1  
@<TRIPOS>SUBSTRUCTURE
     1 AGY         1

