### 
### Created by X-TOOL on Mon Sep 10 21:13:01 2018
### 

@<TRIPOS>MOLECULE
3jwq_ligand
   64    67     1     0     0
SMALL
GAST_HUCK


@<TRIPOS>ATOM
      1 C34       -12.3870  -29.3570   39.4640 C.3       1 VIA        -0.0637
      2 C33       -12.6090  -28.8860   40.9210 C.3       1 VIA        -0.0468
      3 C32       -11.8040  -27.6220   41.2620 C.3       1 VIA        -0.0131
      4 C30       -12.1880  -27.1720   42.6510 C.2       1 VIA         0.0335
      5 N29       -13.2360  -26.4230   42.9280 N.2       1 VIA        -0.2168
      6 N28       -13.3020  -26.2320   44.1530 N.pl3     1 VIA        -0.2065
      7 C31       -14.3700  -25.3910   44.8340 C.3       1 VIA         0.0554
      8 C24       -12.3150  -26.8350   44.8380 C.2       1 VIA         0.1661
      9 C23       -11.9600  -26.9300   46.1970 C.2       1 VIA         0.2517
     10 O27       -12.5780  -26.3670   47.1120 O.2       1 VIA        -0.3939
     11 N22       -10.8560  -27.6820   46.5120 N.am      1 VIA        -0.2065
     12 C21       -10.1040  -28.3390   45.5220 C.2       1 VIA         0.1466
     13 N26       -10.4550  -28.2220   44.2270 N.2       1 VIA        -0.3177
     14 C25       -11.5500  -27.4820   43.8680 C.2       1 VIA         0.0457
     15 C9         -8.9600  -29.0150   45.9480 C.ar      1 VIA         0.0713
     16 C8         -7.7480  -28.8350   45.2820 C.ar      1 VIA        -0.0236
     17 C7         -6.5890  -29.4620   45.7350 C.ar      1 VIA         0.1035
     18 C6         -6.6330  -30.2520   46.8660 C.ar      1 VIA        -0.0387
     19 C5         -7.8370  -30.4080   47.5390 C.ar      1 VIA        -0.0236
     20 C4         -8.9910  -29.7870   47.0950 C.ar      1 VIA         0.1142
     21 O3        -10.1880  -29.9250   47.7290 O.3       1 VIA        -0.3111
     22 C2        -10.3260  -30.9780   48.7000 C.3       1 VIA         0.0701
     23 C1        -11.5550  -30.5550   49.5080 C.3       1 VIA        -0.0367
     24 S10        -5.0320  -29.2730   44.9450 S.o2      1 VIA         0.0673
     25 O11        -4.8040  -27.8320   44.5270 O.2       1 VIA        -0.1514
     26 O12        -3.9850  -29.5880   45.9990 O.2       1 VIA        -0.1514
     27 N14        -4.9360  -30.1850   43.5600 N.am      1 VIA        -0.2250
     28 C19        -3.5170  -30.5660   43.3410 C.3       1 VIA         0.0697
     29 C18        -3.2620  -31.0770   41.8890 C.3       1 VIA        -0.0146
     30 N17        -3.7310  -30.1010   40.8600 N.4       1 VIA         0.2354
     31 C20        -3.3350  -30.5360   39.4980 C.3       1 VIA        -0.0430
     32 C16        -5.1880  -29.8430   41.0060 C.3       1 VIA        -0.0146
     33 C15        -5.5260  -29.3580   42.4530 C.3       1 VIA         0.0697
     34 H1        -12.9847  -30.2611   39.2759 H         1 VIA         0.0231
     35 H2        -11.3216  -29.5832   39.3101 H         1 VIA         0.0231
     36 H3        -12.6970  -28.5616   38.7702 H         1 VIA         0.0231
     37 H4        -12.3031  -29.6932   41.6028 H         1 VIA         0.0282
     38 H5        -13.6785  -28.6716   41.0630 H         1 VIA         0.0282
     39 H6        -12.0352  -26.8276   40.5371 H         1 VIA         0.0412
     40 H7        -10.7278  -27.8469   41.2288 H         1 VIA         0.0412
     41 H8        -14.1963  -25.3871   45.9202 H         1 VIA         0.0590
     42 H9        -15.3620  -25.8169   44.6229 H         1 VIA         0.0590
     43 H10       -14.3244  -24.3606   44.4517 H         1 VIA         0.0590
     44 H11       -10.5795  -27.7648   47.4694 H         1 VIA         0.2457
     45 H12        -7.7072  -28.2012   44.4035 H         1 VIA         0.0661
     46 H13        -5.7369  -30.7453   47.2248 H         1 VIA         0.0650
     47 H14        -7.8738  -31.0272   48.4280 H         1 VIA         0.0557
     48 H15        -9.4351  -31.0408   49.3421 H         1 VIA         0.0616
     49 H16       -10.4927  -31.9477   48.2083 H         1 VIA         0.0616
     50 H17       -11.7539  -31.3017   50.2908 H         1 VIA         0.0256
     51 H18       -12.4260  -30.4831   48.8401 H         1 VIA         0.0256
     52 H19       -11.3684  -29.5762   49.9739 H         1 VIA         0.0256
     53 H20        -3.2510  -31.3644   44.0494 H         1 VIA         0.0531
     54 H21        -2.8817  -29.6868   43.5239 H         1 VIA         0.0531
     55 H22        -3.7986  -32.0268   41.7477 H         1 VIA         0.0830
     56 H23        -2.1827  -31.2422   41.7554 H         1 VIA         0.0830
     57 H24        -3.2602  -29.2272   41.0357 H         1 VIA         0.2032
     58 H25        -3.6915  -29.8019   38.7605 H         1 VIA         0.0778
     59 H26        -3.7809  -31.5182   39.2826 H         1 VIA         0.0778
     60 H27        -2.2390  -30.6104   39.4410 H         1 VIA         0.0778
     61 H28        -5.7407  -30.7712   40.7990 H         1 VIA         0.0830
     62 H29        -5.4904  -29.0679   40.2865 H         1 VIA         0.0830
     63 H30        -5.1541  -28.3286   42.5622 H         1 VIA         0.0531
     64 H31        -6.6199  -29.3668   42.5678 H         1 VIA         0.0531
@<TRIPOS>BOND
     1    1    2 1  
     2    2    3 1  
     3    3    4 1  
     4    4    5 2  
     5    4   14 1  
     6    5    6 1  
     7    6    7 1  
     8    6    8 1  
     9    8    9 1  
    10    8   14 2  
    11    9   10 2  
    12    9   11 am 
    13   11   12 1  
    14   12   13 2  
    15   12   15 1  
    16   13   14 1  
    17   15   16 ar 
    18   15   20 ar 
    19   16   17 ar 
    20   17   18 ar 
    21   17   24 1  
    22   18   19 ar 
    23   19   20 ar 
    24   20   21 1  
    25   21   22 1  
    26   22   23 1  
    27   24   25 2  
    28   24   26 2  
    29   24   27 am 
    30   27   28 1  
    31   27   33 1  
    32   28   29 1  
    33   29   30 1  
    34   30   31 1  
    35   30   32 1  
    36   32   33 1  
    37    1   34 1  
    38    1   35 1  
    39    1   36 1  
    40    2   37 1  
    41    2   38 1  
    42    3   39 1  
    43    3   40 1  
    44    7   41 1  
    45    7   42 1  
    46    7   43 1  
    47   11   44 1  
    48   16   45 1  
    49   18   46 1  
    50   19   47 1  
    51   22   48 1  
    52   22   49 1  
    53   23   50 1  
    54   23   51 1  
    55   23   52 1  
    56   28   53 1  
    57   28   54 1  
    58   29   55 1  
    59   29   56 1  
    60   30   57 1  
    61   31   58 1  
    62   31   59 1  
    63   31   60 1  
    64   32   61 1  
    65   32   62 1  
    66   33   63 1  
    67   33   64 1  
@<TRIPOS>SUBSTRUCTURE
     1 VIA         1

