### 
### Created by X-TOOL on Mon Sep 10 21:13:01 2018
### 

@<TRIPOS>MOLECULE
3jwr_ligand
   30    31     1     0     0
SMALL
GAST_HUCK


@<TRIPOS>ATOM
      1 N9        -22.8180   13.6410  -39.3760 N.pl3     1 IBM        -0.2331
      2 C8        -22.8760   14.2560  -40.5780 C.2       1 IBM         0.0869
      3 N7        -23.1510   13.3520  -41.5500 N.2       1 IBM        -0.3333
      4 C5        -23.2730   12.1460  -40.9630 C.2       1 IBM         0.1086
      5 C4        -23.0670   12.3370  -39.6170 C.2       1 IBM         0.2028
      6 N3        -23.1300   11.3270  -38.7360 N.am      1 IBM        -0.1692
      7 C2        -23.3790   10.0690  -39.1600 C.2       1 IBM         0.3262
      8 N1        -23.5910    9.7850  -40.4650 N.am      1 IBM        -0.1760
      9 C6        -23.5550   10.7530  -41.4070 C.2       1 IBM         0.2019
     10 O6        -23.7550   10.4970  -42.6180 O.2       1 IBM        -0.4078
     11 O2        -23.4350    9.1350  -38.3230 O.2       1 IBM        -0.3843
     12 C10       -23.8700    8.3930  -40.8450 C.3       1 IBM         0.0476
     13 C11       -22.9020   11.5750  -37.3100 C.3       1 IBM         0.0651
     14 C12       -24.0670   12.3530  -36.6970 C.3       1 IBM        -0.0203
     15 C13       -24.4740   11.7250  -35.3660 C.3       1 IBM        -0.0603
     16 C14       -23.7270   13.8280  -36.5160 C.3       1 IBM        -0.0603
     17 H1        -22.6237   14.0778  -38.4637 H         1 IBM         0.2397
     18 H2        -22.7241   15.3218  -40.7418 H         1 IBM         0.1123
     19 H3        -23.8569    7.7581  -39.9468 H         1 IBM         0.0539
     20 H4        -23.1021    8.0448  -41.5514 H         1 IBM         0.0539
     21 H5        -24.8599    8.3342  -41.3211 H         1 IBM         0.0539
     22 H6        -21.9770   12.1579  -37.1894 H         1 IBM         0.0599
     23 H7        -22.7989   10.6117  -36.7891 H         1 IBM         0.0599
     24 H8        -24.9221   12.2849  -37.3856 H         1 IBM         0.0320
     25 H9        -25.3119   12.2919  -34.9341 H         1 IBM         0.0233
     26 H10       -23.6199   11.7483  -34.6732 H         1 IBM         0.0233
     27 H11       -24.7834   10.6825  -35.5318 H         1 IBM         0.0233
     28 H12       -23.4372   14.2591  -37.4856 H         1 IBM         0.0233
     29 H13       -22.8924   13.9275  -35.8064 H         1 IBM         0.0233
     30 H14       -24.6060   14.3617  -36.1255 H         1 IBM         0.0233
@<TRIPOS>BOND
     1    1    2 1  
     2    1    5 1  
     3    2    3 2  
     4    3    4 1  
     5    4    5 2  
     6    4    9 1  
     7    5    6 1  
     8    6    7 am 
     9    6   13 1  
    10    7    8 am 
    11    7   11 2  
    12    8    9 am 
    13    8   12 1  
    14    9   10 2  
    15   13   14 1  
    16   14   15 1  
    17   14   16 1  
    18    1   17 1  
    19    2   18 1  
    20   12   19 1  
    21   12   20 1  
    22   12   21 1  
    23   13   22 1  
    24   13   23 1  
    25   14   24 1  
    26   15   25 1  
    27   15   26 1  
    28   15   27 1  
    29   16   28 1  
    30   16   29 1  
    31   16   30 1  
@<TRIPOS>SUBSTRUCTURE
     1 IBM         1

