### 
### Created by X-TOOL on Mon Sep 10 21:13:01 2018
### 

@<TRIPOS>MOLECULE
3jxw_ligand
   43    46     1     0     0
SMALL
GAST_HUCK


@<TRIPOS>ATOM
      1 C1        -23.8040  -30.7810   -2.2150 C.3       1 LXG        -0.0410
      2 N1        -22.3860  -30.7450   -2.6910 N.4       1 LXG         0.2517
      3 O1        -22.1930  -31.5690    2.5440 O.2       1 LXG        -0.4044
      4 S1        -23.1440  -34.5910    2.5860 S.3       1 LXG        -0.0413
      5 C2        -21.8330  -29.4130   -3.0940 C.3       1 LXG        -0.0410
      6 N2        -22.1860  -33.5700   -1.0310 N.2       1 LXG        -0.3078
      7 C3        -21.3750  -31.6060   -2.0380 C.3       1 LXG         0.0567
      8 N3        -21.7900  -31.6270    0.2900 N.am      1 LXG        -0.1941
      9 C4        -21.8280  -32.3440   -0.8610 C.2       1 LXG         0.1873
     10 C5        -22.5990  -34.2130    0.1530 C.2       1 LXG         0.0200
     11 C6        -23.0350  -35.5720    0.2340 C.ar      1 LXG        -0.0063
     12 C7        -23.1460  -36.5070   -0.7790 C.ar      1 LXG        -0.0597
     13 C8        -23.6160  -37.7740   -0.4540 C.ar      1 LXG        -0.0464
     14 C9        -23.7640  -38.8040   -1.5420 C.2       1 LXG        -0.0713
     15 C10       -24.1970  -38.3980   -2.7600 C.2       1 LXG        -0.0742
     16 C11       -24.4620  -39.0820   -4.0390 C.3       1 LXG        -0.0103
     17 C12       -25.2410  -38.3800   -5.1440 C.3       1 LXG        -0.0365
     18 C13       -23.7730  -38.6160   -5.2980 C.3       1 LXG        -0.0365
     19 C14       -23.9480  -38.0730    0.8640 C.ar      1 LXG        -0.0658
     20 C15       -23.8420  -37.1700    1.9080 C.ar      1 LXG        -0.0496
     21 C16       -23.3810  -35.9290    1.5360 C.ar      1 LXG         0.0358
     22 C17       -22.5960  -33.5390    1.3380 C.2       1 LXG         0.1047
     23 C18       -22.1910  -32.1800    1.4910 C.2       1 LXG         0.2296
     24 H1        -24.4088  -30.0821   -2.8114 H         1 LXG         0.0778
     25 H2        -23.8427  -30.4875   -1.1556 H         1 LXG         0.0778
     26 H3        -24.2030  -31.7998   -2.3281 H         1 LXG         0.0778
     27 H4        -22.4843  -31.2025   -3.5838 H         1 LXG         0.2052
     28 H5        -20.7893  -29.5328   -3.4202 H         1 LXG         0.0778
     29 H6        -21.8725  -28.7250   -2.2367 H         1 LXG         0.0778
     30 H7        -22.4309  -29.0028   -3.9212 H         1 LXG         0.0778
     31 H8        -20.5348  -30.9657   -1.7312 H         1 LXG         0.1116
     32 H9        -21.0258  -32.3383   -2.7808 H         1 LXG         0.1116
     33 H10       -21.4659  -30.6812    0.2688 H         1 LXG         0.2540
     34 H11       -22.8739  -36.2585   -1.7985 H         1 LXG         0.0566
     35 H12       -23.5286  -39.8506   -1.3545 H         1 LXG         0.0420
     36 H13       -24.3930  -37.3277   -2.8041 H         1 LXG         0.0704
     37 H14       -24.6132  -40.1560   -3.8555 H         1 LXG         0.0493
     38 H15       -25.6205  -37.3596   -4.9865 H         1 LXG         0.0298
     39 H16       -25.9565  -38.9467   -5.7579 H         1 LXG         0.0298
     40 H17       -23.4110  -39.3539   -6.0291 H         1 LXG         0.0298
     41 H18       -23.0750  -37.7668   -5.2577 H         1 LXG         0.0298
     42 H19       -24.3104  -39.0702    1.0859 H         1 LXG         0.0568
     43 H20       -24.1002  -37.4197    2.9308 H         1 LXG         0.0570
@<TRIPOS>BOND
     1    2    1 1  
     2    2    5 1  
     3    7    2 1  
     4   23    3 2  
     5    4   21 1  
     6   22    4 1  
     7    6    9 2  
     8   10    6 1  
     9    9    7 1  
    10    9    8 1  
    11    8   23 am 
    12   10   11 1  
    13   10   22 2  
    14   11   12 ar 
    15   11   21 ar 
    16   12   13 ar 
    17   13   14 1  
    18   13   19 ar 
    19   14   15 2  
    20   15   16 1  
    21   16   17 1  
    22   16   18 1  
    23   17   18 1  
    24   19   20 ar 
    25   20   21 ar 
    26   22   23 1  
    27    1   24 1  
    28    1   25 1  
    29    1   26 1  
    30    2   27 1  
    31    5   28 1  
    32    5   29 1  
    33    5   30 1  
    34    7   31 1  
    35    7   32 1  
    36    8   33 1  
    37   12   34 1  
    38   14   35 1  
    39   15   36 1  
    40   16   37 1  
    41   17   38 1  
    42   17   39 1  
    43   18   40 1  
    44   18   41 1  
    45   19   42 1  
    46   20   43 1  
@<TRIPOS>SUBSTRUCTURE
     1 LXG         1

