### 
### Created by X-TOOL on Mon Sep 10 21:13:01 2018
### 

@<TRIPOS>MOLECULE
3jy0_ligand
   37    40     1     0     0
SMALL
GAST_HUCK


@<TRIPOS>ATOM
      1 C1        -37.6130   -5.4470    4.2080 C.3       1 LYG         0.0997
      2 N1        -37.6470   -3.5830    2.9950 N.4       1 LYG         0.2579
      3 O1        -36.5630   -6.2880    3.7830 O.3       1 LYG        -0.3863
      4 S1        -41.3380   -2.9260   -2.6070 S.3       1 LYG        -0.0391
      5 CL1       -45.6760   -1.0860    1.0960 Cl        1 LYG        -0.0767
      6 C2        -36.8330   -4.2930    4.8730 C.3       1 LYG         0.0185
      7 N2        -40.1570   -2.3540    1.0210 N.2       1 LYG        -0.3077
      8 O2        -38.2560   -3.6080   -2.3870 O.2       1 LYG        -0.4044
      9 C3        -36.2680   -3.5870    3.6200 C.3       1 LYG        -0.0269
     10 N3        -38.2250   -3.1170   -0.1740 N.am      1 LYG        -0.1941
     11 C4        -38.0070   -2.5050    2.0840 C.3       1 LYG         0.0573
     12 C5        -38.9010   -2.6680    0.9240 C.2       1 LYG         0.1873
     13 C6        -40.8560   -2.4830   -0.1790 C.2       1 LYG         0.0209
     14 C7        -42.2420   -2.1910   -0.3700 C.ar      1 LYG        -0.0020
     15 C8        -43.1680   -1.7470    0.5270 C.ar      1 LYG        -0.0463
     16 C9        -44.4390   -1.5930    0.0040 C.ar      1 LYG         0.0337
     17 C10       -44.8330   -1.8330   -1.2860 C.ar      1 LYG        -0.0534
     18 C11       -43.9080   -2.2520   -2.2090 C.ar      1 LYG        -0.0463
     19 C12       -42.6660   -2.4160   -1.6790 C.ar      1 LYG         0.0390
     20 C13       -40.2130   -2.8950   -1.3070 C.2       1 LYG         0.1052
     21 C14       -38.8430   -3.2530   -1.3820 C.2       1 LYG         0.2296
     22 C15       -38.1900   -4.9650    2.8720 C.3       1 LYG        -0.0027
     23 H1        -38.3570   -5.9178    4.8674 H         1 LYG         0.0649
     24 H2        -38.1901   -3.2725    3.7854 H         1 LYG         0.2059
     25 H3        -36.9259   -7.0511    3.3489 H         1 LYG         0.2100
     26 H4        -36.0309   -4.6668    5.5264 H         1 LYG         0.0344
     27 H5        -37.4967   -3.6313    5.4489 H         1 LYG         0.0344
     28 H6        -35.8614   -2.5838    3.8156 H         1 LYG         0.0816
     29 H7        -35.5265   -4.1817    3.0664 H         1 LYG         0.0816
     30 H8        -37.2564   -3.3510   -0.0906 H         1 LYG         0.2540
     31 H9        -37.0567   -2.1293    1.6769 H         1 LYG         0.1116
     32 H10       -38.4703   -1.7283    2.7101 H         1 LYG         0.1116
     33 H11       -42.9283   -1.5329    1.5623 H         1 LYG         0.0611
     34 H12       -45.8682   -1.6929   -1.5756 H         1 LYG         0.0601
     35 H13       -44.1426   -2.4334   -3.2517 H         1 LYG         0.0576
     36 H14       -39.2892   -4.9942    2.8426 H         1 LYG         0.0840
     37 H15       -37.7854   -5.5106    2.0068 H         1 LYG         0.0840
@<TRIPOS>BOND
     1    1    3 1  
     2    1    6 1  
     3   22    1 1  
     4    2    9 1  
     5   11    2 1  
     6    2   22 1  
     7   19    4 1  
     8    4   20 1  
     9   16    5 1  
    10    9    6 1  
    11    7   12 2  
    12   13    7 1  
    13   21    8 2  
    14   12   10 1  
    15   10   21 am 
    16   12   11 1  
    17   14   13 1  
    18   13   20 2  
    19   15   14 ar 
    20   14   19 ar 
    21   15   16 ar 
    22   16   17 ar 
    23   17   18 ar 
    24   18   19 ar 
    25   20   21 1  
    26    1   23 1  
    27    2   24 1  
    28    3   25 1  
    29    6   26 1  
    30    6   27 1  
    31    9   28 1  
    32    9   29 1  
    33   10   30 1  
    34   11   31 1  
    35   11   32 1  
    36   15   33 1  
    37   17   34 1  
    38   18   35 1  
    39   22   36 1  
    40   22   37 1  
@<TRIPOS>SUBSTRUCTURE
     1 LYG         1

