### 
### Created by X-TOOL on Mon Sep 10 21:13:01 2018
### 

@<TRIPOS>MOLECULE
3jy9_ligand
   41    45     1     0     0
SMALL
GAST_HUCK


@<TRIPOS>ATOM
      1 O1          9.0030   18.0650    0.2540 O.3       1 JZH        -0.3374
      2 C2          9.7370   17.0140    0.7780 C.ar      1 JZH         0.0809
      3 C3         10.0370   16.9850    2.1380 C.ar      1 JZH        -0.0393
      4 C4         10.8190   15.9780    2.6330 C.ar      1 JZH        -0.0651
      5 C5         11.2880   14.9490    1.7950 C.ar      1 JZH        -0.0266
      6 C6         11.0130   14.9690    0.4170 C.ar      1 JZH        -0.0651
      7 C7         10.2250   16.0030   -0.0790 C.ar      1 JZH        -0.0393
      8 C8         12.2220   13.8130    2.1380 C.3       1 JZH         0.1004
      9 C9         13.6830   14.2370    1.9240 C.2       1 JZH         0.2240
     10 O10        13.9770   14.6030    0.7850 O.2       1 JZH        -0.3789
     11 N11        14.7700   14.1490    2.7060 N.am      1 JZH        -0.2274
     12 C12        14.8250   13.7160    4.0300 C.ar      1 JZH         0.0799
     13 C13        15.2470   14.6570    4.9760 C.ar      1 JZH        -0.0376
     14 C14        15.3810   14.3160    6.3280 C.ar      1 JZH        -0.0736
     15 C15        15.0760   13.0050    6.7510 C.ar      1 JZH        -0.0746
     16 C16        14.6380   12.0910    5.7840 C.ar      1 JZH        -0.0645
     17 C17        14.5230   12.3990    4.3860 C.ar      1 JZH         0.0083
     18 C18        13.9840   11.2760    3.5240 C.ar      1 JZH        -0.0193
     19 C19        14.4950    9.9600    3.7360 C.ar      1 JZH        -0.0488
     20 C20        13.9750    8.8690    3.0950 C.ar      1 JZH        -0.0105
     21 N21        12.9430    8.9400    2.2500 N.ar      1 JZH        -0.2928
     22 C22        12.4010   10.1140    1.9710 C.ar      1 JZH         0.1282
     23 N23        11.3490   10.4070    1.0970 N.pl3     1 JZH        -0.2745
     24 C25        11.1840   11.7680    1.1420 C.2       1 JZH         0.0268
     25 C26        12.0420   12.3350    2.0560 C.2       1 JZH        -0.0078
     26 C27        12.9100   11.2990    2.6110 C.ar      1 JZH         0.0116
     27 H1          9.4668   18.8801    0.4053 H         1 JZH         0.2459
     28 H2          9.6538   17.7543    2.7986 H         1 JZH         0.0526
     29 H3         11.0811   15.9723    3.6848 H         1 JZH         0.0536
     30 H4         11.4036   14.2009   -0.2407 H         1 JZH         0.0536
     31 H5          9.9829   16.0329   -1.1352 H         1 JZH         0.0526
     32 H6         12.1399   13.8937    3.2319 H         1 JZH         0.0761
     33 H7         15.6378   14.4249    2.2927 H         1 JZH         0.2291
     34 H8         15.4742   15.6677    4.6568 H         1 JZH         0.0508
     35 H9         15.7173   15.0556    7.0456 H         1 JZH         0.0590
     36 H10        15.1773   12.7145    7.7904 H         1 JZH         0.0497
     37 H11        14.3701   11.0925    6.1101 H         1 JZH         0.0593
     38 H12        15.3198    9.8210    4.4256 H         1 JZH         0.0572
     39 H13        14.4224    7.8995    3.2820 H         1 JZH         0.0734
     40 H14        10.8075    9.7362    0.5334 H         1 JZH         0.2259
     41 H15        10.4704   12.3245    0.5362 H         1 JZH         0.0838
@<TRIPOS>BOND
     1    1    2 1  
     2    2    3 ar 
     3    2    7 ar 
     4    3    4 ar 
     5    4    5 ar 
     6    5    6 ar 
     7    5    8 1  
     8    6    7 ar 
     9    8    9 1  
    10    8   25 1  
    11    9   10 2  
    12    9   11 am 
    13   11   12 1  
    14   12   13 ar 
    15   12   17 ar 
    16   13   14 ar 
    17   14   15 ar 
    18   15   16 ar 
    19   16   17 ar 
    20   17   18 1  
    21   18   19 ar 
    22   18   26 ar 
    23   19   20 ar 
    24   20   21 ar 
    25   21   22 ar 
    26   22   23 1  
    27   22   26 ar 
    28   23   24 1  
    29   24   25 2  
    30   25   26 1  
    31    1   27 1  
    32    3   28 1  
    33    4   29 1  
    34    6   30 1  
    35    7   31 1  
    36    8   32 1  
    37   11   33 1  
    38   13   34 1  
    39   14   35 1  
    40   15   36 1  
    41   16   37 1  
    42   19   38 1  
    43   20   39 1  
    44   23   40 1  
    45   24   41 1  
@<TRIPOS>SUBSTRUCTURE
     1 JZH         1

