### 
### Created by X-TOOL on Mon Sep 10 21:13:02 2018
### 

@<TRIPOS>MOLECULE
3jya_ligand
   20    22     1     0     0
SMALL
GAST_HUCK


@<TRIPOS>ATOM
      1 C1          9.0290   81.3600   -1.2340 C.2       1 LWG         0.2345
      2 N1          9.9220   81.3140   -0.2000 N.am      1 LWG        -0.2024
      3 O1          9.2720   81.1030   -2.4030 O.2       1 LWG        -0.4026
      4 S1          6.4060   81.9310   -1.7400 S.3       1 LWG        -0.0337
      5 CL1         3.3440   82.6020   -2.0740 Cl        1 LWG        -0.0748
      6 C2          9.6000   81.6150    1.1010 C.2       1 LWG         0.1241
      7 N2          8.4500   81.9850    1.5720 N.2       1 LWG        -0.3010
      8 CL2         6.3490   82.8480    3.4260 Cl        1 LWG        -0.0710
      9 C3          7.4770   82.0590    0.5700 C.2       1 LWG         0.0333
     10 C4          7.7730   81.7580   -0.7340 C.2       1 LWG         0.1128
     11 C5          5.4250   82.3980   -0.4130 C.ar      1 LWG         0.0545
     12 C6          4.0920   82.7020   -0.5170 C.ar      1 LWG         0.0550
     13 C7          3.4340   83.0620    0.6360 C.ar      1 LWG        -0.0529
     14 C8          4.1070   83.1130    1.8410 C.ar      1 LWG        -0.0537
     15 C9          5.4450   82.8000    1.9380 C.ar      1 LWG         0.0424
     16 C10         6.1260   82.4310    0.7890 C.ar      1 LWG         0.0141
     17 H1         10.8639   81.0458   -0.4024 H         1 LWG         0.2563
     18 H2         10.4092   81.5329    1.8251 H         1 LWG         0.1481
     19 H3          2.3789   83.3076    0.5986 H         1 LWG         0.0600
     20 H4          3.5679   83.4072    2.7343 H         1 LWG         0.0570
@<TRIPOS>BOND
     1    1    2 am 
     2    1    3 2  
     3   10    1 1  
     4    6    2 1  
     5    4   10 1  
     6   11    4 1  
     7   12    5 1  
     8    7    6 2  
     9    9    7 1  
    10   15    8 1  
    11    9   10 2  
    12   16    9 1  
    13   12   11 ar 
    14   11   16 ar 
    15   13   12 ar 
    16   14   13 ar 
    17   14   15 ar 
    18   15   16 ar 
    19    2   17 1  
    20    6   18 1  
    21   13   19 1  
    22   14   20 1  
@<TRIPOS>SUBSTRUCTURE
     1 LWG         1

