### 
### Created by X-TOOL on Mon Sep 10 21:13:03 2018
### 

@<TRIPOS>MOLECULE
3jyj_ligand
   44    46     1     0     0
SMALL
GAST_HUCK


@<TRIPOS>ATOM
      1 C1         15.1840    4.5590    0.8840 C.2       1 JZI        -0.0666
      2 C2         15.0660    5.7450    1.7480 C.ar      1 JZI        -0.0410
      3 C3         15.8890    5.8990    2.8590 C.ar      1 JZI        -0.0619
      4 C4         15.7420    7.0350    3.6450 C.ar      1 JZI        -0.0664
      5 C5         14.8170    8.0150    3.3670 C.ar      1 JZI        -0.0664
      6 C6         13.9940    7.8690    2.2610 C.ar      1 JZI        -0.0664
      7 C7         14.1300    6.7440    1.4740 C.ar      1 JZI        -0.0619
      8 C8         14.8230    1.2240    0.6330 C.3       1 JZI         0.1054
      9 C9         15.9100    2.2760    0.3190 C.3       1 JZI         0.0145
     10 C10        15.0170    0.1230   -0.3900 C.2       1 JZI         0.0627
     11 O11        14.1330    0.0750   -1.4000 O.co2     1 JZI        -0.5664
     12 O12        15.9340   -0.6470   -0.2790 O.co2     1 JZI        -0.5664
     13 C13        15.8160    3.4490    1.2510 C.2       1 JZI        -0.0699
     14 C14         7.9000    3.9590   -2.1420 C.ar      1 JZI        -0.0596
     15 C15         7.3740    4.8600   -1.2110 C.ar      1 JZI        -0.0598
     16 C16         7.9610    5.0780    0.0020 C.ar      1 JZI        -0.0524
     17 C17         9.0400    3.2620   -1.8550 C.ar      1 JZI        -0.0517
     18 C18         9.6840    3.4530   -0.6180 C.ar      1 JZI        -0.0116
     19 C19         9.1360    4.3720    0.3220 C.ar      1 JZI        -0.0152
     20 C20         9.7780    4.5640    1.5630 C.ar      1 JZI        -0.0509
     21 C21        10.9120    3.8750    1.8530 C.ar      1 JZI        -0.0432
     22 C22        11.4690    2.9580    0.9320 C.ar      1 JZI         0.0504
     23 C23        10.8570    2.7460   -0.2980 C.ar      1 JZI        -0.0329
     24 C24        12.7110    2.2420    1.3000 C.2       1 JZI         0.2065
     25 N25        13.5480    1.8860    0.2970 N.am      1 JZI        -0.2684
     26 O26        13.0850    2.0500    2.4370 O.2       1 JZI        -0.3848
     27 H          14.7302    4.5929   -0.1065 H         1 JZI         0.0430
     28 H          16.6342    5.1435    3.1078 H         1 JZI         0.0579
     29 H          16.3852    7.1548    4.5168 H         1 JZI         0.0605
     30 H          14.7326    8.8933    4.0070 H         1 JZI         0.0579
     31 H          13.2524    8.6298    2.0174 H         1 JZI         0.0605
     32 H          13.4818    6.6308    0.6050 H         1 JZI         0.0579
     33 H          14.8532    0.8509    1.6567 H         1 JZI         0.0756
     34 H          15.7665    2.6304   -0.7017 H         1 JZI         0.0507
     35 H          16.8887    1.8121    0.4414 H         1 JZI         0.0507
     36 H          16.2711    3.3897    2.2397 H         1 JZI         0.0737
     37 H           7.3995    3.8122   -3.0991 H         1 JZI         0.0622
     38 H           6.4650    5.4065   -1.4622 H         1 JZI         0.0630
     39 H           7.5281    5.7853    0.7094 H         1 JZI         0.0626
     40 H           9.4493    2.5603   -2.5818 H         1 JZI         0.0636
     41 H           9.3646    5.2645    2.2886 H         1 JZI         0.0627
     42 H          11.4020    4.0319    2.8139 H         1 JZI         0.0652
     43 H          11.2827    2.0376   -1.0087 H         1 JZI         0.0695
     44 H          13.3011    2.0724   -0.6750 H         1 JZI         0.1870
@<TRIPOS>BOND
     1    1    2 1  
     2   13    1 2  
     3    2    3 ar 
     4    2    7 ar 
     5    3    4 ar 
     6    4    5 ar 
     7    6    5 ar 
     8    7    6 ar 
     9    8    9 1  
    10    8   10 1  
    11   25    8 1  
    12    9   13 1  
    13   10   11 ar 
    14   10   12 ar 
    15   14   15 ar 
    16   17   14 ar 
    17   16   15 ar 
    18   19   16 ar 
    19   18   17 ar 
    20   18   19 ar 
    21   23   18 ar 
    22   20   19 ar 
    23   21   20 ar 
    24   22   21 ar 
    25   22   23 ar 
    26   24   22 1  
    27   24   25 am 
    28   24   26 2  
    29    1   27 1  
    30    3   28 1  
    31    4   29 1  
    32    5   30 1  
    33    6   31 1  
    34    7   32 1  
    35    8   33 1  
    36    9   34 1  
    37    9   35 1  
    38   13   36 1  
    39   14   37 1  
    40   15   38 1  
    41   16   39 1  
    42   17   40 1  
    43   20   41 1  
    44   21   42 1  
    45   23   43 1  
    46   25   44 1  
@<TRIPOS>SUBSTRUCTURE
     1 JZI         1

