### 
### Created by X-TOOL on Mon Sep 10 21:13:02 2018
### 

@<TRIPOS>MOLECULE
3jyr_ligand
   88    91     1     0     0
SMALL
GAST_HUCK


@<TRIPOS>ATOM
      1 C1A        22.3770   -8.7970   17.0440 C.3       1 ACR         0.0141
      2 C2A        23.4350   -7.7180   17.3630 C.3       1 ACR         0.1303
      3 C3A        24.6690   -7.8500   16.4820 C.3       1 ACR         0.1215
      4 C4A        25.3240   -9.2300   16.5740 C.3       1 ACR         0.1112
      5 C5A        24.3120  -10.3310   16.4460 C.2       1 ACR        -0.0200
      6 C6A        24.7850  -11.7240   16.1080 C.3       1 ACR         0.0719
      7 C7A        22.9960  -10.1250   16.6280 C.2       1 ACR        -0.0543
      8 O2A        22.9240   -6.3910   17.1640 O.3       1 ACR        -0.3821
      9 O3A        25.6190   -6.8420   16.8600 O.3       1 ACR        -0.3843
     10 O4A        26.3010   -9.3380   15.5240 O.3       1 ACR        -0.3780
     11 O6A        24.9570  -12.4460   17.3300 O.3       1 ACR        -0.3839
     12 C1B        17.3090   -8.1560   15.2270 C.3       1 ACR         0.1886
     13 C2B        17.6650   -8.0190   16.7110 C.3       1 ACR         0.1370
     14 C3B        19.1810   -7.8220   16.8860 C.3       1 ACR         0.1304
     15 C4B        20.0340   -8.8340   16.1080 C.3       1 ACR         0.0341
     16 C5B        19.5150   -9.0210   14.6760 C.3       1 ACR         0.1038
     17 C6B        20.1640  -10.2520   14.0300 C.3       1 ACR        -0.0332
     18 N4B        21.4270   -8.3680   16.0280 N.4       1 ACR         0.2433
     19 O2B        16.9600   -6.9210   17.3060 O.3       1 ACR        -0.3840
     20 O3B        19.4990   -7.8650   18.2920 O.3       1 ACR        -0.3834
     21 O5B        18.0900   -9.1850   14.6270 O.3       1 ACR        -0.3401
     22 C1C        15.6510   -4.1670   12.1430 C.3       1 ACR         0.1884
     23 C2C        14.8650   -4.6500   13.3580 C.3       1 ACR         0.1341
     24 C3C        15.8500   -5.2780   14.3420 C.3       1 ACR         0.1144
     25 C4C        16.5660   -6.4740   13.6900 C.3       1 ACR         0.1184
     26 C5C        17.2260   -6.0320   12.3750 C.3       1 ACR         0.1134
     27 C6C        17.7110   -7.2420   11.5760 C.3       1 ACR         0.0730
     28 O2C        14.1970   -3.5200   13.9460 O.3       1 ACR        -0.3841
     29 O3C        15.1500   -5.6700   15.5440 O.3       1 ACR        -0.3864
     30 O4C        17.5970   -6.9430   14.5420 O.3       1 ACR        -0.3401
     31 O5C        16.2760   -5.3130   11.5660 O.3       1 ACR        -0.3405
     32 O6C        18.7060   -6.7910   10.6440 O.3       1 ACR        -0.3924
     33 C1D        17.9050    0.5850   11.5080 C.3       1 ACR         0.1854
     34 C2D        16.4010    0.3700   11.6360 C.3       1 ACR         0.1339
     35 C3D        16.0800   -0.9150   12.4030 C.3       1 ACR         0.1144
     36 C4D        16.7810   -2.0850   11.7170 C.3       1 ACR         0.1184
     37 C5D        18.2810   -1.7940   11.5870 C.3       1 ACR         0.1134
     38 C6D        19.0190   -2.9350   10.8620 C.3       1 ACR         0.0730
     39 O1D        18.4780    0.7960   12.7940 O.3       1 ACR        -0.3649
     40 O2D        15.8780    1.5110   12.3160 O.3       1 ACR        -0.3841
     41 O3D        14.6710   -1.1520   12.4370 O.3       1 ACR        -0.3864
     42 O4D        16.6340   -3.2180   12.5570 O.3       1 ACR        -0.3401
     43 O5D        18.5240   -0.5460   10.8930 O.3       1 ACR        -0.3407
     44 O6D        20.4440   -2.7750   11.0140 O.3       1 ACR        -0.3924
     45 H1         21.8120   -8.9725   17.9713 H         1 ACR         0.0950
     46 H2         23.7322   -7.8339   18.4157 H         1 ACR         0.0694
     47 H3         24.3668   -7.6830   15.4376 H         1 ACR         0.0671
     48 H4         25.8253   -9.3240   17.5486 H         1 ACR         0.0769
     49 H5         25.7422  -11.6716   15.5686 H         1 ACR         0.0706
     50 H6         24.0369  -12.2290   15.4793 H         1 ACR         0.0706
     51 H7         22.3250  -10.9674   16.4665 H         1 ACR         0.0299
     52 H8         22.1490   -6.2677   17.6994 H         1 ACR         0.2103
     53 H9         25.2107   -5.9861   16.8023 H         1 ACR         0.2102
     54 H10        26.9374   -8.6382   15.6119 H         1 ACR         0.2130
     55 H11        24.1282  -12.4853   17.7927 H         1 ACR         0.2125
     56 H12        16.2397   -8.3948   15.1298 H         1 ACR         0.0938
     57 H13        17.3694   -8.9449   17.2261 H         1 ACR         0.0672
     58 H14        19.4329   -6.8211   16.5056 H         1 ACR         0.0679
     59 H15        20.0015   -9.8002   16.6327 H         1 ACR         0.0903
     60 H16        19.7848   -8.1274   14.0941 H         1 ACR         0.0652
     61 H17        19.7824  -10.3725   13.0054 H         1 ACR         0.0257
     62 H18        19.9194  -11.1476   14.6200 H         1 ACR         0.0257
     63 H19        21.2555  -10.1186   14.0014 H         1 ACR         0.0257
     64 H20        21.7892   -8.6729   15.1381 H         1 ACR         0.2029
     65 H21        21.4028   -7.3606   16.0536 H         1 ACR         0.2029
     66 H22        16.0252   -7.0487   17.1946 H         1 ACR         0.2101
     67 H23        20.4169   -7.6533   18.4145 H         1 ACR         0.2102
     68 H24        14.9734   -3.7000   11.4131 H         1 ACR         0.0938
     69 H25        14.1200   -5.3996   13.0530 H         1 ACR         0.0671
     70 H26        16.6074   -4.5267   14.6101 H         1 ACR         0.0648
     71 H27        15.8403   -7.2779   13.4974 H         1 ACR         0.0651
     72 H28        18.0815   -5.3800   12.6050 H         1 ACR         0.0647
     73 H29        16.8675   -7.6922   11.0321 H         1 ACR         0.0584
     74 H30        18.1482   -7.9874   12.2566 H         1 ACR         0.0584
     75 H31        13.7193   -3.8020   14.7173 H         1 ACR         0.2101
     76 H32        14.5005   -6.3295   15.3301 H         1 ACR         0.2100
     77 H33        19.4298   -6.4005   11.1195 H         1 ACR         0.2095
     78 H34        18.0847    1.4732   10.8845 H         1 ACR         0.0935
     79 H35        15.9543    0.3017   10.6331 H         1 ACR         0.0671
     80 H36        16.4511   -0.8211   13.4342 H         1 ACR         0.0648
     81 H37        16.3394   -2.2704   10.7268 H         1 ACR         0.0651
     82 H38        18.6951   -1.7081   12.6024 H         1 ACR         0.0647
     83 H39        18.7620   -2.9136    9.7927 H         1 ACR         0.0584
     84 H40        18.7126   -3.8993   11.2936 H         1 ACR         0.0584
     85 H41        19.4102    0.9547   12.7020 H         1 ACR         0.2126
     86 H42        14.9348    1.4275   12.3932 H         1 ACR         0.2101
     87 H43        14.4970   -1.9515   12.9199 H         1 ACR         0.2100
     88 H44        20.6670   -2.7945   11.9372 H         1 ACR         0.2095
@<TRIPOS>BOND
     1    1    2 1  
     2    1    7 1  
     3   18    1 1  
     4    2    3 1  
     5    2    8 1  
     6    3    4 1  
     7    3    9 1  
     8    5    4 1  
     9    4   10 1  
    10    5    6 1  
    11    7    5 2  
    12    6   11 1  
    13   12   13 1  
    14   12   21 1  
    15   30   12 1  
    16   13   14 1  
    17   13   19 1  
    18   14   15 1  
    19   14   20 1  
    20   16   15 1  
    21   15   18 1  
    22   16   17 1  
    23   21   16 1  
    24   22   23 1  
    25   22   31 1  
    26   42   22 1  
    27   23   24 1  
    28   23   28 1  
    29   24   25 1  
    30   24   29 1  
    31   26   25 1  
    32   25   30 1  
    33   26   27 1  
    34   31   26 1  
    35   27   32 1  
    36   34   33 1  
    37   33   39 1  
    38   33   43 1  
    39   35   34 1  
    40   34   40 1  
    41   36   35 1  
    42   35   41 1  
    43   36   37 1  
    44   36   42 1  
    45   37   38 1  
    46   37   43 1  
    47   38   44 1  
    48    1   45 1  
    49    2   46 1  
    50    3   47 1  
    51    4   48 1  
    52    6   49 1  
    53    6   50 1  
    54    7   51 1  
    55    8   52 1  
    56    9   53 1  
    57   10   54 1  
    58   11   55 1  
    59   12   56 1  
    60   13   57 1  
    61   14   58 1  
    62   15   59 1  
    63   16   60 1  
    64   17   61 1  
    65   17   62 1  
    66   17   63 1  
    67   18   64 1  
    68   18   65 1  
    69   19   66 1  
    70   20   67 1  
    71   22   68 1  
    72   23   69 1  
    73   24   70 1  
    74   25   71 1  
    75   26   72 1  
    76   27   73 1  
    77   27   74 1  
    78   28   75 1  
    79   29   76 1  
    80   32   77 1  
    81   33   78 1  
    82   34   79 1  
    83   35   80 1  
    84   36   81 1  
    85   37   82 1  
    86   38   83 1  
    87   38   84 1  
    88   39   85 1  
    89   40   86 1  
    90   41   87 1  
    91   44   88 1  
@<TRIPOS>SUBSTRUCTURE
     1 ACR         1

