### 
### Created by X-TOOL on Mon Sep 10 21:12:59 2018
### 

@<TRIPOS>MOLECULE
3jzb_ligand
   42    43     1     0     0
SMALL
GAST_HUCK


@<TRIPOS>ATOM
      1 C1         25.2850   37.4200   34.4250 C.3       1 4HY        -0.0344
      2 C2         27.8220   39.0230   30.3480 C.3       1 4HY         0.0815
      3 C3         25.8560   38.8320   34.4270 C.3       1 4HY        -0.0358
      4 C4         28.1110   40.1440   29.3190 C.2       1 4HY        -0.0524
      5 C5         26.6850   39.2400   33.2280 C.3       1 4HY         0.0389
      6 C6         29.4720   40.1500   28.7260 C.2       1 4HY         0.0030
      7 C7         26.9030   38.2820   32.0950 C.3       1 4HY         0.0848
      8 C8         30.5140   39.1780   29.0610 C.3       1 4HY         0.0806
      9 C9         26.3640   36.8310   32.1160 C.3       1 4HY         0.0389
     10 C10        30.1980   38.0660   30.1120 C.3       1 4HY        -0.0164
     11 C11        25.5310   36.3950   33.3040 C.3       1 4HY        -0.0358
     12 C12        28.8290   37.9970   30.7480 C.3       1 4HY        -0.0145
     13 C13        25.0340   36.8900   35.8050 C.3       1 4HY         0.0009
     14 C14        23.6530   36.9530   36.2710 C.3       1 4HY         0.1534
     15 I1         26.8940   41.3110   32.9000 I         1 4HY        -0.0790
     16 I2         30.0480   41.5810   27.3320 I         1 4HY        -0.0647
     17 I3         25.9820   35.8530   30.3270 I         1 4HY        -0.0790
     18 O3         22.9020   36.6920   35.3870 O.3       1 4HY        -0.3672
     19 O2         26.5940   38.8780   30.9100 O.3       1 4HY        -0.3606
     20 O1         31.7790   39.2920   28.4610 O.3       1 4HY        -0.3835
     21 O4         23.5720   36.3750   37.5600 O.3       1 4HY        -0.3672
     22 H1         24.2522   37.6766   34.1468 H         1 4HY         0.0303
     23 H2         28.1469   39.6891   31.1608 H         1 4HY         0.0743
     24 H3         26.4917   38.9316   35.3192 H         1 4HY         0.0279
     25 H4         25.0104   39.5318   34.4992 H         1 4HY         0.0279
     26 H5         27.3601   40.8842   29.0466 H         1 4HY         0.0566
     27 H6         27.6679   39.0852   33.6969 H         1 4HY         0.0434
     28 H7         27.9945   38.1463   32.0854 H         1 4HY         0.0619
     29 H8         30.1817   38.5152   28.2484 H         1 4HY         0.0709
     30 H9         27.3040   36.3233   32.3780 H         1 4HY         0.0434
     31 H10        30.9230   38.1868   30.9304 H         1 4HY         0.0311
     32 H11        30.3658   37.1001   29.6131 H         1 4HY         0.0311
     33 H12        24.5474   36.0876   32.9193 H         1 4HY         0.0279
     34 H13        26.0347   35.5284   33.7570 H         1 4HY         0.0279
     35 H14        28.4053   37.0107   30.5078 H         1 4HY         0.0314
     36 H15        28.9684   38.0811   31.8359 H         1 4HY         0.0314
     37 H16        25.6528   37.4692   36.5061 H         1 4HY         0.0316
     38 H17        25.3480   35.8359   35.8234 H         1 4HY         0.0316
     39 H18        23.4497   38.0173   36.4602 H         1 4HY         0.0905
     40 H19        22.0163   36.9132   35.6497 H         1 4HY         0.2125
     41 H20        31.7758   40.0230   27.8543 H         1 4HY         0.2124
     42 H21        22.7291   36.5821   37.9463 H         1 4HY         0.2125
@<TRIPOS>BOND
     1    3    1 1  
     2    1   11 1  
     3    1   13 1  
     4    2    4 1  
     5    2   12 1  
     6   19    2 1  
     7    5    3 1  
     8    4    6 2  
     9    7    5 1  
    10    5   15 1  
    11    6    8 1  
    12    6   16 1  
    13    7    9 1  
    14    7   19 1  
    15    8   10 1  
    16    8   20 1  
    17    9   11 1  
    18    9   17 1  
    19   10   12 1  
    20   13   14 1  
    21   14   18 1  
    22   14   21 1  
    23    1   22 1  
    24    2   23 1  
    25    3   24 1  
    26    3   25 1  
    27    4   26 1  
    28    5   27 1  
    29    7   28 1  
    30    8   29 1  
    31    9   30 1  
    32   10   31 1  
    33   10   32 1  
    34   11   33 1  
    35   11   34 1  
    36   12   35 1  
    37   12   36 1  
    38   13   37 1  
    39   13   38 1  
    40   14   39 1  
    41   18   40 1  
    42   20   41 1  
    43   21   42 1  
@<TRIPOS>SUBSTRUCTURE
     1 4HY         1

