### 
### Created by X-TOOL on Mon Sep 10 21:13:00 2018
### 

@<TRIPOS>MOLECULE
3jzc_ligand
   29    30     1     0     0
SMALL
GAST_HUCK


@<TRIPOS>ATOM
      1 C1        -15.1780  -16.1660  -27.1220 C.ar      1 4HY        -0.0345
      2 C2        -14.1820  -12.1380  -29.7980 C.ar      1 4HY         0.1079
      3 C3        -14.7800  -16.2920  -28.4460 C.ar      1 4HY        -0.0527
      4 C4        -13.6610  -11.4270  -30.8670 C.ar      1 4HY        -0.0257
      5 C5        -14.1640  -15.2250  -29.1020 C.ar      1 4HY         0.0383
      6 C6        -14.4820  -10.6100  -31.6330 C.ar      1 4HY         0.0300
      7 C7        -13.9630  -14.0110  -28.4400 C.ar      1 4HY         0.1290
      8 C8        -15.8340  -10.5030  -31.3360 C.ar      1 4HY         0.0884
      9 C9        -14.3880  -13.8850  -27.1200 C.ar      1 4HY         0.0383
     10 C10       -16.3610  -11.2140  -30.2720 C.ar      1 4HY        -0.0376
     11 C11       -14.9870  -14.9570  -26.4690 C.ar      1 4HY        -0.0527
     12 C12       -15.5390  -12.0330  -29.5080 C.ar      1 4HY        -0.0340
     13 C13       -15.8870  -17.3080  -26.3710 C.3       1 4HY         0.0299
     14 C14       -15.0610  -18.5540  -26.0240 C.2       1 4HY         0.0448
     15 I1        -13.5550  -15.4750  -31.1120 I         1 4HY        -0.0569
     16 I2        -13.6400   -9.5340  -33.2320 I         1 4HY        -0.0593
     17 I3        -14.0740  -12.0760  -26.0930 I         1 4HY        -0.0569
     18 O3        -13.8870  -18.3880  -25.6230 O.co2     1 4HY        -0.5667
     19 O2        -13.3600  -12.9450  -29.0620 O.3       1 4HY        -0.2643
     20 O1        -16.6350   -9.7060  -32.0820 O.3       1 4HY        -0.3376
     21 O4        -15.6830  -19.6470  -26.0880 O.co2     1 4HY        -0.5667
     22 H1        -14.9485  -17.2240  -28.9732 H         1 4HY         0.0584
     23 H2        -12.6070  -11.5089  -31.1066 H         1 4HY         0.0555
     24 H3        -17.4155  -11.1318  -30.0346 H         1 4HY         0.0525
     25 H4        -15.3085  -14.8472  -25.4396 H         1 4HY         0.0584
     26 H5        -15.9575  -12.5941  -28.6803 H         1 4HY         0.0548
     27 H6        -16.7315  -17.6368  -26.9945 H         1 4HY         0.0569
     28 H7        -16.2684  -16.8931  -25.4263 H         1 4HY         0.0569
     29 H8        -17.0201   -9.0378  -31.5273 H         1 4HY         0.2458
@<TRIPOS>BOND
     1    3    1 ar 
     2    1   11 ar 
     3    1   13 1  
     4    2    4 ar 
     5    2   12 ar 
     6   19    2 1  
     7    5    3 ar 
     8    4    6 ar 
     9    7    5 ar 
    10    5   15 1  
    11    6    8 ar 
    12    6   16 1  
    13    7    9 ar 
    14    7   19 1  
    15    8   10 ar 
    16    8   20 1  
    17    9   11 ar 
    18    9   17 1  
    19   10   12 ar 
    20   13   14 1  
    21   14   18 ar 
    22   14   21 ar 
    23    3   22 1  
    24    4   23 1  
    25   10   24 1  
    26   11   25 1  
    27   12   26 1  
    28   13   27 1  
    29   13   28 1  
    30   20   29 1  
@<TRIPOS>SUBSTRUCTURE
     1 4HY         1

