### 
### Created by X-TOOL on Mon Sep 10 21:13:01 2018
### 

@<TRIPOS>MOLECULE
3jzf_ligand
   53    56     1     0     0
SMALL
GAST_HUCK


@<TRIPOS>ATOM
      1 N1         39.9820  -27.6550   36.7180 N.am      1 JZK        -0.3016
      2 C2         40.1150  -26.2650   36.5810 C.2       1 JZK         0.1932
      3 O3         40.9710  -25.7210   35.8460 O.2       1 JZK        -0.3894
      4 C4         39.0290  -25.4170   37.2110 C.ar      1 JZK         0.0306
      5 C5         39.1520  -23.9970   37.1780 C.ar      1 JZK        -0.0591
      6 C6         38.1470  -23.0000   37.6620 C.ar      1 JZK        -0.0393
      7 C7         36.9990  -23.7620   38.2120 C.ar      1 JZK         0.0825
      8 N8         35.8270  -23.2900   38.7690 N.pl3     1 JZK        -0.2134
      9 C9         35.3700  -21.9010   38.7320 C.3       1 JZK         0.0612
     10 C10        34.4470  -21.6970   37.5120 C.3       1 JZK        -0.0146
     11 C11        33.6200  -20.4390   37.7710 C.3       1 JZK        -0.0478
     12 C12        34.2450  -19.1770   37.1830 C.3       1 JZK        -0.0527
     13 C13        34.5900  -19.2830   35.6920 C.3       1 JZK        -0.0530
     14 C14        34.6090  -20.7220   35.1540 C.3       1 JZK        -0.0527
     15 C15        35.2950  -21.6080   36.2130 C.3       1 JZK        -0.0478
     16 C16        35.0690  -24.3610   39.1520 C.2       1 JZK         0.2188
     17 N17        33.8710  -24.1730   39.7400 N.pl3     1 JZK        -0.2629
     18 C18        33.2170  -25.2700   40.4110 C.3       1 JZK         0.0678
     19 C19        33.7590  -25.6410   41.7890 C.ar      1 JZK        -0.0064
     20 C20        34.4820  -24.7670   42.6420 C.ar      1 JZK        -0.0577
     21 C21        34.9130  -25.2450   43.9210 C.ar      1 JZK        -0.0683
     22 C22        34.6340  -26.5750   44.3540 C.ar      1 JZK        -0.0682
     23 C23        33.9190  -27.4460   43.5110 C.ar      1 JZK        -0.0545
     24 C24        33.4940  -26.9670   42.2390 C.ar      1 JZK         0.0432
     25 CL25       32.6250  -28.0110   41.1810 Cl        1 JZK        -0.0771
     26 N26        35.6730  -25.4870   38.8410 N.2       1 JZK        -0.3116
     27 C27        36.8480  -25.1590   38.2600 C.ar      1 JZK         0.0178
     28 C28        37.8530  -26.0050   37.7620 C.ar      1 JZK        -0.0486
     29 H1         39.2790  -28.0331   37.3204 H         1 JZK         0.1806
     30 H2         40.5902  -28.2676   36.2132 H         1 JZK         0.1806
     31 H3         40.0687  -23.5984   36.7588 H         1 JZK         0.0560
     32 H4         38.2403  -21.9209   37.6188 H         1 JZK         0.0544
     33 H5         36.2386  -21.2309   38.6510 H         1 JZK         0.0601
     34 H6         34.8153  -21.6725   39.6540 H         1 JZK         0.0601
     35 H7         33.7662  -22.5562   37.4213 H         1 JZK         0.0326
     36 H8         33.5185  -20.3050   38.8581 H         1 JZK         0.0269
     37 H9         32.6244  -20.5769   37.3240 H         1 JZK         0.0269
     38 H10        35.1704  -18.9599   37.7367 H         1 JZK         0.0265
     39 H11        33.5355  -18.3468   37.3148 H         1 JZK         0.0265
     40 H12        35.5857  -18.8424   35.5355 H         1 JZK         0.0265
     41 H13        33.8424  -18.7111   35.1228 H         1 JZK         0.0265
     42 H14        35.1723  -20.7619   34.2100 H         1 JZK         0.0265
     43 H15        33.5803  -21.0716   34.9822 H         1 JZK         0.0265
     44 H16        35.4276  -22.6196   35.8019 H         1 JZK         0.0269
     45 H17        36.2784  -21.1791   36.4560 H         1 JZK         0.0269
     46 H18        33.4224  -23.2463   39.7103 H         1 JZK         0.1925
     47 H19        33.3049  -26.1571   39.7666 H         1 JZK         0.0692
     48 H20        32.1557  -25.0059   40.5286 H         1 JZK         0.0692
     49 H21        34.7045  -23.7530   42.3300 H         1 JZK         0.0557
     50 H22        35.4645  -24.5802   44.5759 H         1 JZK         0.0601
     51 H23        34.9709  -26.9131   45.3273 H         1 JZK         0.0559
     52 H24        33.6965  -28.4599   43.8232 H         1 JZK         0.0605
     53 H25        37.7367  -27.0822   37.7960 H         1 JZK         0.0576
@<TRIPOS>BOND
     1    1    2 am 
     2    2    3 2  
     3    2    4 1  
     4    4    5 ar 
     5    4   28 ar 
     6    5    6 ar 
     7    6    7 ar 
     8    7    8 1  
     9    7   27 ar 
    10    8    9 1  
    11    8   16 1  
    12    9   10 1  
    13   10   11 1  
    14   10   15 1  
    15   11   12 1  
    16   12   13 1  
    17   13   14 1  
    18   14   15 1  
    19   16   17 1  
    20   16   26 2  
    21   17   18 1  
    22   18   19 1  
    23   19   20 ar 
    24   19   24 ar 
    25   20   21 ar 
    26   21   22 ar 
    27   22   23 ar 
    28   23   24 ar 
    29   24   25 1  
    30   26   27 1  
    31   27   28 ar 
    32    1   29 1  
    33    1   30 1  
    34    5   31 1  
    35    6   32 1  
    36    9   33 1  
    37    9   34 1  
    38   10   35 1  
    39   11   36 1  
    40   11   37 1  
    41   12   38 1  
    42   12   39 1  
    43   13   40 1  
    44   13   41 1  
    45   14   42 1  
    46   14   43 1  
    47   15   44 1  
    48   15   45 1  
    49   17   46 1  
    50   18   47 1  
    51   18   48 1  
    52   20   49 1  
    53   21   50 1  
    54   22   51 1  
    55   23   52 1  
    56   28   53 1  
@<TRIPOS>SUBSTRUCTURE
     1 JZK         1

