### 
### Created by X-TOOL on Fri Sep 26 17:34:43 2014
### 

@<TRIPOS>MOLECULE
3jzg_ligand
   79    78     1     0     0
SMALL
GAST_HUCK


@<TRIPOS>ATOM
      1 N         -21.2400   36.2310  -26.1160 N.4       1 ALA         0.2377
      2 CA        -19.8770   35.6570  -26.2660 C.3       1 ALA         0.0621
      3 C         -19.9800   34.2120  -26.7680 C.2       1 ALA         0.2264
      4 O         -20.5700   33.3660  -26.0840 O.2       1 ALA        -0.3907
      5 CB        -19.1170   35.6950  -24.9340 C.3       1 ALA        -0.0040
      6 N         -19.3950   33.9080  -27.9320 N.am      1 ALA        -0.2610
      7 CA        -19.4240   32.5270  -28.4270 C.3       1 ALA         0.1312
      8 C         -18.1530   31.7680  -28.0420 C.2       1 ALA         0.2039
      9 O         -17.0690   32.3710  -27.9240 O.2       1 ALA        -0.3944
     10 CB        -19.7650   32.3920  -29.9380 C.3       1 ALA        -0.0092
     11 CG        -18.8480   33.1910  -30.9920 C.3       1 ALA        -0.0156
     12 CD        -18.9620   32.6910  -32.5060 C.3       1 ALA         0.0627
     13 NE        -20.1200   31.8190  -32.7020 N.pl3     1 ALA        -0.2723
     14 CZ        -21.3780   32.2600  -32.8060 C.cat     1 ALA         0.2882
     15 NH1       -21.6460   33.5710  -32.7680 N.pl3     1 ALA        -0.2849
     16 NH2       -22.3800   31.3980  -32.9420 N.pl3     1 ALA        -0.2849
     17 N         -18.3440   30.4560  -27.8270 N.am      1 ALA        -0.2637
     18 CA        -17.2870   29.4840  -27.5180 C.3       1 ALA         0.1309
     19 CB        -17.8310   28.1860  -26.8670 C.3       1 ALA        -0.0122
     20 CG        -16.7790   27.4960  -25.9920 C.3       1 ALA        -0.0440
     21 CD        -17.1180   26.0490  -25.6340 C.3       1 ALA        -0.0123
     22 CE        -16.1070   25.3950  -24.6450 C.3       1 ALA        -0.0309
     23 NZ        -16.5280   24.1140  -23.9770 N.4       1 ALA         0.2369
     24 C         -16.3470   29.1670  -28.6700 C.2       1 ALA         0.2034
     25 O         -15.1720   28.8160  -28.3980 O.2       1 ALA        -0.3944
     26 CM1       -17.3190   24.2860  -22.7490 C.3       1 ALA        -0.0418
     27 CM2       -15.3020   23.4170  -23.5350 C.3       1 ALA        -0.0418
     28 CM3       -17.3120   23.2570  -24.9200 C.3       1 ALA        -0.0418
     29 N         -16.8250   29.2750  -29.9410 N.am      1 ALA        -0.2672
     30 CA        -15.9250   29.1730  -31.1770 C.3       1 ALA         0.1173
     31 C         -16.0410   30.2100  -32.3350 C.2       1 ALA         0.0623
     32 O         -17.1170   30.7140  -32.6440 O.co2     1 ALA        -0.5665
     33 CB        -15.9620   27.7630  -31.7710 C.3       1 ALA         0.0789
     34 OG        -17.3000   27.3250  -31.8430 O.3       1 ALA        -0.3910
     35 O1        -15.0039   30.5394  -32.9702 O.co2     1 ALA        -0.5665
     36 H1        -21.1701   37.1809  -25.7859 H         1 ALA         0.2015
     37 H2        -21.7644   35.6825  -25.4525 H         1 ALA         0.2015
     38 H3        -21.7097   36.2189  -27.0078 H         1 ALA         0.2015
     39 H4        -19.3219   36.2530  -27.0053 H         1 ALA         0.1095
     40 H5        -18.1137   35.2655  -25.0719 H         1 ALA         0.0310
     41 H6        -19.6661   35.1097  -24.1817 H         1 ALA         0.0310
     42 H7        -19.0261   36.7369  -24.5933 H         1 ALA         0.0310
     43 H8        -18.9385   34.6211  -28.4641 H         1 ALA         0.1884
     44 H9        -20.2493   32.0341  -27.8924 H         1 ALA         0.0800
     45 H10       -20.7992   32.7416  -30.0728 H         1 ALA         0.0313
     46 H11       -19.7027   31.3239  -30.1936 H         1 ALA         0.0313
     47 H12       -17.7990   33.0884  -30.6774 H         1 ALA         0.0301
     48 H13       -19.1381   34.2516  -30.9607 H         1 ALA         0.0301
     49 H14       -18.0493   32.1357  -32.7677 H         1 ALA         0.0689
     50 H15       -19.0598   33.5668  -33.1643 H         1 ALA         0.0689
     51 H16       -19.9564   30.8039  -32.7636 H         1 ALA         0.2642
     52 H17       -22.6185   33.9004  -32.8490 H         1 ALA         0.2615
     53 H18       -20.8797   34.2503  -32.6578 H         1 ALA         0.2615
     54 H19       -22.1885   30.3864  -32.9728 H         1 ALA         0.2615
     55 H20       -23.3482   31.7414  -33.0167 H         1 ALA         0.2615
     56 H21       -19.2818   30.1132  -27.8817 H         1 ALA         0.1883
     57 H22       -16.6633   29.9688  -26.7525 H         1 ALA         0.0800
     58 H23       -18.1405   27.4927  -27.6629 H         1 ALA         0.0312
     59 H24       -18.7006   28.4396  -26.2429 H         1 ALA         0.0312
     60 H25       -16.6769   28.0682  -25.0581 H         1 ALA         0.0269
     61 H26       -15.8212   27.5029  -26.5328 H         1 ALA         0.0269
     62 H27       -17.1306   25.4559  -26.5603 H         1 ALA         0.0317
     63 H28       -18.1165   26.0301  -25.1728 H         1 ALA         0.0317
     64 H29       -15.8984   26.1284  -23.8521 H         1 ALA         0.0815
     65 H30       -15.1833   25.1878  -25.2051 H         1 ALA         0.0815
     66 H31       -17.5769   23.2989  -22.3377 H         1 ALA         0.0778
     67 H32       -18.2412   24.8387  -22.9813 H         1 ALA         0.0778
     68 H33       -16.7305   24.8489  -22.0096 H         1 ALA         0.0778
     69 H34       -14.6452   23.2459  -24.4007 H         1 ALA         0.0778
     70 H35       -15.5720   22.4512  -23.0831 H         1 ALA         0.0778
     71 H36       -14.7763   24.0351  -22.7924 H         1 ALA         0.0778
     72 H37       -18.2186   23.7939  -25.2359 H         1 ALA         0.0778
     73 H38       -17.5968   22.3220  -24.4153 H         1 ALA         0.0778
     74 H39       -16.6972   23.0250  -25.8021 H         1 ALA         0.0778
     75 H40       -17.8045   29.4273  -30.0730 H         1 ALA         0.1876
     76 H41       -14.9091   29.3164  -30.7802 H         1 ALA         0.0749
     77 H42       -15.3850   27.0790  -31.1313 H         1 ALA         0.0599
     78 H43       -15.5249   27.7774  -32.7803 H         1 ALA         0.0599
     79 H44       -17.3261   26.4497  -32.2115 H         1 ALA         0.2096
@<TRIPOS>BOND
     1    1    2 1  
     2    2    3 1  
     3    2    5 1  
     4    3    4 2  
     5    3    6 am 
     6    6    7 1  
     7    7    8 1  
     8    7   10 1  
     9    8    9 2  
    10    8   17 am 
    11   10   11 1  
    12   11   12 1  
    13   12   13 1  
    14   13   14 ar 
    15   14   15 ar 
    16   14   16 ar 
    17   17   18 1  
    18   18   19 1  
    19   18   24 1  
    20   19   20 1  
    21   20   21 1  
    22   21   22 1  
    23   22   23 1  
    24   23   26 1  
    25   23   27 1  
    26   23   28 1  
    27   24   25 2  
    28   24   29 am 
    29   29   30 1  
    30   30   31 1  
    31   30   33 1  
    32   31   32 ar 
    33   33   34 1  
    34   31   35 ar 
    35    1   36 1  
    36    1   37 1  
    37    1   38 1  
    38    2   39 1  
    39    5   40 1  
    40    5   41 1  
    41    5   42 1  
    42    6   43 1  
    43    7   44 1  
    44   10   45 1  
    45   10   46 1  
    46   11   47 1  
    47   11   48 1  
    48   12   49 1  
    49   12   50 1  
    50   13   51 1  
    51   15   52 1  
    52   15   53 1  
    53   16   54 1  
    54   16   55 1  
    55   17   56 1  
    56   18   57 1  
    57   19   58 1  
    58   19   59 1  
    59   20   60 1  
    60   20   61 1  
    61   21   62 1  
    62   21   63 1  
    63   22   64 1  
    64   22   65 1  
    65   26   66 1  
    66   26   67 1  
    67   26   68 1  
    68   27   69 1  
    69   27   70 1  
    70   27   71 1  
    71   28   72 1  
    72   28   73 1  
    73   28   74 1  
    74   29   75 1  
    75   30   76 1  
    76   33   77 1  
    77   33   78 1  
    78   34   79 1  
@<TRIPOS>SUBSTRUCTURE
     1 ALA         1

