### 
### Created by X-TOOL on Mon Sep 10 21:12:59 2018
### 

@<TRIPOS>MOLECULE
3jzh_ligand
   92    92     1     0     0
SMALL
GAST_HUCK


@<TRIPOS>ATOM
      1 N          21.6060    6.3190  -26.2990 N.4       1 ASP         0.2391
      2 CA         20.2710    6.9640  -26.2520 C.3       1 ASP         0.0765
      3 C          20.1640    8.4390  -26.7600 C.2       1 ASP         0.2285
      4 O          20.6760    9.3430  -26.1250 O.2       1 ASP        -0.3906
      5 CB         19.7880    6.8800  -24.8200 C.3       1 ASP         0.0607
      6 CG         18.3640    7.2800  -24.6870 C.2       1 ASP         0.0425
      7 OD1        17.6420    7.2150  -25.7320 O.co2     1 ASP        -0.5686
      8 OD2        17.9490    7.6700  -23.5550 O.co2     1 ASP        -0.5686
      9 N          19.4270    8.6470  -27.8610 N.am      1 PHE        -0.2591
     10 CA         19.2960    9.9010  -28.6660 C.3       1 PHE         0.1406
     11 C          18.1430   10.8050  -28.0820 C.2       1 PHE         0.2060
     12 O          17.0520   10.3010  -27.8270 O.2       1 PHE        -0.3942
     13 CB         18.8840    9.4700  -30.1090 C.3       1 PHE         0.0214
     14 CG         19.9290    9.6900  -31.2470 C.ar      1 PHE        -0.0386
     15 CD1        21.3430    9.7410  -31.0150 C.ar      1 PHE        -0.0601
     16 CD2        19.4610    9.7930  -32.6070 C.ar      1 PHE        -0.0601
     17 CE1        22.2780    9.9320  -32.1330 C.ar      1 PHE        -0.0686
     18 CE2        20.3660    9.9940  -33.7290 C.ar      1 PHE        -0.0686
     19 CZ         21.7660   10.0580  -33.4930 C.ar      1 PHE        -0.0687
     20 N          18.3740   12.1130  -27.8840 N.am      1 M3L        -0.2636
     21 CA         17.3300   13.0570  -27.3810 C.3       1 M3L         0.1310
     22 CB         17.8750   14.3360  -26.6880 C.3       1 M3L        -0.0122
     23 CG         16.7980   15.1740  -25.9720 C.3       1 M3L        -0.0440
     24 CD         17.2470   16.5260  -25.3950 C.3       1 M3L        -0.0123
     25 CE         16.1340   17.2780  -24.6190 C.3       1 M3L        -0.0309
     26 NZ         16.5730   18.5190  -23.9080 N.4       1 M3L         0.2369
     27 C          16.3990   13.4150  -28.5260 C.2       1 M3L         0.2040
     28 O          15.2310   13.7690  -28.3410 O.2       1 M3L        -0.3944
     29 CM1        17.2930   18.2800  -22.6270 C.3       1 M3L        -0.0418
     30 CM2        15.3410   19.2220  -23.5270 C.3       1 M3L        -0.0418
     31 CM3        17.4110   19.3380  -24.8330 C.3       1 M3L        -0.0418
     32 N          16.9540   13.2500  -29.7240 N.am      1 THR        -0.2613
     33 CA         16.3640   13.6370  -31.0060 C.3       1 THR         0.1564
     34 C          16.6500   12.6260  -32.1590 C.2       1 THR         0.2060
     35 O          17.6440   11.9070  -32.1420 O.2       1 THR        -0.3943
     36 CB         16.9440   15.0070  -31.4070 C.3       1 THR         0.0924
     37 OG1        16.3060   15.4230  -32.5890 O.3       1 THR        -0.3874
     38 CG2        18.5340   14.9550  -31.6510 C.3       1 THR        -0.0346
     39 N          15.8160   12.6100  -33.1880 N.am      1 ASP        -0.2679
     40 CA         16.1260   11.8020  -34.3830 C.3       1 ASP         0.1057
     41 C          16.8640   12.5810  -35.4590 C.2       1 ASP         0.0618
     42 O          17.3280   11.9610  -36.4120 O.co2     1 ASP        -0.5665
     43 CB         14.8540   11.1410  -34.9560 C.3       1 ASP         0.0351
     44 CG         13.5640   11.8310  -34.4880 C.2       1 ASP         0.0387
     45 OD1        12.5140   11.1500  -34.4960 O.co2     1 ASP        -0.5688
     46 OD2        13.5940   13.0280  -34.0900 O.co2     1 ASP        -0.5688
     47 O1         16.9964   13.8312  -35.3754 O.co2     1 ASP        -0.5665
     48 H1         21.5368    5.3774  -25.9460 H         1 ASP         0.2016
     49 H2         22.2529    6.8439  -25.7315 H         1 ASP         0.2016
     50 H3         21.9354    6.2974  -27.2514 H         1 ASP         0.2016
     51 H4         19.6002    6.3648  -26.8852 H         1 ASP         0.1117
     52 H5         20.4034    7.5469  -24.1983 H         1 ASP         0.0512
     53 H6         19.8998    5.8439  -24.4680 H         1 ASP         0.0512
     54 H7         18.8971    7.8634  -28.1854 H         1 PHE         0.1886
     55 H8         20.2468   10.4540  -28.6762 H         1 PHE         0.0823
     56 H9         17.9794   10.0354  -30.3772 H         1 PHE         0.0474
     57 H10        18.6495    8.3957  -30.0788 H         1 PHE         0.0474
     58 H11        21.7259    9.6378  -30.0061 H         1 PHE         0.0557
     59 H12        18.3971    9.7180  -32.8007 H         1 PHE         0.0557
     60 H13        23.3449    9.9791  -31.9473 H         1 PHE         0.0599
     61 H14        19.9758   10.0940  -34.7354 H         1 PHE         0.0599
     62 H15        22.4511   10.2000  -34.3210 H         1 PHE         0.0559
     63 H16        19.2861   12.4718  -28.0821 H         1 M3L         0.1883
     64 H17        16.7428   12.5151  -26.6251 H         1 M3L         0.0800
     65 H18        18.3508   14.9669  -27.4532 H         1 M3L         0.0312
     66 H19        18.6264   14.0320  -25.9444 H         1 M3L         0.0312
     67 H20        16.4043   14.5709  -25.1406 H         1 M3L         0.0269
     68 H21        15.9931   15.3710  -26.6954 H         1 M3L         0.0269
     69 H22        17.5811   17.1639  -26.2265 H         1 M3L         0.0317
     70 H23        18.0880   16.3478  -24.7087 H         1 M3L         0.0317
     71 H24        15.7166   16.5881  -23.8708 H         1 M3L         0.0815
     72 H25        15.3495   17.5582  -25.3374 H         1 M3L         0.0815
     73 H26        17.5747   19.2445  -22.1793 H         1 M3L         0.0778
     74 H27        18.1991   17.6871  -22.8207 H         1 M3L         0.0778
     75 H28        16.6372   17.7319  -21.9345 H         1 M3L         0.0778
     76 H29        14.7477   19.4366  -24.4281 H         1 M3L         0.0778
     77 H30        15.5980   20.1658  -23.0239 H         1 M3L         0.0778
     78 H31        14.7546   18.5901  -22.8438 H         1 M3L         0.0778
     79 H32        18.3217   18.7792  -25.0945 H         1 M3L         0.0778
     80 H33        17.6886   20.2807  -24.3387 H         1 M3L         0.0778
     81 H34        16.8403   19.5576  -25.7474 H         1 M3L         0.0778
     82 H35        17.8575   12.8221  -29.7507 H         1 THR         0.1884
     83 H36        15.2747   13.7208  -30.8781 H         1 THR         0.0826
     84 H37        16.7358   15.7294  -30.6041 H         1 THR         0.0639
     85 H38        16.4662   14.7858  -33.2751 H         1 THR         0.2101
     86 H39        18.8945   15.9551  -31.9336 H         1 THR         0.0257
     87 H40        18.7579   14.2428  -32.4588 H         1 THR         0.0257
     88 H41        19.0363   14.6317  -30.7274 H         1 THR         0.0257
     89 H42        14.9733   13.1474  -33.1548 H         1 ASP         0.1876
     90 H43        16.7965   10.9935  -34.0563 H         1 ASP         0.0745
     91 H44        14.8277   10.0899  -34.6328 H         1 ASP         0.0471
     92 H45        14.8984   11.1860  -36.0542 H         1 ASP         0.0471
@<TRIPOS>BOND
     1    1    2 1  
     2    2    3 1  
     3    2    5 1  
     4    3    4 2  
     5    3    9 am 
     6    5    6 1  
     7    6    7 ar 
     8    6    8 ar 
     9    9   10 1  
    10   10   11 1  
    11   10   13 1  
    12   11   12 2  
    13   11   20 am 
    14   13   14 1  
    15   14   15 ar 
    16   14   16 ar 
    17   15   17 ar 
    18   16   18 ar 
    19   17   19 ar 
    20   18   19 ar 
    21   20   21 1  
    22   21   22 1  
    23   21   27 1  
    24   22   23 1  
    25   23   24 1  
    26   24   25 1  
    27   25   26 1  
    28   26   29 1  
    29   26   30 1  
    30   26   31 1  
    31   27   28 2  
    32   27   32 am 
    33   32   33 1  
    34   33   34 1  
    35   33   36 1  
    36   34   35 2  
    37   34   39 am 
    38   36   37 1  
    39   36   38 1  
    40   39   40 1  
    41   40   41 1  
    42   40   43 1  
    43   41   42 ar 
    44   43   44 1  
    45   44   45 ar 
    46   44   46 ar 
    47   41   47 ar 
    48    1   48 1  
    49    1   49 1  
    50    1   50 1  
    51    2   51 1  
    52    5   52 1  
    53    5   53 1  
    54    9   54 1  
    55   10   55 1  
    56   13   56 1  
    57   13   57 1  
    58   15   58 1  
    59   16   59 1  
    60   17   60 1  
    61   18   61 1  
    62   19   62 1  
    63   20   63 1  
    64   21   64 1  
    65   22   65 1  
    66   22   66 1  
    67   23   67 1  
    68   23   68 1  
    69   24   69 1  
    70   24   70 1  
    71   25   71 1  
    72   25   72 1  
    73   29   73 1  
    74   29   74 1  
    75   29   75 1  
    76   30   76 1  
    77   30   77 1  
    78   30   78 1  
    79   31   79 1  
    80   31   80 1  
    81   31   81 1  
    82   32   82 1  
    83   33   83 1  
    84   36   84 1  
    85   37   85 1  
    86   38   86 1  
    87   38   87 1  
    88   38   88 1  
    89   39   89 1  
    90   40   90 1  
    91   43   91 1  
    92   43   92 1  
@<TRIPOS>SUBSTRUCTURE
     1 ASP         1

