### 
### Created by X-TOOL on Mon Sep 10 21:13:00 2018
### 

@<TRIPOS>MOLECULE
3jzi_ligand
   59    62     1     0     0
SMALL
GAST_HUCK


@<TRIPOS>ATOM
      1 N1        -15.1330   -2.0860   -1.8480 N.am      1 JZL        -0.3017
      2 C2        -15.2760   -1.9930   -0.4970 C.2       1 JZL         0.1900
      3 O3        -16.1540   -2.5870    0.1130 O.2       1 JZL        -0.3894
      4 C4        -14.3240   -1.1100    0.2190 C.ar      1 JZL         0.0176
      5 C5        -14.5980   -0.8590    1.5810 C.ar      1 JZL        -0.0426
      6 C6        -13.7900   -0.0110    2.3630 C.ar      1 JZL         0.0599
      7 N7        -14.1360    0.1790    3.7150 N.pl3     1 JZL        -0.3399
      8 C8        -12.6730    0.5530    1.6860 C.ar      1 JZL         0.1022
      9 N9        -11.6900    1.3960    2.0710 N.pl3     1 JZL        -0.2170
     10 C10       -11.5940    1.9870    3.3740 C.3       1 JZL         0.0618
     11 C11       -10.7160    1.3160    4.3720 C.3       1 JZL         0.0112
     12 C12       -10.6120    1.8320    5.8020 C.3       1 JZL        -0.0455
     13 C13       -10.6320    0.6870    6.7860 C.3       1 JZL        -0.0526
     14 C14       -11.4110   -0.4950    6.2780 C.3       1 JZL        -0.0530
     15 C15       -10.6190   -1.4790    5.4190 C.3       1 JZL        -0.0507
     16 C16        -9.6120   -0.9610    4.3690 C.3       1 JZL        -0.0265
     17 C17        -9.5550    0.4880    3.8840 C.3       1 JZL         0.0604
     18 O18        -8.3060    1.1370    4.2190 O.3       1 JZL        -0.3914
     19 C19       -10.8460    1.6360    1.0130 C.2       1 JZL         0.2160
     20 N20        -9.7810    2.4690    1.1850 N.pl3     1 JZL        -0.2637
     21 C21        -9.0000    2.9530    0.1020 C.3       1 JZL         0.0676
     22 C22        -9.6430    4.1030   -0.6160 C.ar      1 JZL        -0.0064
     23 C23       -10.4530    5.0780    0.0580 C.ar      1 JZL        -0.0577
     24 C24       -11.0300    6.1410   -0.6710 C.ar      1 JZL        -0.0683
     25 C25       -10.8070    6.2610   -2.0600 C.ar      1 JZL        -0.0682
     26 C26       -10.0090    5.3020   -2.7340 C.ar      1 JZL        -0.0545
     27 C27        -9.4260    4.2290   -2.0100 C.ar      1 JZL         0.0432
     28 CL28       -8.4580    3.0750   -2.8710 Cl        1 JZL        -0.0771
     29 N29       -11.2410    0.9590   -0.0370 N.2       1 JZL        -0.3160
     30 C30       -12.3640    0.3050    0.3500 C.ar      1 JZL         0.0070
     31 C31       -13.1850   -0.5440   -0.4020 C.ar      1 JZL        -0.0628
     32 H1        -14.4014   -1.5839   -2.3091 H         1 JZL         0.1806
     33 H2        -15.7596   -2.6564   -2.3790 H         1 JZL         0.1806
     34 H3        -15.4577   -1.3341    2.0395 H         1 JZL         0.0437
     35 H4        -14.9721   -0.2813    4.1022 H         1 JZL         0.1696
     36 H5        -13.5529    0.7783    4.3165 H         1 JZL         0.1696
     37 H6        -12.6090    2.0182    3.7969 H         1 JZL         0.0600
     38 H7        -11.2195    3.0130    3.2433 H         1 JZL         0.0600
     39 H8        -11.3988    0.4806    4.5861 H         1 JZL         0.0351
     40 H9        -11.4618    2.4995    6.0076 H         1 JZL         0.0270
     41 H10        -9.6711    2.3902    5.9168 H         1 JZL         0.0270
     42 H11       -11.0905    1.0352    7.7233 H         1 JZL         0.0265
     43 H12        -9.5966    0.3702    6.9798 H         1 JZL         0.0265
     44 H13       -12.2491   -0.1158    5.6749 H         1 JZL         0.0265
     45 H14       -11.8033   -1.0426    7.1476 H         1 JZL         0.0265
     46 H15       -11.3559   -2.0891    4.8762 H         1 JZL         0.0266
     47 H16       -10.0524   -2.1186    6.1118 H         1 JZL         0.0266
     48 H17        -9.7789   -1.5708    3.4689 H         1 JZL         0.0290
     49 H18        -8.6147   -1.1780    4.7792 H         1 JZL         0.0290
     50 H19        -9.6197    0.4552    2.7864 H         1 JZL         0.0597
     51 H20        -8.3189    2.0310    3.8981 H         1 JZL         0.2098
     52 H21        -9.5320    2.7599    2.1412 H         1 JZL         0.1921
     53 H22        -8.8483    2.1327   -0.6150 H         1 JZL         0.0691
     54 H23        -8.0262    3.2837    0.4922 H         1 JZL         0.0691
     55 H24       -10.6216    4.9983    1.1258 H         1 JZL         0.0557
     56 H25       -11.6486    6.8702   -0.1604 H         1 JZL         0.0601
     57 H26       -11.2454    7.0854   -2.6106 H         1 JZL         0.0559
     58 H27        -9.8442    5.3882   -3.8019 H         1 JZL         0.0605
     59 H28       -12.9532   -0.7632   -1.4380 H         1 JZL         0.0458
@<TRIPOS>BOND
     1    1    2 am 
     2    2    3 2  
     3    2    4 1  
     4    4    5 ar 
     5    4   31 ar 
     6    5    6 ar 
     7    6    7 1  
     8    6    8 ar 
     9    8    9 1  
    10    8   30 ar 
    11    9   10 1  
    12    9   19 1  
    13   10   11 1  
    14   11   12 1  
    15   11   17 1  
    16   12   13 1  
    17   13   14 1  
    18   14   15 1  
    19   15   16 1  
    20   16   17 1  
    21   17   18 1  
    22   19   20 1  
    23   19   29 2  
    24   20   21 1  
    25   21   22 1  
    26   22   23 ar 
    27   22   27 ar 
    28   23   24 ar 
    29   24   25 ar 
    30   25   26 ar 
    31   26   27 ar 
    32   27   28 1  
    33   29   30 1  
    34   30   31 ar 
    35    1   32 1  
    36    1   33 1  
    37    5   34 1  
    38    7   35 1  
    39    7   36 1  
    40   10   37 1  
    41   10   38 1  
    42   11   39 1  
    43   12   40 1  
    44   12   41 1  
    45   13   42 1  
    46   13   43 1  
    47   14   44 1  
    48   14   45 1  
    49   15   46 1  
    50   15   47 1  
    51   16   48 1  
    52   16   49 1  
    53   17   50 1  
    54   18   51 1  
    55   20   52 1  
    56   21   53 1  
    57   21   54 1  
    58   23   55 1  
    59   24   56 1  
    60   25   57 1  
    61   26   58 1  
    62   31   59 1  
@<TRIPOS>SUBSTRUCTURE
     1 JZL         1

