### 
### Created by X-TOOL on Mon Sep 10 21:13:03 2018
### 

@<TRIPOS>MOLECULE
3jzj_ligand
   88    91     1     0     0
SMALL
GAST_HUCK


@<TRIPOS>ATOM
      1 C1A        -6.0420  -11.6920   22.0660 C.3       1 ACR         0.0141
      2 C2A        -5.2600  -12.6370   21.1710 C.3       1 ACR         0.1303
      3 C3A        -5.6700  -12.3930   19.7070 C.3       1 ACR         0.1215
      4 C4A        -7.1690  -12.7090   19.5240 C.3       1 ACR         0.1112
      5 C5A        -8.0380  -12.2100   20.6470 C.2       1 ACR        -0.0200
      6 C6A        -9.5270  -12.1680   20.3750 C.3       1 ACR         0.0719
      7 C7A        -7.5200  -11.8330   21.8210 C.2       1 ACR        -0.0543
      8 O2A        -3.8390  -12.4280   21.3010 O.3       1 ACR        -0.3821
      9 O3A        -4.8460  -13.1240   18.7690 O.3       1 ACR        -0.3843
     10 O4A        -7.6040  -12.1590   18.2570 O.3       1 ACR        -0.3780
     11 O6A       -10.3360  -11.7450   21.4930 O.3       1 ACR        -0.3839
     12 C1B        -4.5980   -6.7660   23.9230 C.3       1 ACR         0.1886
     13 C2B        -3.7890   -7.9900   24.3240 C.3       1 ACR         0.1370
     14 C3B        -3.8910   -8.9920   23.1810 C.3       1 ACR         0.1304
     15 C4B        -5.3420   -9.4350   23.0530 C.3       1 ACR         0.0341
     16 C5B        -6.2490   -8.2080   22.9010 C.3       1 ACR         0.1038
     17 C6B        -7.7240   -8.5720   23.1490 C.3       1 ACR        -0.0332
     18 N4B        -5.5310  -10.3080   21.8860 N.4       1 ACR         0.2433
     19 O2B        -2.4350   -7.6590   24.6230 O.3       1 ACR        -0.3840
     20 O3B        -3.1000  -10.1810   23.3960 O.3       1 ACR        -0.3834
     21 O5B        -5.9650   -7.2100   23.8940 O.3       1 ACR        -0.3401
     22 C1C        -4.2140   -2.6780   20.4680 C.3       1 ACR         0.1884
     23 C2C        -3.0140   -2.9620   21.3470 C.3       1 ACR         0.1341
     24 C3C        -2.9370   -4.4540   21.6900 C.3       1 ACR         0.1144
     25 C4C        -4.2280   -4.8550   22.3780 C.3       1 ACR         0.1184
     26 C5C        -5.3940   -4.5070   21.4620 C.3       1 ACR         0.1134
     27 C6C        -6.7320   -4.7780   22.1450 C.3       1 ACR         0.0730
     28 O2C        -1.8450   -2.5070   20.6680 O.3       1 ACR        -0.3841
     29 O3C        -1.8450   -4.6210   22.5750 O.3       1 ACR        -0.3864
     30 O4C        -4.1280   -6.2500   22.6310 O.3       1 ACR        -0.3401
     31 O5C        -5.3850   -3.1160   21.1120 O.3       1 ACR        -0.3405
     32 O6C        -7.8250   -4.6390   21.1900 O.3       1 ACR        -0.3924
     33 C1D        -4.1030   -2.6350   15.1440 C.3       1 ACR         0.1854
     34 C2D        -3.3320   -1.6570   15.9970 C.3       1 ACR         0.1339
     35 C3D        -3.0410   -2.2360   17.3670 C.3       1 ACR         0.1144
     36 C4D        -4.3590   -2.6120   18.0290 C.3       1 ACR         0.1184
     37 C5D        -5.2370   -3.4850   17.1480 C.3       1 ACR         0.1134
     38 C6D        -6.6510   -3.6990   17.7060 C.3       1 ACR         0.0730
     39 O1D        -3.3370   -3.8050   15.0840 O.3       1 ACR        -0.3649
     40 O2D        -2.0960   -1.2480   15.3730 O.3       1 ACR        -0.3841
     41 O3D        -2.3730   -1.2460   18.1530 O.3       1 ACR        -0.3864
     42 O4D        -4.0600   -3.3850   19.2310 O.3       1 ACR        -0.3401
     43 O5D        -5.3640   -2.9470   15.7900 O.3       1 ACR        -0.3407
     44 O6D        -7.2850   -2.4180   17.6550 O.3       1 ACR        -0.3924
     45 H1         -5.8565  -11.9789   23.1116 H         1 ACR         0.0950
     46 H2         -5.4968  -13.6741   21.4507 H         1 ACR         0.0694
     47 H3         -5.5268  -11.3227   19.4973 H         1 ACR         0.0671
     48 H4         -7.2795  -13.8027   19.4844 H         1 ACR         0.0769
     49 H5         -9.8498  -13.1780   20.0821 H         1 ACR         0.0706
     50 H6         -9.7030  -11.4709   19.5425 H         1 ACR         0.0706
     51 H7         -8.2027  -11.6170   22.6415 H         1 ACR         0.0299
     52 H8         -3.3777  -13.0339   20.7331 H         1 ACR         0.2103
     53 H9         -4.9719  -14.0567   18.8985 H         1 ACR         0.2102
     54 H10        -8.5019  -12.4211   18.0909 H         1 ACR         0.2130
     55 H11       -10.2070  -12.3428   22.2199 H         1 ACR         0.2125
     56 H12        -4.4854   -5.9737   24.6777 H         1 ACR         0.0938
     57 H13        -4.2367   -8.4325   25.2261 H         1 ACR         0.0672
     58 H14        -3.5625   -8.5045   22.2513 H         1 ACR         0.0679
     59 H15        -5.6255   -9.9859   23.9619 H         1 ACR         0.0903
     60 H16        -6.1199   -7.7910   21.8913 H         1 ACR         0.0652
     61 H17        -8.3479   -7.6735   23.0330 H         1 ACR         0.0257
     62 H18        -7.8375   -8.9680   24.1690 H         1 ACR         0.0257
     63 H19        -8.0407   -9.3346   22.4222 H         1 ACR         0.0257
     64 H20        -6.1773   -9.8370   21.2724 H         1 ACR         0.2029
     65 H21        -4.6339  -10.3860   21.4331 H         1 ACR         0.2029
     66 H22        -2.0265   -7.2771   23.8550 H         1 ACR         0.2101
     67 H23        -2.1850   -9.9402   23.4806 H         1 ACR         0.2102
     68 H24        -4.2827   -1.5977   20.2724 H         1 ACR         0.0938
     69 H25        -3.1174   -2.3985   22.2860 H         1 ACR         0.0671
     70 H26        -2.7895   -5.0555   20.7809 H         1 ACR         0.0648
     71 H27        -4.3413   -4.3140   23.3291 H         1 ACR         0.0651
     72 H28        -5.3171   -5.1158   20.5491 H         1 ACR         0.0647
     73 H29        -6.8731   -4.0586   22.9651 H         1 ACR         0.0584
     74 H30        -6.7321   -5.8007   22.5502 H         1 ACR         0.0584
     75 H31        -1.9328   -1.5811   20.4744 H         1 ACR         0.2101
     76 H32        -1.7893   -5.5318   22.8391 H         1 ACR         0.2100
     77 H33        -8.6505   -4.8102   21.6280 H         1 ACR         0.2095
     78 H34        -4.2768   -2.2247   14.1383 H         1 ACR         0.0935
     79 H35        -3.9584   -0.7624   16.1285 H         1 ACR         0.0671
     80 H36        -2.4041   -3.1277   17.2710 H         1 ACR         0.0648
     81 H37        -4.9049   -1.6938   18.2914 H         1 ACR         0.0651
     82 H38        -4.7491   -4.4687   17.0820 H         1 ACR         0.0647
     83 H39        -6.6032   -4.0622   18.7432 H         1 ACR         0.0584
     84 H40        -7.2014   -4.4241   17.0885 H         1 ACR         0.0584
     85 H41        -3.8051   -4.4633   14.5841 H         1 ACR         0.2126
     86 H42        -2.2808   -0.8855   14.5146 H         1 ACR         0.2101
     87 H43        -1.5512   -1.0142   17.7366 H         1 ACR         0.2100
     88 H44        -7.3104   -2.1141   16.7552 H         1 ACR         0.2095
@<TRIPOS>BOND
     1    1    2 1  
     2    1    7 1  
     3   18    1 1  
     4    2    3 1  
     5    2    8 1  
     6    3    4 1  
     7    3    9 1  
     8    5    4 1  
     9    4   10 1  
    10    5    6 1  
    11    7    5 2  
    12    6   11 1  
    13   12   13 1  
    14   12   21 1  
    15   30   12 1  
    16   13   14 1  
    17   13   19 1  
    18   14   15 1  
    19   14   20 1  
    20   16   15 1  
    21   15   18 1  
    22   16   17 1  
    23   21   16 1  
    24   22   23 1  
    25   22   31 1  
    26   42   22 1  
    27   23   24 1  
    28   23   28 1  
    29   24   25 1  
    30   24   29 1  
    31   26   25 1  
    32   25   30 1  
    33   26   27 1  
    34   31   26 1  
    35   27   32 1  
    36   34   33 1  
    37   33   39 1  
    38   33   43 1  
    39   35   34 1  
    40   34   40 1  
    41   36   35 1  
    42   35   41 1  
    43   36   37 1  
    44   36   42 1  
    45   37   38 1  
    46   37   43 1  
    47   38   44 1  
    48    1   45 1  
    49    2   46 1  
    50    3   47 1  
    51    4   48 1  
    52    6   49 1  
    53    6   50 1  
    54    7   51 1  
    55    8   52 1  
    56    9   53 1  
    57   10   54 1  
    58   11   55 1  
    59   12   56 1  
    60   13   57 1  
    61   14   58 1  
    62   15   59 1  
    63   16   60 1  
    64   17   61 1  
    65   17   62 1  
    66   17   63 1  
    67   18   64 1  
    68   18   65 1  
    69   19   66 1  
    70   20   67 1  
    71   22   68 1  
    72   23   69 1  
    73   24   70 1  
    74   25   71 1  
    75   26   72 1  
    76   27   73 1  
    77   27   74 1  
    78   28   75 1  
    79   29   76 1  
    80   32   77 1  
    81   33   78 1  
    82   34   79 1  
    83   35   80 1  
    84   36   81 1  
    85   37   82 1  
    86   38   83 1  
    87   38   84 1  
    88   39   85 1  
    89   40   86 1  
    90   41   87 1  
    91   44   88 1  
@<TRIPOS>SUBSTRUCTURE
     1 ACR         1

