### 
### Created by X-TOOL on Mon Sep 10 21:13:02 2018
### 

@<TRIPOS>MOLECULE
3jzk_ligand
   47    52     1     0     0
SMALL
GAST_HUCK


@<TRIPOS>ATOM
      1 C1         10.0160  -15.8340   25.9040 C.ar      1 YIN         0.0036
      2 N1         11.3370  -16.6150   24.0060 N.pl3     1 YIN        -0.1374
      3 O1          6.7510  -15.3200   22.7390 O.3       1 YIN        -0.2925
      4 BR1        10.3610  -13.8190   30.0390 Br        1 YIN        -0.0561
      5 C2          9.4980  -16.6000   27.0400 C.ar      1 YIN        -0.0528
      6 N2         13.0110  -16.4650   22.7090 N.2       1 YIN        -0.2888
      7 BR2         6.0780  -10.4650   27.3190 Br        1 YIN        -0.0561
      8 C3          9.5530  -16.0100   28.3530 C.ar      1 YIN        -0.0588
      9 N3         10.8510  -15.3140   21.9490 N.pl3     1 YIN        -0.2468
     10 C4         10.1260  -14.7080   28.3830 C.ar      1 YIN         0.0056
     11 N4         12.2740  -17.2910   24.6340 N.2       1 YIN        -0.2064
     12 C5         10.6280  -13.9280   27.3240 C.ar      1 YIN        -0.0588
     13 C6         10.5760  -14.5140   26.0360 C.ar      1 YIN        -0.0528
     14 C7          7.5570  -15.2740   23.9390 C.3       1 YIN         0.1468
     15 C8         13.3460  -17.1960   23.8070 C.2       1 YIN         0.0384
     16 C9          9.0140  -15.5700   23.5600 C.2       1 YIN         0.0441
     17 C10         9.9510  -16.4060   24.5430 C.3       1 YIN         0.1490
     18 C11        11.7460  -16.0910   22.8150 C.2       1 YIN         0.2516
     19 C12         9.4760  -15.1150   22.3550 C.2       1 YIN         0.0620
     20 C13         9.1340  -13.6140   20.3190 C.ar      1 YIN        -0.0700
     21 C14         8.1400  -12.9550   19.4880 C.ar      1 YIN        -0.0798
     22 C15         6.7380  -13.1050   19.7220 C.ar      1 YIN        -0.0774
     23 C16         6.2480  -13.9250   20.8090 C.ar      1 YIN        -0.0385
     24 C17         7.2080  -14.5800   21.6480 C.ar      1 YIN         0.0998
     25 C18         8.6210  -14.4320   21.4110 C.ar      1 YIN         0.0154
     26 C19         6.2730  -14.1710   25.6790 C.ar      1 YIN        -0.0529
     27 C20         7.3350  -13.9900   24.7200 C.ar      1 YIN         0.0027
     28 C21         8.0400  -12.7240   24.5300 C.ar      1 YIN        -0.0529
     29 C22         7.6610  -11.5880   25.3260 C.ar      1 YIN        -0.0588
     30 C23         6.5900  -11.7940   26.2730 C.ar      1 YIN         0.0056
     31 C24         5.8780  -13.0410   26.4820 C.ar      1 YIN        -0.0588
     32 H1          9.0818  -17.5905   26.8956 H         1 YIN         0.0567
     33 H2          9.1894  -16.5142   29.2411 H         1 YIN         0.0626
     34 H3         11.1968  -14.9157   21.0643 H         1 YIN         0.2098
     35 H4         11.0315  -12.9349   27.4855 H         1 YIN         0.0626
     36 H5         10.9493  -13.9810   25.1690 H         1 YIN         0.0567
     37 H6          7.2250  -16.0932   24.5937 H         1 YIN         0.0970
     38 H7         14.3241  -17.6370   23.9934 H         1 YIN         0.0807
     39 H8          9.4912  -17.4010   24.6355 H         1 YIN         0.0981
     40 H9         10.1969  -13.5034   20.1369 H         1 YIN         0.0526
     41 H10         8.4720  -12.3310   18.6661 H         1 YIN         0.0508
     42 H11         6.0314  -12.5970   19.0757 H         1 YIN         0.0532
     43 H12         5.1845  -14.0407   20.9839 H         1 YIN         0.0519
     44 H13         5.7845  -15.1320   25.7929 H         1 YIN         0.0567
     45 H14         8.8369  -12.6425   23.7997 H         1 YIN         0.0567
     46 H15         8.1530  -10.6278   25.2209 H         1 YIN         0.0626
     47 H16         5.0811  -13.1196   27.2126 H         1 YIN         0.0626
@<TRIPOS>BOND
     1    1    5 ar 
     2    1   13 ar 
     3   17    1 1  
     4    2   11 1  
     5   17    2 1  
     6    2   18 1  
     7   14    3 1  
     8    3   24 1  
     9   10    4 1  
    10    5    8 ar 
    11    6   15 1  
    12   18    6 2  
    13   30    7 1  
    14    8   10 ar 
    15    9   18 1  
    16   19    9 1  
    17   12   10 ar 
    18   11   15 2  
    19   13   12 ar 
    20   14   16 1  
    21   27   14 1  
    22   16   17 1  
    23   16   19 2  
    24   19   25 1  
    25   20   21 ar 
    26   25   20 ar 
    27   22   21 ar 
    28   23   22 ar 
    29   24   23 ar 
    30   24   25 ar 
    31   27   26 ar 
    32   26   31 ar 
    33   28   27 ar 
    34   29   28 ar 
    35   29   30 ar 
    36   30   31 ar 
    37    5   32 1  
    38    8   33 1  
    39    9   34 1  
    40   12   35 1  
    41   13   36 1  
    42   14   37 1  
    43   15   38 1  
    44   17   39 1  
    45   20   40 1  
    46   21   41 1  
    47   22   42 1  
    48   23   43 1  
    49   26   44 1  
    50   28   45 1  
    51   29   46 1  
    52   31   47 1  
@<TRIPOS>SUBSTRUCTURE
     1 YIN         1

