### 
### Created by X-TOOL on Mon Sep 10 21:13:03 2018
### 

@<TRIPOS>MOLECULE
3k00_ligand
   87    90     1     0     0
SMALL
GAST_HUCK


@<TRIPOS>ATOM
      1 O14        -4.7180  -13.2830   18.8360 O.3       1 MTT        -0.3865
      2 C14        -5.0250  -12.2290   19.7610 C.3       1 MTT         0.1119
      3 C13        -6.4210  -11.6180   19.5530 C.3       1 MTT         0.1141
      4 O13        -7.2330  -12.4900   18.7620 O.3       1 MTT        -0.3864
      5 C12        -7.1620  -11.2190   20.8530 C.3       1 MTT         0.1341
      6 O12        -8.3170  -12.0380   21.1110 O.3       1 MTT        -0.3841
      7 C11        -6.2830  -11.2750   22.1020 C.3       1 MTT         0.1884
      8 C15        -4.7330  -12.7990   21.1510 C.3       1 MTT         0.1130
      9 O15        -5.7370  -12.5790   22.1550 O.3       1 MTT        -0.3405
     10 C16        -3.3780  -12.3070   21.6330 C.3       1 MTT         0.0730
     11 O16        -3.2580  -12.5890   23.0260 O.3       1 MTT        -0.3924
     12 O24        -5.2100  -10.3100   22.0650 O.3       1 MTT        -0.3401
     13 C24        -5.1330   -9.4900   23.2420 C.3       1 MTT         0.1184
     14 C23        -3.6940   -8.9900   23.4380 C.3       1 MTT         0.1144
     15 O23        -2.8000  -10.0270   23.8830 O.3       1 MTT        -0.3864
     16 C22        -3.6790   -7.8580   24.4530 C.3       1 MTT         0.1341
     17 O22        -2.3650   -7.3860   24.7410 O.3       1 MTT        -0.3841
     18 C21        -4.5210   -6.7140   23.9200 C.3       1 MTT         0.1884
     19 C25        -6.1320   -8.3330   23.0780 C.3       1 MTT         0.1134
     20 O25        -5.8810   -7.1990   23.9250 O.3       1 MTT        -0.3405
     21 C26        -7.5580   -8.7900   23.4140 C.3       1 MTT         0.0730
     22 O26        -8.3610   -8.1740   22.4440 O.3       1 MTT        -0.3924
     23 O34        -4.0160   -6.3090   22.6290 O.3       1 MTT        -0.3401
     24 C34        -4.1140   -4.8880   22.3690 C.3       1 MTT         0.1184
     25 C33        -2.7790   -4.4010   21.7630 C.3       1 MTT         0.1144
     26 O33        -1.6980   -4.5270   22.6780 O.3       1 MTT        -0.3864
     27 C32        -2.9310   -2.9170   21.4060 C.3       1 MTT         0.1341
     28 O32        -1.7700   -2.4100   20.7370 O.3       1 MTT        -0.3841
     29 C31        -4.1580   -2.6610   20.5390 C.3       1 MTT         0.1884
     30 C35        -5.3000   -4.5660   21.4660 C.3       1 MTT         0.1134
     31 O35        -5.3320   -3.1590   21.1690 O.3       1 MTT        -0.3405
     32 C36        -6.6810   -4.8890   22.0440 C.3       1 MTT         0.0730
     33 O36        -7.7200   -4.6520   21.0880 O.3       1 MTT        -0.3924
     34 O44        -3.9810   -3.2900   19.2620 O.3       1 MTT        -0.3401
     35 C44        -4.3130   -2.5380   18.0970 C.3       1 MTT         0.1184
     36 C43        -3.0180   -2.0930   17.4210 C.3       1 MTT         0.1144
     37 O43        -2.2980   -1.1290   18.2100 O.3       1 MTT        -0.3864
     38 C42        -3.3410   -1.5120   16.0350 C.3       1 MTT         0.1339
     39 O42        -2.1160   -1.1450   15.3910 O.3       1 MTT        -0.3841
     40 C41        -4.0980   -2.5480   15.2090 C.3       1 MTT         0.1854
     41 O41        -3.2930   -3.7200   15.0990 O.3       1 MTT        -0.3649
     42 C45        -5.1470   -3.4310   17.1750 C.3       1 MTT         0.1134
     43 O45        -5.3430   -2.8730   15.8540 O.3       1 MTT        -0.3407
     44 C46        -6.5540   -3.6730   17.7150 C.3       1 MTT         0.0730
     45 O46        -7.2620   -2.4220   17.8070 O.3       1 MTT        -0.3924
     46 H1         -5.3529  -13.9830   18.9331 H         1 MTT         0.2100
     47 H2         -4.3114  -11.4101   19.5877 H         1 MTT         0.0647
     48 H3         -6.2752  -10.6912   18.9787 H         1 MTT         0.0648
     49 H4         -8.0908  -12.1000   18.6421 H         1 MTT         0.2100
     50 H5         -7.5003  -10.1806   20.7220 H         1 MTT         0.0671
     51 H6         -8.9300  -11.9551   20.3900 H         1 MTT         0.2101
     52 H7         -6.9005  -11.0876   22.9928 H         1 MTT         0.0938
     53 H8         -4.6610  -13.8896   21.0268 H         1 MTT         0.0647
     54 H9         -3.2973  -11.2227   21.4666 H         1 MTT         0.0584
     55 H10        -2.5789  -12.8232   21.0807 H         1 MTT         0.0584
     56 H11        -3.9507  -12.1431   23.4990 H         1 MTT         0.2095
     57 H12        -5.4187  -10.0859   24.1213 H         1 MTT         0.0651
     58 H13        -3.3287   -8.6090   22.4729 H         1 MTT         0.0648
     59 H14        -2.7805  -10.7248   23.2386 H         1 MTT         0.2100
     60 H15        -4.1247   -8.2262   25.3888 H         1 MTT         0.0671
     61 H16        -1.9633   -7.0640   23.9426 H         1 MTT         0.2101
     62 H17        -4.4519   -5.8503   24.5977 H         1 MTT         0.0938
     63 H18        -6.0911   -8.0042   22.0291 H         1 MTT         0.0647
     64 H19        -7.8447   -8.4595   24.4232 H         1 MTT         0.0584
     65 H20        -7.6409   -9.8849   23.3493 H         1 MTT         0.0584
     66 H21        -9.2692   -8.4125   22.5883 H         1 MTT         0.2095
     67 H22        -4.2695   -4.3691   23.3264 H         1 MTT         0.0651
     68 H23        -2.5574   -4.9855   20.8579 H         1 MTT         0.0648
     69 H24        -1.5967   -5.4392   22.9231 H         1 MTT         0.2100
     70 H25        -3.0550   -2.3601   22.3465 H         1 MTT         0.0671
     71 H26        -1.8998   -1.4914   20.5321 H         1 MTT         0.2101
     72 H27        -4.2690   -1.5766   20.3914 H         1 MTT         0.0938
     73 H28        -5.1708   -5.1362   20.5343 H         1 MTT         0.0647
     74 H29        -6.8561   -4.2556   22.9261 H         1 MTT         0.0584
     75 H30        -6.7047   -5.9475   22.3422 H         1 MTT         0.0584
     76 H31        -7.7085   -3.7379   20.8295 H         1 MTT         0.2095
     77 H32        -4.9009   -1.6514   18.3767 H         1 MTT         0.0651
     78 H33        -2.3755   -2.9764   17.2910 H         1 MTT         0.0648
     79 H34        -1.5022   -0.8799   17.7549 H         1 MTT         0.2100
     80 H35        -3.9701   -0.6172   16.1513 H         1 MTT         0.0671
     81 H36        -2.3063   -0.7846   14.5328 H         1 MTT         0.2101
     82 H37        -4.3010   -2.1437   14.2063 H         1 MTT         0.0935
     83 H38        -3.7538   -4.3722   14.5845 H         1 MTT         0.2126
     84 H39        -4.6237   -4.3941   17.0831 H         1 MTT         0.0647
     85 H40        -6.4886   -4.1301   18.7134 H         1 MTT         0.0584
     86 H41        -7.0944   -4.3496   17.0366 H         1 MTT         0.0584
     87 H42        -7.3191   -2.0275   16.9446 H         1 MTT         0.2095
@<TRIPOS>BOND
     1    1    2 1  
     2    2    3 1  
     3    2    8 1  
     4    3    4 1  
     5    3    5 1  
     6    5    6 1  
     7    5    7 1  
     8    7    9 1  
     9    7   12 1  
    10    8    9 1  
    11    8   10 1  
    12   10   11 1  
    13   12   13 1  
    14   13   14 1  
    15   13   19 1  
    16   14   15 1  
    17   14   16 1  
    18   16   17 1  
    19   16   18 1  
    20   18   20 1  
    21   18   23 1  
    22   19   20 1  
    23   19   21 1  
    24   21   22 1  
    25   23   24 1  
    26   24   25 1  
    27   24   30 1  
    28   25   26 1  
    29   25   27 1  
    30   27   28 1  
    31   27   29 1  
    32   29   31 1  
    33   29   34 1  
    34   30   31 1  
    35   30   32 1  
    36   32   33 1  
    37   34   35 1  
    38   35   36 1  
    39   35   42 1  
    40   36   37 1  
    41   36   38 1  
    42   38   39 1  
    43   38   40 1  
    44   40   41 1  
    45   40   43 1  
    46   42   43 1  
    47   42   44 1  
    48   44   45 1  
    49    1   46 1  
    50    2   47 1  
    51    3   48 1  
    52    4   49 1  
    53    5   50 1  
    54    6   51 1  
    55    7   52 1  
    56    8   53 1  
    57   10   54 1  
    58   10   55 1  
    59   11   56 1  
    60   13   57 1  
    61   14   58 1  
    62   15   59 1  
    63   16   60 1  
    64   17   61 1  
    65   18   62 1  
    66   19   63 1  
    67   21   64 1  
    68   21   65 1  
    69   22   66 1  
    70   24   67 1  
    71   25   68 1  
    72   26   69 1  
    73   27   70 1  
    74   28   71 1  
    75   29   72 1  
    76   30   73 1  
    77   32   74 1  
    78   32   75 1  
    79   33   76 1  
    80   35   77 1  
    81   36   78 1  
    82   37   79 1  
    83   38   80 1  
    84   39   81 1  
    85   40   82 1  
    86   41   83 1  
    87   42   84 1  
    88   44   85 1  
    89   44   86 1  
    90   45   87 1  
@<TRIPOS>SUBSTRUCTURE
     1 MTT         1

