### 
### Created by X-TOOL on Mon Sep 10 21:13:03 2018
### 

@<TRIPOS>MOLECULE
3k02_ligand
  109   113     1     0     0
SMALL
GAST_HUCK


@<TRIPOS>ATOM
      1 C1A        -8.2750  -14.3640   18.9790 C.3       1 TXT         0.0141
      2 C1B        -5.3370  -11.9350   22.8950 C.3       1 TXT         0.1886
      3 C1C        -4.5490   -6.6510   23.9860 C.3       1 TXT         0.1884
      4 C1D        -4.2490   -2.7010   20.4260 C.3       1 TXT         0.1884
      5 C1E        -4.1100   -2.6710   15.0990 C.3       1 TXT         0.1854
      6 O1E        -3.2890   -3.8500   15.0340 O.3       1 TXT        -0.3649
      7 C2A        -7.6290  -15.7320   18.7920 C.3       1 TXT         0.1303
      8 O2A        -6.4440  -15.9440   19.5630 O.3       1 TXT        -0.3821
      9 C2B        -4.5700  -12.8850   21.9420 C.3       1 TXT         0.1370
     10 O2B        -3.3370  -12.2630   21.5570 O.3       1 TXT        -0.3840
     11 C2C        -3.5990   -7.6900   24.5900 C.3       1 TXT         0.1341
     12 O2C        -2.2940   -7.1590   24.8210 O.3       1 TXT        -0.3841
     13 C2D        -3.0210   -2.9450   21.2990 C.3       1 TXT         0.1341
     14 O2D        -1.8510   -2.4580   20.6200 O.3       1 TXT        -0.3841
     15 C2E        -3.3680   -1.6330   15.9200 C.3       1 TXT         0.1339
     16 O2E        -2.1420   -1.1820   15.3120 O.3       1 TXT        -0.3841
     17 C3A        -8.7780  -16.5680   19.3170 C.3       1 TXT         0.1215
     18 O3A        -8.3120  -17.8640   19.7060 O.3       1 TXT        -0.3843
     19 C3B        -5.3160  -13.5080   20.7240 C.3       1 TXT         0.1304
     20 O3B        -4.7850  -13.2250   19.3860 O.3       1 TXT        -0.3834
     21 C3C        -3.6030   -8.9050   23.6740 C.3       1 TXT         0.1144
     22 O3C        -2.5710   -9.8060   24.1430 O.3       1 TXT        -0.3864
     23 C3D        -2.8770   -4.4270   21.6920 C.3       1 TXT         0.1144
     24 O3D        -1.7830   -4.5670   22.5750 O.3       1 TXT        -0.3864
     25 C3E        -3.0690   -2.1570   17.3300 C.3       1 TXT         0.1144
     26 O3E        -2.3700   -1.1890   18.1240 O.3       1 TXT        -0.3864
     27 C4A        -9.8840  -16.5960   18.2490 C.3       1 TXT         0.1112
     28 O4A       -11.0880  -17.1880   18.8020 O.3       1 TXT        -0.3780
     29 C4B        -6.8530  -13.3860   20.7470 C.3       1 TXT         0.0341
     30 N4B        -7.4010  -13.2810   19.3890 N.4       1 TXT         0.2433
     31 C4C        -5.0270   -9.5130   23.5480 C.3       1 TXT         0.1184
     32 O4C        -5.1370  -10.5370   22.5320 O.3       1 TXT        -0.3401
     33 C4D        -4.2170   -4.8990   22.3180 C.3       1 TXT         0.1184
     34 O4D        -4.1110   -6.3170   22.6470 O.3       1 TXT        -0.3401
     35 C4E        -4.3680   -2.6250   18.0040 C.3       1 TXT         0.1184
     36 O4E        -4.0680   -3.3930   19.1780 O.3       1 TXT        -0.3401
     37 C5A       -10.1430  -15.1940   17.6900 C.2       1 TXT        -0.0200
     38 C5B        -7.4440  -12.3740   21.7460 C.3       1 TXT         0.1038
     39 O5B        -6.7070  -12.3490   22.9640 O.3       1 TXT        -0.3401
     40 C5C        -6.0460   -8.4190   23.1800 C.3       1 TXT         0.1134
     41 O5C        -5.8700   -7.2040   23.9440 O.3       1 TXT        -0.3405
     42 C5D        -5.3910   -4.5770   21.3910 C.3       1 TXT         0.1134
     43 O5D        -5.4310   -3.1930   21.0350 O.3       1 TXT        -0.3405
     44 C5E        -5.2180   -3.4920   17.0840 C.3       1 TXT         0.1134
     45 O5E        -5.3660   -2.9680   15.7420 O.3       1 TXT        -0.3407
     46 C6A       -11.4460  -14.8910   16.9860 C.3       1 TXT         0.0719
     47 O6A       -11.9700  -16.0680   16.3570 O.3       1 TXT        -0.3839
     48 C6B        -8.8830  -12.7280   22.1200 C.3       1 TXT        -0.0332
     49 C6C        -7.4710   -8.8950   23.4370 C.3       1 TXT         0.0730
     50 O6C        -8.3580   -8.1750   22.6180 O.3       1 TXT        -0.3924
     51 C6D        -6.7660   -4.8420   22.0000 C.3       1 TXT         0.0730
     52 O6D        -7.8280   -4.6920   21.0560 O.3       1 TXT        -0.3924
     53 C6E        -6.6500   -3.7180   17.5950 C.3       1 TXT         0.0730
     54 O6E        -7.3560   -2.4630   17.6490 O.3       1 TXT        -0.3924
     55 C7A        -9.2180  -14.2070   17.8020 C.2       1 TXT        -0.0543
     56 H1         -8.9386  -14.4719   19.8496 H         1 TXT         0.0950
     57 H2         -4.9129  -12.0597   23.9023 H         1 TXT         0.0938
     58 H3         -4.5490   -5.7437   24.6079 H         1 TXT         0.0938
     59 H4         -4.3556   -1.6214   20.2445 H         1 TXT         0.0938
     60 H5         -4.2959   -2.2890   14.0844 H         1 TXT         0.0935
     61 H6         -3.7405   -4.5219   14.5368 H         1 TXT         0.2126
     62 H7         -7.4102  -15.9364   17.7335 H         1 TXT         0.0694
     63 H8         -5.7914  -15.2966   19.3231 H         1 TXT         0.2103
     64 H9         -4.2982  -13.7500   22.5648 H         1 TXT         0.0672
     65 H10        -3.5220  -11.4436   21.1133 H         1 TXT         0.2101
     66 H11        -4.0010   -7.9983   25.5664 H         1 TXT         0.0671
     67 H12        -1.9234   -6.8632   23.9977 H         1 TXT         0.2101
     68 H13        -3.1427   -2.3665   22.2267 H         1 TXT         0.0671
     69 H14        -1.9457   -1.5270   20.4564 H         1 TXT         0.2101
     70 H15        -4.0308   -0.7602   16.0147 H         1 TXT         0.0671
     71 H16        -2.3336   -0.7914   14.4676 H         1 TXT         0.2101
     72 H17        -9.1867  -16.0800   20.2141 H         1 TXT         0.0671
     73 H18        -7.6573  -17.7723   20.3883 H         1 TXT         0.2102
     74 H19        -5.1330  -14.5850   20.8527 H         1 TXT         0.0679
     75 H20        -5.3238  -13.6583   18.7345 H         1 TXT         0.2102
     76 H21        -3.3139   -8.5749   22.6653 H         1 TXT         0.0648
     77 H22        -1.7294   -9.3667   24.1093 H         1 TXT         0.2100
     78 H23        -2.6784   -5.0265   20.7914 H         1 TXT         0.0648
     79 H24        -1.6903   -5.4801   22.8203 H         1 TXT         0.2100
     80 H25        -2.4114   -3.0329   17.2285 H         1 TXT         0.0648
     81 H26        -1.5449   -0.9738   17.7051 H         1 TXT         0.2100
     82 H27        -9.5431  -17.2313   17.4182 H         1 TXT         0.0769
     83 H28       -11.7667  -17.2021   18.1373 H         1 TXT         0.2130
     84 H29        -7.2015  -14.3608   21.1190 H         1 TXT         0.0903
     85 H30        -7.9246  -12.4216   19.3318 H         1 TXT         0.2029
     86 H31        -6.6269  -13.2465   18.7443 H         1 TXT         0.2029
     87 H32        -5.2962   -9.9508   24.5206 H         1 TXT         0.0651
     88 H33        -4.3753   -4.3463   23.2558 H         1 TXT         0.0651
     89 H34        -4.9492   -1.7362   18.2907 H         1 TXT         0.0651
     90 H35        -7.4211  -11.3760   21.2839 H         1 TXT         0.0652
     91 H36        -5.9271   -8.1878   22.1112 H         1 TXT         0.0647
     92 H37        -5.2749   -5.1881   20.4838 H         1 TXT         0.0647
     93 H38        -4.7157   -4.4684   17.0188 H         1 TXT         0.0647
     94 H39       -11.2718  -14.1203   16.2208 H         1 TXT         0.0706
     95 H40       -12.1753  -14.5198   17.7210 H         1 TXT         0.0706
     96 H41       -12.1247  -16.7352   17.0152 H         1 TXT         0.2125
     97 H42        -9.2699  -11.9849   22.8328 H         1 TXT         0.0257
     98 H43        -8.9069  -13.7261   22.5817 H         1 TXT         0.0257
     99 H44        -9.5078  -12.7276   21.2147 H         1 TXT         0.0257
    100 H45        -7.7290   -8.7280   24.4932 H         1 TXT         0.0584
    101 H46        -7.5470   -9.9678   23.2061 H         1 TXT         0.0584
    102 H47        -9.2463   -8.4714   22.7779 H         1 TXT         0.2095
    103 H48        -6.9272   -4.1334   22.8257 H         1 TXT         0.0584
    104 H49        -6.7853   -5.8703   22.3902 H         1 TXT         0.0584
    105 H50        -8.6578   -4.8671   21.4841 H         1 TXT         0.2095
    106 H51        -6.6124   -4.1588   18.6021 H         1 TXT         0.0584
    107 H52        -7.1762   -4.4033   16.9142 H         1 TXT         0.0584
    108 H53        -7.3898   -2.0823   16.7793 H         1 TXT         0.2095
    109 H54        -9.1581  -13.3724   17.1050 H         1 TXT         0.0299
@<TRIPOS>BOND
     1    1    7 1  
     2   30    1 1  
     3    1   55 1  
     4    2    9 1  
     5   32    2 1  
     6    2   39 1  
     7    3   11 1  
     8   34    3 1  
     9    3   41 1  
    10    4   13 1  
    11   36    4 1  
    12    4   43 1  
    13    5    6 1  
    14   15    5 1  
    15    5   45 1  
    16    7    8 1  
    17    7   17 1  
    18    9   10 1  
    19    9   19 1  
    20   11   12 1  
    21   11   21 1  
    22   13   14 1  
    23   13   23 1  
    24   15   16 1  
    25   25   15 1  
    26   17   18 1  
    27   17   27 1  
    28   19   20 1  
    29   19   29 1  
    30   21   22 1  
    31   21   31 1  
    32   23   24 1  
    33   23   33 1  
    34   25   26 1  
    35   35   25 1  
    36   27   28 1  
    37   27   37 1  
    38   29   30 1  
    39   29   38 1  
    40   31   32 1  
    41   31   40 1  
    42   33   34 1  
    43   33   42 1  
    44   35   36 1  
    45   35   44 1  
    46   37   46 1  
    47   37   55 2  
    48   38   39 1  
    49   38   48 1  
    50   40   41 1  
    51   40   49 1  
    52   42   43 1  
    53   42   51 1  
    54   44   45 1  
    55   44   53 1  
    56   46   47 1  
    57   49   50 1  
    58   51   52 1  
    59   53   54 1  
    60    1   56 1  
    61    2   57 1  
    62    3   58 1  
    63    4   59 1  
    64    5   60 1  
    65    6   61 1  
    66    7   62 1  
    67    8   63 1  
    68    9   64 1  
    69   10   65 1  
    70   11   66 1  
    71   12   67 1  
    72   13   68 1  
    73   14   69 1  
    74   15   70 1  
    75   16   71 1  
    76   17   72 1  
    77   18   73 1  
    78   19   74 1  
    79   20   75 1  
    80   21   76 1  
    81   22   77 1  
    82   23   78 1  
    83   24   79 1  
    84   25   80 1  
    85   26   81 1  
    86   27   82 1  
    87   28   83 1  
    88   29   84 1  
    89   30   85 1  
    90   30   86 1  
    91   31   87 1  
    92   33   88 1  
    93   35   89 1  
    94   38   90 1  
    95   40   91 1  
    96   42   92 1  
    97   44   93 1  
    98   46   94 1  
    99   46   95 1  
   100   47   96 1  
   101   48   97 1  
   102   48   98 1  
   103   48   99 1  
   104   49  100 1  
   105   49  101 1  
   106   50  102 1  
   107   51  103 1  
   108   51  104 1  
   109   52  105 1  
   110   53  106 1  
   111   53  107 1  
   112   54  108 1  
   113   55  109 1  
@<TRIPOS>SUBSTRUCTURE
     1 TXT         1

