### 
### Created by X-TOOL on Mon Sep 10 21:13:04 2018
### 

@<TRIPOS>MOLECULE
3k22_ligand
   57    59     1     0     0
SMALL
GAST_HUCK


@<TRIPOS>ATOM
      1 C1        -22.8280   33.2100   10.9460 C.3       1 JZS        -0.0244
      2 F1        -16.8810   26.7220   20.5400 F         1 JZS        -0.1672
      3 N1        -22.0060   31.4680   12.4190 N.am      1 JZS        -0.2653
      4 O1        -21.4610   31.6420   14.6400 O.2       1 JZS        -0.3845
      5 C2        -22.1110   32.8860   12.2250 C.3       1 JZS         0.1274
      6 F2        -15.8800   26.2100   22.3890 F         1 JZS        -0.1672
      7 N2        -21.1700   26.8370   16.0230 N.pl3     1 JZS        -0.1630
      8 O2        -17.5590   24.2250   21.4590 O.3       1 JZS        -0.3718
      9 C3        -21.8320   30.9940   13.6820 C.2       1 JZS         0.2052
     10 F3        -17.5080   27.6330   22.4200 F         1 JZS        -0.1672
     11 N3        -20.0480   26.1760   15.7320 N.2       1 JZS        -0.2016
     12 O3        -20.4170   34.5550   12.1040 O.2       1 JZS        -0.3947
     13 C4        -22.1160   29.5780   13.8490 C.ar      1 JZS         0.0440
     14 F4        -17.0070   25.2130   24.1270 F         1 JZS        -0.1672
     15 N4        -19.2800   25.4900   19.9980 N.pl3     1 JZS        -0.3187
     16 C5        -22.9850   28.9590   12.9890 C.ar      1 JZS        -0.0507
     17 F5        -18.6900   23.9170   23.7500 F         1 JZS        -0.1672
     18 N5        -19.8260   32.3630   11.9010 N.am      1 JZS        -0.2990
     19 C6        -23.2460   27.6230   13.1550 C.ar      1 JZS        -0.0623
     20 F6        -19.0000   26.0420   24.1000 F         1 JZS        -0.1672
     21 C7        -22.6420   26.9220   14.1690 C.ar      1 JZS        -0.0248
     22 C8        -21.7790   27.5670   15.0150 C.ar      1 JZS         0.1084
     23 C9        -21.4980   28.9000   14.8690 C.ar      1 JZS        -0.0094
     24 C10       -19.5610   25.8280   16.9170 C.2       1 JZS         0.0148
     25 C11       -20.3820   26.2600   17.9740 C.ar      1 JZS         0.0296
     26 C12       -20.3200   26.1470   19.3430 C.ar      1 JZS         0.0365
     27 C13       -19.3850   25.7250   21.4160 C.3       1 JZS         0.0713
     28 C14       -18.0610   25.3940   22.0550 C.3       1 JZS         0.2757
     29 C15       -17.0730   26.4990   21.8480 C.3       1 JZS         0.4287
     30 C16       -18.1990   25.1410   23.5190 C.3       1 JZS         0.4287
     31 C17       -21.3590   26.7260   20.0200 C.ar      1 JZS        -0.0520
     32 C18       -22.3900   27.3740   19.3910 C.ar      1 JZS        -0.0670
     33 C19       -23.4720   27.9730   20.2040 C.3       1 JZS        -0.0367
     34 C20       -22.4590   27.4930   18.0300 C.ar      1 JZS        -0.0462
     35 C21       -21.4210   26.9120   17.3600 C.ar      1 JZS         0.0909
     36 C22       -20.7120   33.3760   12.0740 C.2       1 JZS         0.1989
     37 H1        -22.8914   34.3018   10.8277 H         1 JZS         0.0277
     38 H2        -23.8421   32.7850   10.9763 H         1 JZS         0.0277
     39 H3        -22.2757   32.7807   10.0971 H         1 JZS         0.0277
     40 H4        -22.0597   30.8413   11.6416 H         1 JZS         0.1876
     41 H5        -22.6162   33.3594   13.0798 H         1 JZS         0.0797
     42 H6        -16.7232   24.0040   21.8527 H         1 JZS         0.2109
     43 H7        -18.5505   24.9249   19.5403 H         1 JZS         0.1784
     44 H8        -23.4589   29.5170   12.1896 H         1 JZS         0.0594
     45 H9        -18.8529   32.5637   11.7878 H         1 JZS         0.1815
     46 H10       -20.1461   31.4157   11.8867 H         1 JZS         0.1815
     47 H11       -23.9314   27.1189   12.4834 H         1 JZS         0.0606
     48 H12       -22.8465   25.8655   14.2993 H         1 JZS         0.0603
     49 H13       -20.8093   29.4029   15.5382 H         1 JZS         0.0619
     50 H14       -18.6342   25.2730   17.0545 H         1 JZS         0.0710
     51 H15       -20.1723   25.0850   21.8409 H         1 JZS         0.0550
     52 H16       -19.6319   26.7810   21.5998 H         1 JZS         0.0550
     53 H17       -21.3669   26.6695   21.1025 H         1 JZS         0.0364
     54 H18       -24.2093   28.4482   19.5402 H         1 JZS         0.0387
     55 H19       -23.0468   28.7291   20.8804 H         1 JZS         0.0387
     56 H20       -23.9642   27.1870   20.7956 H         1 JZS         0.0387
     57 H21       -23.2700   28.0057   17.5256 H         1 JZS         0.0368
@<TRIPOS>BOND
     1    5    1 1  
     2   29    2 1  
     3    3    5 1  
     4    9    3 am 
     5    9    4 2  
     6    5   36 1  
     7   29    6 1  
     8    7   11 1  
     9    7   22 1  
    10   35    7 1  
    11   28    8 1  
    12   13    9 1  
    13   29   10 1  
    14   24   11 2  
    15   36   12 2  
    16   13   16 ar 
    17   23   13 ar 
    18   30   14 1  
    19   15   26 1  
    20   27   15 1  
    21   19   16 ar 
    22   30   17 1  
    23   36   18 am 
    24   21   19 ar 
    25   30   20 1  
    26   22   21 ar 
    27   22   23 ar 
    28   25   24 1  
    29   26   25 ar 
    30   25   35 ar 
    31   26   31 ar 
    32   28   27 1  
    33   28   29 1  
    34   28   30 1  
    35   31   32 ar 
    36   32   33 1  
    37   32   34 ar 
    38   34   35 ar 
    39    1   37 1  
    40    1   38 1  
    41    1   39 1  
    42    3   40 1  
    43    5   41 1  
    44    8   42 1  
    45   15   43 1  
    46   16   44 1  
    47   18   45 1  
    48   18   46 1  
    49   19   47 1  
    50   21   48 1  
    51   23   49 1  
    52   24   50 1  
    53   27   51 1  
    54   27   52 1  
    55   31   53 1  
    56   33   54 1  
    57   33   55 1  
    58   33   56 1  
    59   34   57 1  
@<TRIPOS>SUBSTRUCTURE
     1 JZS         1

