### 
### Created by X-TOOL on Mon Sep 10 21:13:01 2018
### 

@<TRIPOS>MOLECULE
3k23_ligand
   84    88     1     0     0
SMALL
GAST_HUCK


@<TRIPOS>ATOM
      1 C1         61.0690    1.1580   -6.9920 C.3       1 JZN         0.0689
      2 F1         60.9970    5.9700  -10.4830 F         1 JZN        -0.1832
      3 N1         61.4420    5.2510   -4.7570 N.pl3     1 JZN        -0.3190
      4 O1         61.8220    1.1090   -8.1950 O.3       1 JZN        -0.2969
      5 C2         61.6770    2.3600   -8.7480 C.ar      1 JZN         0.1206
      6 F2         64.3560    3.5060   -3.5300 F         1 JZN        -0.1676
      7 N2         58.1520    6.9810   -2.1160 N.pl3     1 JZN        -0.1630
      8 O2         63.8520    5.2140   -4.8970 O.3       1 JZN        -0.3788
      9 C3         60.4940    2.5910   -9.4080 C.ar      1 JZN        -0.0001
     10 F3         62.4090    2.6410   -3.9310 F         1 JZN        -0.1676
     11 N3         59.2510    7.7300   -1.9610 N.2       1 JZN        -0.2016
     12 O3         57.3310    5.0990    2.2140 O.2       1 JZN        -0.3843
     13 C4         60.2640    3.8120   -9.9930 C.ar      1 JZN        -0.0069
     14 F4         64.1960    1.9570   -5.0160 F         1 JZN        -0.1676
     15 N4         55.3070    5.6790    3.0210 N.am      1 JZN        -0.2511
     16 O4         53.5210    7.3220    3.7490 O.2       1 JZN        -0.3947
     17 C5         61.2290    4.7830   -9.9100 C.ar      1 JZN         0.1492
     18 N5         54.1880    6.9720    5.9250 N.am      1 JZN        -0.2990
     19 C6         62.4160    4.5490   -9.2530 C.ar      1 JZN        -0.0145
     20 C7         62.6600    3.3290   -8.6550 C.ar      1 JZN        -0.0207
     21 C8         63.9720    3.1200   -7.9550 C.3       1 JZN        -0.0476
     22 C9         64.2110    1.6880   -7.5510 C.3       1 JZN        -0.0897
     23 C10        65.0530    3.4130   -8.9720 C.3       1 JZN        -0.0897
     24 C11        64.2410    4.0700   -6.8050 C.3       1 JZN        -0.0383
     25 C12        63.3480    4.0930   -5.5800 C.3       1 JZN         0.1716
     26 C13        61.8910    4.3840   -5.8380 C.3       1 JZN         0.0615
     27 C14        60.1180    5.1090   -4.3360 C.ar      1 JZN         0.0365
     28 C15        59.2480    4.1260   -4.7440 C.ar      1 JZN        -0.0520
     29 C16        57.9580    4.0540   -4.2850 C.ar      1 JZN        -0.0670
     30 C17        57.1040    2.9450   -4.7960 C.3       1 JZN        -0.0367
     31 C18        57.4460    4.9610   -3.3880 C.ar      1 JZN        -0.0462
     32 C19        58.3160    5.9350   -2.9810 C.ar      1 JZN         0.0909
     33 C20        60.1410    7.1510   -2.7700 C.2       1 JZN         0.0148
     34 C21        59.6130    6.0200   -3.4320 C.ar      1 JZN         0.0296
     35 C22        57.0940    7.1040   -1.2360 C.ar      1 JZN         0.1084
     36 C23        56.0100    7.8940   -1.5430 C.ar      1 JZN        -0.0248
     37 C24        54.9750    7.9740   -0.6340 C.ar      1 JZN        -0.0623
     38 C25        55.0290    7.2760    0.5560 C.ar      1 JZN        -0.0507
     39 C26        56.1290    6.4940    0.8350 C.ar      1 JZN         0.0442
     40 C27        57.1710    6.4040   -0.0610 C.ar      1 JZN        -0.0094
     41 C28        56.2870    5.7140    2.0690 C.2       1 JZN         0.2077
     42 C29        54.9100    4.3540    3.3960 C.3       1 JZN         0.0364
     43 C30        55.6640    3.9990    4.6620 C.3       1 JZN        -0.0282
     44 C31        56.0550    5.3100    5.2610 C.3       1 JZN        -0.0104
     45 C32        55.6380    6.3440    4.2390 C.3       1 JZN         0.1330
     46 C33        54.3300    6.9350    4.5750 C.2       1 JZN         0.1993
     47 C34        63.5650    3.0350   -4.5270 C.3       1 JZN         0.4192
     48 H1         61.1316    0.1862   -6.4804 H         1 JZN         0.0598
     49 H2         60.0178    1.3820   -7.2262 H         1 JZN         0.0598
     50 H3         61.4743    1.9437   -6.3374 H         1 JZN         0.0598
     51 H4         62.0735    5.9388   -4.3221 H         1 JZN         0.1783
     52 H5         63.3638    5.3386   -4.0916 H         1 JZN         0.2106
     53 H6         59.7437    1.8108   -9.4668 H         1 JZN         0.0622
     54 H7         59.3328    4.0056  -10.5131 H         1 JZN         0.0821
     55 H8         54.9181    6.6260    6.5142 H         1 JZN         0.1815
     56 H9         53.3533    7.3453    6.3299 H         1 JZN         0.1815
     57 H10        63.1661    5.3301   -9.2048 H         1 JZN         0.0771
     58 H11        65.1849    1.6072   -7.0461 H         1 JZN         0.0118
     59 H12        64.2080    1.0490   -8.4464 H         1 JZN         0.0118
     60 H13        63.4146    1.3626   -6.8656 H         1 JZN         0.0118
     61 H14        64.9530    4.4500   -9.3250 H         1 JZN         0.0118
     62 H15        64.9515    2.7244   -9.8238 H         1 JZN         0.0118
     63 H16        66.0405    3.2777   -8.5068 H         1 JZN         0.0118
     64 H17        64.2171    5.0854   -7.2273 H         1 JZN         0.0186
     65 H18        65.2564    3.8458   -6.4464 H         1 JZN         0.0186
     66 H19        61.7711    4.8917   -6.8064 H         1 JZN         0.0547
     67 H20        61.3118    3.4488   -5.8400 H         1 JZN         0.0547
     68 H21        59.5936    3.3823   -5.4529 H         1 JZN         0.0364
     69 H22        56.1036    3.0144   -4.3439 H         1 JZN         0.0387
     70 H23        57.5597    1.9794   -4.5314 H         1 JZN         0.0387
     71 H24        57.0181    3.0225   -5.8899 H         1 JZN         0.0387
     72 H25        56.4247    4.9082   -3.0285 H         1 JZN         0.0368
     73 H26        61.1602    7.5102   -2.9047 H         1 JZN         0.0710
     74 H27        55.9700    8.4412   -2.4779 H         1 JZN         0.0603
     75 H28        54.1115    8.5905   -0.8562 H         1 JZN         0.0606
     76 H29        54.2122    7.3426    1.2656 H         1 JZN         0.0594
     77 H30        58.0368    5.7901    0.1596 H         1 JZN         0.0619
     78 H31        55.1639    3.6441    2.5951 H         1 JZN         0.0524
     79 H32        53.8263    4.3243    3.5824 H         1 JZN         0.0524
     80 H33        56.5563    3.4008    4.4255 H         1 JZN         0.0287
     81 H34        55.0177    3.4365    5.3518 H         1 JZN         0.0287
     82 H35        57.1411    5.3496    5.4307 H         1 JZN         0.0313
     83 H36        55.5289    5.4728    6.2132 H         1 JZN         0.0313
     84 H37        56.4222    7.1050    4.1133 H         1 JZN         0.0802
@<TRIPOS>BOND
     1    4    1 1  
     2   17    2 1  
     3    3   26 1  
     4   27    3 1  
     5    5    4 1  
     6    5    9 ar 
     7   20    5 ar 
     8   47    6 1  
     9    7   11 1  
    10    7   32 1  
    11   35    7 1  
    12   25    8 1  
    13    9   13 ar 
    14   47   10 1  
    15   11   33 2  
    16   41   12 2  
    17   17   13 ar 
    18   47   14 1  
    19   15   41 am 
    20   15   42 1  
    21   45   15 1  
    22   46   16 2  
    23   19   17 ar 
    24   46   18 am 
    25   20   19 ar 
    26   21   20 1  
    27   21   22 1  
    28   21   23 1  
    29   24   21 1  
    30   25   24 1  
    31   26   25 1  
    32   25   47 1  
    33   27   28 ar 
    34   34   27 ar 
    35   29   28 ar 
    36   29   30 1  
    37   31   29 ar 
    38   32   31 ar 
    39   32   34 ar 
    40   34   33 1  
    41   35   36 ar 
    42   40   35 ar 
    43   37   36 ar 
    44   38   37 ar 
    45   39   38 ar 
    46   39   40 ar 
    47   41   39 1  
    48   43   42 1  
    49   44   43 1  
    50   45   44 1  
    51   45   46 1  
    52    1   48 1  
    53    1   49 1  
    54    1   50 1  
    55    3   51 1  
    56    8   52 1  
    57    9   53 1  
    58   13   54 1  
    59   18   55 1  
    60   18   56 1  
    61   19   57 1  
    62   22   58 1  
    63   22   59 1  
    64   22   60 1  
    65   23   61 1  
    66   23   62 1  
    67   23   63 1  
    68   24   64 1  
    69   24   65 1  
    70   26   66 1  
    71   26   67 1  
    72   28   68 1  
    73   30   69 1  
    74   30   70 1  
    75   30   71 1  
    76   31   72 1  
    77   33   73 1  
    78   36   74 1  
    79   37   75 1  
    80   38   76 1  
    81   40   77 1  
    82   42   78 1  
    83   42   79 1  
    84   43   80 1  
    85   43   81 1  
    86   44   82 1  
    87   44   83 1  
    88   45   84 1  
@<TRIPOS>SUBSTRUCTURE
     1 JZN         1

