### 
### Created by X-TOOL on Mon Sep 10 21:12:59 2018
### 

@<TRIPOS>MOLECULE
3k26_ligand
   51    50     1     0     0
SMALL
GAST_HUCK


@<TRIPOS>ATOM
      1 N         -18.7160   29.7240  -28.1530 N.4       1 M3L         0.2379
      2 CA        -17.3920   28.9570  -27.8320 C.3       1 M3L         0.0650
      3 CB        -17.4560   27.5070  -27.3020 C.3       1 M3L         0.0080
      4 CG        -16.8220   27.2250  -25.9100 C.3       1 M3L        -0.0410
      5 CD        -16.8080   25.6970  -25.6010 C.3       1 M3L        -0.0121
      6 CE        -16.1510   25.2840  -24.2570 C.3       1 M3L        -0.0309
      7 NZ        -16.6480   24.0340  -23.5600 N.4       1 M3L         0.2369
      8 C         -16.3870   28.9830  -28.9830 C.2       1 M3L         0.2262
      9 O         -15.1880   29.0620  -28.7090 O.2       1 M3L        -0.3908
     10 CM1       -16.9620   24.2060  -22.1250 C.3       1 M3L        -0.0418
     11 CM2       -15.4650   23.1930  -23.5770 C.3       1 M3L        -0.0418
     12 CM3       -17.7250   23.3590  -24.3340 C.3       1 M3L        -0.0418
     13 N         -16.8800   28.9360  -30.2500 N.am      1 GLN        -0.2666
     14 CA        -16.0680   29.1730  -31.5000 C.3       1 GLN         0.0965
     15 C         -16.5450   30.3280  -32.4060 C.2       1 GLN         0.0602
     16 O         -17.4690   31.0660  -32.0520 O.co2     1 GLN        -0.5666
     17 CB        -15.9980   27.9230  -32.3740 C.3       1 GLN        -0.0010
     18 CG        -16.0810   26.6320  -31.6020 C.3       1 GLN         0.0407
     19 CD        -15.8040   25.4180  -32.4740 C.2       1 GLN         0.1737
     20 OE1       -16.4340   25.2350  -33.5410 O.2       1 GLN        -0.3973
     21 NE2       -14.8760   24.5700  -32.0170 N.am      1 GLN        -0.3009
     22 OXT       -16.0100   30.5330  -33.5000 O.co2     1 GLN        -0.5666
     23 H1        -19.3355   29.6714  -27.3596 H         1 M3L         0.2015
     24 H2        -19.1608   29.3055  -28.9549 H         1 M3L         0.2015
     25 H3        -18.5053   30.6896  -28.3513 H         1 M3L         0.2015
     26 H4        -16.9405   29.5388  -27.0149 H         1 M3L         0.1098
     27 H5        -16.9437   26.8653  -28.0339 H         1 M3L         0.0346
     28 H6        -18.5172   27.2232  -27.2448 H         1 M3L         0.0346
     29 H7        -17.4079   27.7429  -25.1364 H         1 M3L         0.0270
     30 H8        -15.7890   27.6029  -25.9021 H         1 M3L         0.0270
     31 H9        -16.2612   25.1939  -26.4121 H         1 M3L         0.0317
     32 H10       -17.8504   25.3459  -25.5886 H         1 M3L         0.0317
     33 H11       -16.2893   26.1217  -23.5577 H         1 M3L         0.0815
     34 H12       -15.0777   25.1418  -24.4511 H         1 M3L         0.0815
     35 H13       -17.3128   23.2499  -21.7093 H         1 M3L         0.0778
     36 H14       -17.7486   24.9663  -22.0103 H         1 M3L         0.0778
     37 H15       -16.0581   24.5296  -21.5881 H         1 M3L         0.0778
     38 H16       -15.1586   23.0123  -24.6179 H         1 M3L         0.0778
     39 H17       -15.6904   22.2332  -23.0893 H         1 M3L         0.0778
     40 H18       -14.6495   23.6962  -23.0369 H         1 M3L         0.0778
     41 H19       -18.6284   23.9865  -24.3291 H         1 M3L         0.0778
     42 H20       -17.9521   22.3858  -23.8743 H         1 M3L         0.0778
     43 H21       -17.3907   23.2058  -25.3707 H         1 M3L         0.0778
     44 H22       -17.8520   28.7292  -30.3614 H         1 GLN         0.1877
     45 H23       -15.0484   29.4170  -31.1670 H         1 GLN         0.0727
     46 H24       -15.0449   27.9373  -32.9230 H         1 GLN         0.0330
     47 H25       -16.8335   27.9532  -33.0889 H         1 GLN         0.0330
     48 H26       -17.0912   26.5387  -31.1768 H         1 GLN         0.0504
     49 H27       -15.3416   26.6587  -30.7881 H         1 GLN         0.0504
     50 H28       -14.6454   23.7508  -32.5420 H         1 GLN         0.1814
     51 H29       -14.4128   24.7553  -31.1503 H         1 GLN         0.1814
@<TRIPOS>BOND
     1    1    2 1  
     2    2    3 1  
     3    2    8 1  
     4    3    4 1  
     5    4    5 1  
     6    5    6 1  
     7    6    7 1  
     8    7   10 1  
     9    7   11 1  
    10    7   12 1  
    11    8    9 2  
    12    8   13 am 
    13   13   14 1  
    14   14   15 1  
    15   14   17 1  
    16   15   16 ar 
    17   15   22 ar 
    18   17   18 1  
    19   18   19 1  
    20   19   20 2  
    21   19   21 am 
    22    1   23 1  
    23    1   24 1  
    24    1   25 1  
    25    2   26 1  
    26    3   27 1  
    27    3   28 1  
    28    4   29 1  
    29    4   30 1  
    30    5   31 1  
    31    5   32 1  
    32    6   33 1  
    33    6   34 1  
    34   10   35 1  
    35   10   36 1  
    36   10   37 1  
    37   11   38 1  
    38   11   39 1  
    39   11   40 1  
    40   12   41 1  
    41   12   42 1  
    42   12   43 1  
    43   13   44 1  
    44   14   45 1  
    45   17   46 1  
    46   17   47 1  
    47   18   48 1  
    48   18   49 1  
    49   21   50 1  
    50   21   51 1  
@<TRIPOS>SUBSTRUCTURE
     1 M3L         1

