### 
### Created by X-TOOL on Mon Sep 10 21:13:01 2018
### 

@<TRIPOS>MOLECULE
3k2f_ligand
   53    54     1     0     0
SMALL
GAST_HUCK


@<TRIPOS>ATOM
      1 CAA        -3.2360    6.7890   14.1940 C.3       1 NKX        -0.0425
      2 OAB        -7.0170    5.9590   12.9240 O.2       1 NKX        -0.1710
      3 OAC        -5.2880    1.0350   18.1010 O.2       1 NKX        -0.1500
      4 CAD        -4.2970    6.4700   13.1430 C.3       1 NKX         0.0809
      5 SAE        -5.8840    5.9750   13.9000 S.o2      1 NKX         0.0016
      6 CAF        -5.5960    4.3610   14.5190 C.2       1 NKX         0.1382
      7 SAG        -6.4610    3.5580   15.6960 S.3       1 NKX        -0.0033
      8 CAH        -5.5530    2.2090   15.6930 C.2       1 NKX         0.1592
      9 SAI        -5.9310    0.8710   16.7560 S.o2      1 NKX         0.0744
     10 NAJ        -5.4320   -0.3870   16.0890 N.am      1 NKX        -0.2605
     11 OAK        -6.2250    6.9120   15.0270 O.2       1 NKX        -0.1710
     12 OAL        -7.5070    0.8350   16.9290 O.2       1 NKX        -0.1500
     13 CAM        -3.8460    5.3110   12.2520 C.3       1 NKX        -0.0010
     14 CAN        -3.5040    3.9790   13.0060 C.3       1 NKX         0.0714
     15 CAO        -4.5450    3.5160   14.0990 C.2       1 NKX        -0.0109
     16 CAP        -4.5700    2.3380   14.7840 C.2       1 NKX        -0.0426
     17 NAQ        -3.2390    2.9770   11.9360 N.am      1 NKX        -0.2386
     18 CAR        -4.3770    2.1420   11.4930 C.3       1 NKX         0.0349
     19 CAS        -5.1720    2.8920   10.4400 C.3       1 NKX        -0.0445
     20 OAT        -1.0430    3.5340   11.7060 O.2       1 NKX        -0.3773
     21 CAU        -2.0190    2.8610   11.3740 C.2       1 NKX         0.3239
     22 OAV        -1.8190    1.9600   10.3760 O.3       1 NKX        -0.2604
     23 CAW        -0.5590    2.1990    9.6040 C.3       1 NKX         0.1145
     24 OAX        -0.4810    4.5570    6.6470 O.2       1 NKX         0.1898
     25 CAY         0.1840    3.5720    9.4300 C.3       1 NKX         0.1808
     26 OAZ        -0.7160    4.6640    9.0720 O.3       1 NKX        -0.1049
     27 NBA        -1.2960    4.6320    7.8250 N.2       1 NKX         0.4510
     28 OBB        -2.7450    4.7140    7.7010 O.2       1 NKX         0.1898
     29 CBC         1.4000    3.4910    8.4660 C.3       1 NKX         0.1484
     30 OBD         2.6230    3.8780    9.1160 O.3       1 NKX        -0.1105
     31 NBE         3.6180    3.9680    8.1930 N.2       1 NKX         0.4507
     32 OBF         3.8240    5.1940    7.4930 O.2       1 NKX         0.1898
     33 OBG         4.4630    2.8450    7.9170 O.2       1 NKX         0.1898
     34 H1         -2.3008    7.0811   13.6940 H         1 NKX         0.0248
     35 H2         -3.0569    5.8996   14.8159 H         1 NKX         0.0248
     36 H3         -3.5860    7.6161   14.8291 H         1 NKX         0.0248
     37 H4         -4.4553    7.3663   12.5253 H         1 NKX         0.0537
     38 H5         -5.7679   -0.6387   15.1814 H         1 NKX         0.1635
     39 H6         -4.7654   -0.9691   16.5546 H         1 NKX         0.1635
     40 H7         -2.9471    5.6324   11.7055 H         1 NKX         0.0323
     41 H8         -4.6538    5.0984   11.5363 H         1 NKX         0.0323
     42 H9         -2.5611    4.1429   13.5483 H         1 NKX         0.0673
     43 H10        -3.8395    1.5501   14.6064 H         1 NKX         0.0414
     44 H11        -5.0256    1.9193   12.3530 H         1 NKX         0.0520
     45 H12        -3.9981    1.2017   11.0662 H         1 NKX         0.0520
     46 H13        -6.0187    2.2724   10.1095 H         1 NKX         0.0249
     47 H14        -4.5231    3.1148    9.5802 H         1 NKX         0.0249
     48 H15        -5.5506    3.8324   10.8671 H         1 NKX         0.0249
     49 H16        -0.7827    1.8634    8.5806 H         1 NKX         0.0644
     50 H17         0.1851    1.5266   10.0560 H         1 NKX         0.0644
     51 H18         0.5932    3.8222   10.4199 H         1 NKX         0.0751
     52 H19         1.2229    4.1615    7.6122 H         1 NKX         0.0692
     53 H20         1.5003    2.4567    8.1053 H         1 NKX         0.0692
@<TRIPOS>BOND
     1    4    1 1  
     2    5    2 2  
     3    9    3 2  
     4    4    5 1  
     5   13    4 1  
     6    6    5 1  
     7    5   11 2  
     8    6    7 1  
     9   15    6 2  
    10    8    7 1  
    11    8    9 1  
    12   16    8 2  
    13    9   10 am 
    14    9   12 2  
    15   14   13 1  
    16   14   15 1  
    17   17   14 1  
    18   15   16 1  
    19   17   18 1  
    20   21   17 am 
    21   18   19 1  
    22   21   20 2  
    23   22   21 1  
    24   23   22 1  
    25   25   23 1  
    26   27   24 2  
    27   26   25 1  
    28   25   29 1  
    29   26   27 1  
    30   27   28 2  
    31   29   30 1  
    32   30   31 1  
    33   31   32 2  
    34   31   33 2  
    35    1   34 1  
    36    1   35 1  
    37    1   36 1  
    38    4   37 1  
    39   10   38 1  
    40   10   39 1  
    41   13   40 1  
    42   13   41 1  
    43   14   42 1  
    44   16   43 1  
    45   18   44 1  
    46   18   45 1  
    47   19   46 1  
    48   19   47 1  
    49   19   48 1  
    50   23   49 1  
    51   23   50 1  
    52   25   51 1  
    53   29   52 1  
    54   29   53 1  
@<TRIPOS>SUBSTRUCTURE
     1 NKX         1

