### 
### Created by X-TOOL on Mon Sep 10 21:13:02 2018
### 

@<TRIPOS>MOLECULE
3k37_ligand
   51    51     1     0     0
SMALL
GAST_HUCK


@<TRIPOS>ATOM
      1 C2        -14.0380  -27.0410   11.9390 C.3       1 BCZ         0.0827
      2 N25       -13.3540  -26.4240   13.0940 N.pl3     1 BCZ        -0.2691
      3 C26       -12.0020  -26.0370   13.0860 C.cat     1 BCZ         0.2885
      4 N30       -11.2820  -25.8830   11.9320 N.pl3     1 BCZ        -0.2849
      5 N27       -11.2960  -25.7790   14.2490 N.pl3     1 BCZ        -0.2849
      6 C3        -14.9510  -28.2260   12.2410 C.3       1 BCZ         0.0460
      7 C10       -14.2210  -29.5470   12.5420 C.3       1 BCZ         0.0535
      8 C24       -15.1400  -30.7300   12.8280 C.3       1 BCZ        -0.0180
      9 C37       -15.9060  -30.5490   14.1310 C.3       1 BCZ        -0.0510
     10 C38       -17.3050  -31.0910   13.9850 C.3       1 BCZ        -0.0650
     11 C36       -14.3500  -32.0320   12.8270 C.3       1 BCZ        -0.0510
     12 C39       -13.8930  -32.4140   11.4200 C.3       1 BCZ        -0.0650
     13 N11       -13.2250  -29.4690   13.5860 N.am      1 BCZ        -0.2834
     14 C13       -11.8700  -29.4200   13.3160 C.2       1 BCZ         0.1731
     15 C15       -11.0740  -29.1140   14.5440 C.3       1 BCZ         0.0257
     16 O14       -11.3270  -29.6100   12.2360 O.2       1 BCZ        -0.3974
     17 C4        -15.8330  -28.2950   11.0000 C.3       1 BCZ         0.0779
     18 O9        -15.2320  -29.2020   10.0550 O.3       1 BCZ        -0.3893
     19 C5        -15.8280  -26.9350   10.3100 C.3       1 BCZ         0.0416
     20 C6        -17.2640  -26.3890   10.4000 C.2       1 BCZ         0.0405
     21 O8        -17.3950  -25.1450   10.2050 O.co2     1 BCZ        -0.5686
     22 O7        -18.1910  -27.2160   10.6380 O.co2     1 BCZ        -0.5686
     23 C1        -14.9610  -26.0620   11.2090 C.3       1 BCZ         0.0003
     24 H1        -13.2497  -27.3773   11.2495 H         1 BCZ         0.0731
     25 H2        -13.8985  -26.2684   13.9544 H         1 BCZ         0.2645
     26 H3        -10.2933  -25.5977   11.9761 H         1 BCZ         0.2615
     27 H4        -11.7290  -26.0524   11.0196 H         1 BCZ         0.2615
     28 H5        -11.7599  -25.8702   15.1641 H         1 BCZ         0.2615
     29 H6        -10.3069  -25.4959   14.1990 H         1 BCZ         0.2615
     30 H7        -15.5701  -27.9903   13.1191 H         1 BCZ         0.0387
     31 H8        -13.6790  -29.7929   11.6169 H         1 BCZ         0.0563
     32 H9        -15.8782  -30.7842   12.0143 H         1 BCZ         0.0323
     33 H10       -15.9540  -29.4786   14.3799 H         1 BCZ         0.0266
     34 H11       -15.3879  -31.0899   14.9366 H         1 BCZ         0.0266
     35 H12       -17.8509  -30.9562   14.9304 H         1 BCZ         0.0230
     36 H13       -17.2594  -32.1618   13.7374 H         1 BCZ         0.0230
     37 H14       -17.8256  -30.5505   13.1808 H         1 BCZ         0.0230
     38 H15       -14.9866  -32.8357   13.2256 H         1 BCZ         0.0266
     39 H16       -13.4650  -31.9126   13.4692 H         1 BCZ         0.0266
     40 H17       -13.3277  -33.3567   11.4614 H         1 BCZ         0.0230
     41 H18       -13.2503  -31.6187   11.0146 H         1 BCZ         0.0230
     42 H19       -14.7719  -32.5417   10.7710 H         1 BCZ         0.0230
     43 H20       -13.5270  -29.4498   14.5391 H         1 BCZ         0.1854
     44 H21       -10.0043  -29.0836   14.2894 H         1 BCZ         0.0467
     45 H22       -11.2492  -29.8949   15.2986 H         1 BCZ         0.0467
     46 H23       -11.3827  -28.1383   14.9474 H         1 BCZ         0.0467
     47 H24       -16.8539  -28.6073   11.2649 H         1 BCZ         0.0619
     48 H25       -14.3677  -28.8856    9.8198 H         1 BCZ         0.2100
     49 H26       -15.4607  -26.9802    9.2741 H         1 BCZ         0.0493
     50 H27       -14.3740  -25.3515   10.6085 H         1 BCZ         0.0323
     51 H28       -15.5835  -25.5084   11.9273 H         1 BCZ         0.0323
@<TRIPOS>BOND
     1    1    2 1  
     2    1    6 1  
     3    1   23 1  
     4    2    3 ar 
     5    3    4 ar 
     6    3    5 ar 
     7    6    7 1  
     8    6   17 1  
     9    7    8 1  
    10    7   13 1  
    11    8    9 1  
    12    8   11 1  
    13    9   10 1  
    14   11   12 1  
    15   13   14 am 
    16   14   15 1  
    17   14   16 2  
    18   17   18 1  
    19   17   19 1  
    20   19   20 1  
    21   19   23 1  
    22   20   21 ar 
    23   20   22 ar 
    24    1   24 1  
    25    2   25 1  
    26    4   26 1  
    27    4   27 1  
    28    5   28 1  
    29    5   29 1  
    30    6   30 1  
    31    7   31 1  
    32    8   32 1  
    33    9   33 1  
    34    9   34 1  
    35   10   35 1  
    36   10   36 1  
    37   10   37 1  
    38   11   38 1  
    39   11   39 1  
    40   12   40 1  
    41   12   41 1  
    42   12   42 1  
    43   13   43 1  
    44   15   44 1  
    45   15   45 1  
    46   15   46 1  
    47   17   47 1  
    48   18   48 1  
    49   19   49 1  
    50   23   50 1  
    51   23   51 1  
@<TRIPOS>SUBSTRUCTURE
     1 BCZ         1

