### 
### Created by X-TOOL on Mon Sep 10 21:13:03 2018
### 

@<TRIPOS>MOLECULE
3k39_ligand
   51    51     1     0     0
SMALL
GAST_HUCK


@<TRIPOS>ATOM
      1 C2          7.6990   15.7340   25.7490 C.3       1 BCZ         0.0827
      2 N25         6.5430   15.5920   24.8770 N.pl3     1 BCZ        -0.2691
      3 C26         6.5330   15.8700   23.5220 C.cat     1 BCZ         0.2885
      4 N30         5.3200   15.8280   22.8430 N.pl3     1 BCZ        -0.2849
      5 N27         7.6980   16.2020   22.8670 N.pl3     1 BCZ        -0.2849
      6 C3          7.3430   16.2420   27.1190 C.3       1 BCZ         0.0460
      7 C10         6.9670   17.7270   27.1430 C.3       1 BCZ         0.0535
      8 C24         6.5580   18.2650   28.5240 C.3       1 BCZ        -0.0180
      9 C37         6.3650   19.7700   28.5150 C.3       1 BCZ        -0.0510
     10 C38         7.6880   20.4980   28.4730 C.3       1 BCZ        -0.0650
     11 C36         5.3240   17.6170   29.1000 C.3       1 BCZ        -0.0510
     12 C39         5.4130   17.5970   30.6010 C.3       1 BCZ        -0.0650
     13 N11         5.9380   18.0500   26.1890 N.am      1 BCZ        -0.2834
     14 C13         6.1810   18.8680   25.1060 C.2       1 BCZ         0.1731
     15 C15         4.9460   19.0320   24.2750 C.3       1 BCZ         0.0257
     16 O14         7.2410   19.4100   24.8120 O.2       1 BCZ        -0.3974
     17 C4          8.5680   15.8620   27.9500 C.3       1 BCZ         0.0779
     18 O9          9.5280   16.9150   27.9560 O.3       1 BCZ        -0.3893
     19 C5          9.2640   14.7090   27.2520 C.3       1 BCZ         0.0416
     20 C6          9.2000   13.5040   28.2120 C.2       1 BCZ         0.0405
     21 O8          9.5110   12.3770   27.7720 O.co2     1 BCZ        -0.5686
     22 O7          8.8480   13.7330   29.3750 O.co2     1 BCZ        -0.5686
     23 C1          8.3720   14.4080   26.0560 C.3       1 BCZ         0.0003
     24 H           8.3366   16.4205   25.1919 H         1 BCZ         0.0731
     25 H           5.6738   15.2624   25.2968 H         1 BCZ         0.2645
     26 H           5.2854   16.0447   21.8469 H         1 BCZ         0.2615
     27 H           4.4650   15.5805   23.3411 H         1 BCZ         0.2615
     28 H           7.6784   16.4211   21.8710 H         1 BCZ         0.2615
     29 H           8.5804   16.2288   23.3779 H         1 BCZ         0.2615
     30 H           6.4314   15.8018   27.5232 H         1 BCZ         0.0387
     31 H           7.8955   18.2259   26.8652 H         1 BCZ         0.0563
     32 H           7.3969   18.0029   29.1688 H         1 BCZ         0.0323
     33 H           5.8423   20.0564   29.4276 H         1 BCZ         0.0266
     34 H           5.7944   20.0395   27.6262 H         1 BCZ         0.0266
     35 H           8.2765   20.2304   29.3506 H         1 BCZ         0.0230
     36 H           8.2292   20.2137   27.5706 H         1 BCZ         0.0230
     37 H           7.5096   21.5733   28.4676 H         1 BCZ         0.0230
     38 H           5.2474   16.5947   28.7297 H         1 BCZ         0.0266
     39 H           4.4442   18.1855   28.7986 H         1 BCZ         0.0266
     40 H           6.2934   17.0303   30.9040 H         1 BCZ         0.0230
     41 H           5.4914   18.6187   30.9727 H         1 BCZ         0.0230
     42 H           4.5185   17.1276   31.0105 H         1 BCZ         0.0230
     43 H           5.0032   17.6629   26.3180 H         1 BCZ         0.1854
     44 H           4.6758   20.0871   24.2323 H         1 BCZ         0.0467
     45 H           5.1362   18.6632   23.2671 H         1 BCZ         0.0467
     46 H           4.1302   18.4646   24.7229 H         1 BCZ         0.0467
     47 H           8.2331   15.6318   28.9614 H         1 BCZ         0.0619
     48 H           9.8097   17.0949   27.0561 H         1 BCZ         0.2100
     49 H          10.2961   14.9172   26.9699 H         1 BCZ         0.0493
     50 H           8.9387   14.0282   25.2059 H         1 BCZ         0.0323
     51 H           7.6496   13.6203   26.2700 H         1 BCZ         0.0323
@<TRIPOS>BOND
     1    1    2 1  
     2    1    6 1  
     3    1   23 1  
     4    2    3 ar 
     5    3    4 ar 
     6    3    5 ar 
     7    6    7 1  
     8    6   17 1  
     9    7    8 1  
    10    7   13 1  
    11    8    9 1  
    12    8   11 1  
    13    9   10 1  
    14   11   12 1  
    15   13   14 am 
    16   14   15 1  
    17   14   16 2  
    18   17   18 1  
    19   17   19 1  
    20   19   20 1  
    21   19   23 1  
    22   20   21 ar 
    23   20   22 ar 
    24    1   24 1  
    25    2   25 1  
    26    4   26 1  
    27    4   27 1  
    28    5   28 1  
    29    5   29 1  
    30    6   30 1  
    31    7   31 1  
    32    8   32 1  
    33    9   33 1  
    34    9   34 1  
    35   10   35 1  
    36   10   36 1  
    37   10   37 1  
    38   11   38 1  
    39   11   39 1  
    40   12   40 1  
    41   12   41 1  
    42   12   42 1  
    43   13   43 1  
    44   15   44 1  
    45   15   45 1  
    46   15   46 1  
    47   17   47 1  
    48   18   48 1  
    49   19   49 1  
    50   23   50 1  
    51   23   51 1  
@<TRIPOS>SUBSTRUCTURE
     1 BCZ         1

