### 
### Created by X-TOOL on Mon Sep 10 21:13:03 2018
### 

@<TRIPOS>MOLECULE
3k3a_ligand
   44    44     1     0     0
SMALL
GAST_HUCK


@<TRIPOS>ATOM
      1 C1        -10.4550  -28.4260  -13.8380 C.2       1 G39         0.0478
      2 O1A       -10.4410  -27.8540  -12.7150 O.co2     1 G39        -0.5666
      3 O1B       -10.6240  -29.6120  -14.0270 O.co2     1 G39        -0.5666
      4 C2        -10.0320  -27.6750  -14.8490 C.2       1 G39        -0.0181
      5 C3         -9.7990  -26.2270  -14.5020 C.3       1 G39         0.0201
      6 C4         -8.7580  -25.6160  -15.4680 C.3       1 G39         0.0100
      7 C5         -8.8030  -26.3860  -16.8060 C.3       1 G39         0.1202
      8 N5         -7.7760  -25.7500  -17.6650 N.am      1 G39        -0.2740
      9 C10        -7.6880  -24.7780  -18.5730 C.2       1 G39         0.1735
     10 O10        -8.6470  -24.2420  -19.0970 O.2       1 G39        -0.3974
     11 C11        -6.3030  -24.3790  -19.0440 C.3       1 G39         0.0257
     12 C6         -8.6970  -27.8430  -16.8930 C.3       1 G39         0.1112
     13 C7         -9.7080  -28.3830  -15.9090 C.2       1 G39        -0.0470
     14 O7         -8.8760  -28.2020  -18.3110 O.3       1 G39        -0.3596
     15 C8         -8.0080  -29.2810  -18.7050 C.3       1 G39         0.0613
     16 C9         -7.9900  -29.4270  -20.2170 C.3       1 G39        -0.0292
     17 C81        -8.3930  -30.6240  -18.0740 C.3       1 G39        -0.0292
     18 C82        -9.8290  -30.9120  -18.5250 C.3       1 G39        -0.0629
     19 C91        -7.6530  -28.1180  -20.8180 C.3       1 G39        -0.0629
     20 N4         -8.9510  -24.1430  -15.7420 N.4       1 G39         0.2238
     21 H          -9.4259  -26.1575  -13.4802 H         1 G39         0.0441
     22 H         -10.7376  -25.6800  -14.5918 H         1 G39         0.0441
     23 H          -7.7904  -25.7107  -14.9751 H         1 G39         0.0895
     24 H          -9.8474  -26.2967  -17.1049 H         1 G39         0.0664
     25 H          -6.8657  -26.1858  -17.5174 H         1 G39         0.1859
     26 H          -6.2048  -24.5988  -20.1071 H         1 G39         0.0467
     27 H          -6.1574  -23.3117  -18.8773 H         1 G39         0.0467
     28 H          -5.5547  -24.9407  -18.4849 H         1 G39         0.0467
     29 H          -7.7387  -28.2810  -16.6139 H         1 G39         0.0776
     30 H         -10.1678  -29.3569  -16.0770 H         1 G39         0.0592
     31 H          -7.0152  -29.0184  -18.3395 H         1 G39         0.0598
     32 H          -8.9687  -29.7539  -20.5683 H         1 G39         0.0288
     33 H          -7.2467  -30.1694  -20.5077 H         1 G39         0.0288
     34 H          -8.3234  -30.5819  -16.9870 H         1 G39         0.0288
     35 H          -7.7150  -31.4162  -18.3915 H         1 G39         0.0288
     36 H         -10.4845  -30.1130  -18.1785 H         1 G39         0.0231
     37 H          -9.8629  -30.9653  -19.6132 H         1 G39         0.0231
     38 H         -10.1574  -31.8618  -18.1030 H         1 G39         0.0231
     39 H          -8.4021  -27.3820  -20.5262 H         1 G39         0.0231
     40 H          -6.6721  -27.7994  -20.4653 H         1 G39         0.0231
     41 H          -7.6373  -28.2114  -21.9039 H         1 G39         0.0231
     42 H          -8.9224  -23.6281  -14.8620 H         1 G39         0.1999
     43 H          -8.2062  -23.8120  -16.3553 H         1 G39         0.1999
     44 H          -9.8543  -23.9978  -16.1930 H         1 G39         0.1999
@<TRIPOS>BOND
     1    1    2 ar 
     2    1    3 ar 
     3    1    4 1  
     4    4    5 1  
     5    4   13 2  
     6    5    6 1  
     7    6    7 1  
     8    6   20 1  
     9    7    8 1  
    10    7   12 1  
    11    8    9 am 
    12    9   10 2  
    13    9   11 1  
    14   12   13 1  
    15   12   14 1  
    16   14   15 1  
    17   15   16 1  
    18   15   17 1  
    19   16   19 1  
    20   17   18 1  
    21    5   21 1  
    22    5   22 1  
    23    6   23 1  
    24    7   24 1  
    25    8   25 1  
    26   11   26 1  
    27   11   27 1  
    28   11   28 1  
    29   12   29 1  
    30   13   30 1  
    31   15   31 1  
    32   16   32 1  
    33   16   33 1  
    34   17   34 1  
    35   17   35 1  
    36   18   36 1  
    37   18   37 1  
    38   18   38 1  
    39   19   39 1  
    40   19   40 1  
    41   19   41 1  
    42   20   42 1  
    43   20   43 1  
    44   20   44 1  
@<TRIPOS>SUBSTRUCTURE
     1 G39         1

