### 
### Created by X-TOOL on Mon Sep 10 21:13:01 2018
### 

@<TRIPOS>MOLECULE
3k3b_ligand
   46    49     1     0     0
SMALL
GAST_HUCK


@<TRIPOS>ATOM
      1 C1         15.6620  -20.2400   21.6450 C.ar      1 L31        -0.0656
      2 C2         16.2340  -19.9490   22.9320 C.ar      1 L31        -0.0697
      3 C3         15.4180  -19.2660   23.9390 C.ar      1 L31        -0.0254
      4 C4         14.0850  -18.9000   23.6460 C.ar      1 L31         0.0342
      5 C5         13.4990  -19.2110   22.3020 C.ar      1 L31        -0.0572
      6 C6         14.2720  -19.8580   21.3410 C.ar      1 L31        -0.0790
      7 C10        16.4870  -20.9540   20.5640 C.3       1 L31        -0.0388
      8 C14        15.7130  -18.8210   25.4090 C.3       1 L31         0.0155
      9 C15        14.4790  -18.0520   25.8450 C.3       1 L31         0.0759
     10 N16        13.4810  -18.2080   24.8330 N.pl3     1 L31        -0.3211
     11 C18        16.7320  -19.2350   26.4970 C.3       1 L31        -0.0194
     12 C19        16.6210  -18.5070   27.8860 C.3       1 L31         0.0383
     13 N22        15.7630  -17.2910   27.8870 N.am      1 L31        -0.2569
     14 C25        14.5280  -17.2220   27.1340 C.3       1 L31         0.0996
     15 C26        13.3440  -17.6160   28.0340 C.ar      1 L31        -0.0244
     16 C28        12.6490  -16.6260   28.7330 C.ar      1 L31        -0.0302
     17 C29        11.5350  -16.9770   29.5670 C.ar      1 L31         0.0810
     18 C30        11.1150  -18.3840   29.6900 C.ar      1 L31        -0.0403
     19 C31        11.8260  -19.4030   28.9710 C.ar      1 L31        -0.0771
     20 C32        12.9090  -19.0600   28.1620 C.ar      1 L31        -0.0692
     21 O37        10.8420  -15.9790   30.2720 O.3       1 L31        -0.3349
     22 C39        16.3130  -16.0220   28.4060 C.2       1 L31         0.1775
     23 O40        15.6900  -15.0190   28.2880 O.2       1 L31        -0.3970
     24 C41        17.6870  -15.9420   29.0300 C.3       1 L31         0.0260
     25 H1         17.2566  -20.2316   23.1543 H         1 L31         0.0462
     26 H2         12.4754  -18.9329   22.0784 H         1 L31         0.0477
     27 H3         13.8502  -20.0809   20.3676 H         1 L31         0.0467
     28 H4         17.4943  -21.1661   20.9519 H         1 L31         0.0365
     29 H5         16.5643  -20.3093   19.6761 H         1 L31         0.0365
     30 H6         15.9934  -21.8980   20.2898 H         1 L31         0.0365
     31 H7         16.3277  -17.9591   25.1102 H         1 L31         0.0459
     32 H8         14.0623  -18.8916   26.4206 H         1 L31         0.0611
     33 H9         12.5025  -17.8950   24.9069 H         1 L31         0.1720
     34 H10        17.7395  -19.0423   26.0999 H         1 L31         0.0307
     35 H11        16.6084  -20.3133   26.6757 H         1 L31         0.0307
     36 H12        17.6332  -18.2117   28.1993 H         1 L31         0.0526
     37 H13        16.2052  -19.2196   28.6135 H         1 L31         0.0526
     38 H14        14.3964  -16.1703   26.8399 H         1 L31         0.0744
     39 H15        12.9522  -15.5890   28.6451 H         1 L31         0.0479
     40 H16        10.2735  -18.6483   30.3202 H         1 L31         0.0485
     41 H17        11.5209  -20.4396   29.0569 H         1 L31         0.0572
     42 H18        13.4429  -19.8330   27.6211 H         1 L31         0.0465
     43 H19        11.2329  -15.1330   30.0874 H         1 L31         0.2479
     44 H20        17.8875  -14.9069   29.3438 H         1 L31         0.0467
     45 H21        18.4426  -16.2550   28.2944 H         1 L31         0.0467
     46 H22        17.7311  -16.6057   29.9061 H         1 L31         0.0467
@<TRIPOS>BOND
     1    1    2 ar 
     2    1    6 ar 
     3    1    7 1  
     4    2    3 ar 
     5    3    4 ar 
     6    3    8 1  
     7    4    5 ar 
     8    4   10 1  
     9    5    6 ar 
    10    8    9 1  
    11    8   11 1  
    12    9   10 1  
    13    9   14 1  
    14   11   12 1  
    15   12   13 1  
    16   13   14 1  
    17   13   22 am 
    18   14   15 1  
    19   15   16 ar 
    20   15   20 ar 
    21   16   17 ar 
    22   17   18 ar 
    23   17   21 1  
    24   18   19 ar 
    25   19   20 ar 
    26   22   23 2  
    27   22   24 1  
    28    2   25 1  
    29    5   26 1  
    30    6   27 1  
    31    7   28 1  
    32    7   29 1  
    33    7   30 1  
    34    8   31 1  
    35    9   32 1  
    36   10   33 1  
    37   11   34 1  
    38   11   35 1  
    39   12   36 1  
    40   12   37 1  
    41   14   38 1  
    42   16   39 1  
    43   18   40 1  
    44   19   41 1  
    45   20   42 1  
    46   21   43 1  
    47   24   44 1  
    48   24   45 1  
    49   24   46 1  
@<TRIPOS>SUBSTRUCTURE
     1 L31         1

