### 
### Created by X-TOOL on Mon Sep 10 21:13:04 2018
### 

@<TRIPOS>MOLECULE
3k3e_ligand
   39    41     1     0     0
SMALL
GAST_HUCK


@<TRIPOS>ATOM
      1 C2         78.3700   49.9710   39.6290 C.ar      1 PDB        -0.0099
      2 C3         78.9880   49.8850   38.3870 C.ar      1 PDB        -0.0647
      3 C4         80.2390   50.4610   38.1910 C.ar      1 PDB        -0.0759
      4 C5         80.8690   51.1250   39.2370 C.ar      1 PDB        -0.0733
      5 F5         75.4250   55.1560   42.9860 F         1 PDB        -0.1702
      6 C6         80.2490   51.2110   40.4790 C.ar      1 PDB        -0.0329
      7 F6         73.9320   56.3570   41.8900 F         1 PDB        -0.1702
      8 C7         79.0010   50.6320   40.6780 C.ar      1 PDB         0.1115
      9 F7         76.1010   56.5990   41.4460 F         1 PDB        -0.1702
     10 N8         78.4320   50.6800   41.9010 N.pl3     1 PDB        -0.1562
     11 N9         78.9090   50.1450   42.9300 N.2       1 PDB        -0.2147
     12 C10        78.1320   50.3760   44.0100 C.2       1 PDB         0.0046
     13 C11        77.2810   51.3190   42.2040 C.2       1 PDB         0.1457
     14 C12        77.0620   51.1420   43.5640 C.2       1 PDB         0.0750
     15 N13        76.3850   52.0320   41.4690 N.2       1 PDB        -0.2710
     16 C14        75.2780   52.5690   42.0510 C.2       1 PDB         0.1485
     17 N15        75.0460   52.4060   43.3820 N.am      1 PDB        -0.1980
     18 C16        75.9360   51.6940   44.1580 C.2       1 PDB         0.2127
     19 O17        75.7350   51.5710   45.3670 O.2       1 PDB        -0.4053
     20 C18        74.3060   53.3950   41.2230 C.3       1 PDB         0.0500
     21 C19        75.0360   54.6340   40.6990 C.3       1 PDB         0.0716
     22 C20        74.3100   55.1790   39.4670 C.3       1 PDB        -0.0513
     23 C21        75.1250   55.7140   41.7830 C.3       1 PDB         0.3954
     24 CL1        76.8210   49.2570   39.8590 C.3       1 PDB        -0.0308
     25 H          78.4924   49.3662   37.5665 H         1 PDB         0.0536
     26 H          80.7249   50.3916   37.2177 H         1 PDB         0.0536
     27 H          81.8485   51.5781   39.0840 H         1 PDB         0.0541
     28 H          80.7428   51.7336   41.2982 H         1 PDB         0.0561
     29 H          78.3089   50.0305   45.0285 H         1 PDB         0.0670
     30 H          74.2119   52.8114   43.8065 H         1 PDB         0.2542
     31 H          73.4593   53.6975   41.8393 H         1 PDB         0.0571
     32 H          73.9361   52.8022   40.3864 H         1 PDB         0.0571
     33 H          76.0507   54.3486   40.4213 H         1 PDB         0.0420
     34 H          74.2914   54.4147   38.6901 H         1 PDB         0.0237
     35 H          73.2892   55.4484   39.7380 H         1 PDB         0.0237
     36 H          74.8341   56.0608   39.0985 H         1 PDB         0.0237
     37 H          76.1071   49.7118   39.1722 H         1 PDB         0.0378
     38 H          76.8833   48.1864   39.6640 H         1 PDB         0.0378
     39 H          76.4950   49.4222   40.8859 H         1 PDB         0.0378
@<TRIPOS>BOND
     1    1    2 ar 
     2    8    1 ar 
     3    1   24 1  
     4    2    3 ar 
     5    4    3 ar 
     6    6    4 ar 
     7   23    5 1  
     8    8    6 ar 
     9   23    7 1  
    10   10    8 1  
    11   23    9 1  
    12   10   11 1  
    13   13   10 1  
    14   12   11 2  
    15   14   12 1  
    16   13   14 2  
    17   15   13 1  
    18   18   14 1  
    19   16   15 2  
    20   16   17 1  
    21   20   16 1  
    22   17   18 am 
    23   18   19 2  
    24   21   20 1  
    25   21   22 1  
    26   21   23 1  
    27    2   25 1  
    28    3   26 1  
    29    4   27 1  
    30    6   28 1  
    31   12   29 1  
    32   17   30 1  
    33   20   31 1  
    34   20   32 1  
    35   21   33 1  
    36   22   34 1  
    37   22   35 1  
    38   22   36 1  
    39   24   37 1  
    40   24   38 1  
    41   24   39 1  
@<TRIPOS>SUBSTRUCTURE
     1 PDB         1

