### 
### Created by X-TOOL on Mon Sep 10 21:13:00 2018
### 

@<TRIPOS>MOLECULE
3k3g_ligand
   14    13     1     0     0
SMALL
GAST_HUCK


@<TRIPOS>ATOM
      1 N1         49.4320  -12.4050    6.8790 N.am      1 MMU        -0.2763
      2 N2         49.0360  -12.4070    9.1200 N.am      1 MMU        -0.2763
      3 CAA        50.0550  -13.0220    5.6890 C.3       1 MMU         0.0199
      4 CAB        49.2280  -13.0580   10.4340 C.3       1 MMU         0.0199
      5 OAC        50.2770  -14.0270    8.2010 O.2       1 MMU        -0.4009
      6 CAF        49.6080  -12.9920    8.0690 C.2       1 MMU         0.2568
      7 H1         48.8912  -11.5679    6.7969 H         1 MMU         0.1841
      8 H2         48.5018  -11.5670    9.0251 H         1 MMU         0.1841
      9 H3         49.8169  -12.4224    4.7981 H         1 MMU         0.0481
     10 H4         49.6657  -14.0425    5.5588 H         1 MMU         0.0481
     11 H5         51.1459  -13.0602    5.8245 H         1 MMU         0.0481
     12 H6         48.7081  -12.4774   11.2103 H         1 MMU         0.0481
     13 H7         50.3020  -13.1030   10.6675 H         1 MMU         0.0481
     14 H8         48.8167  -14.0777   10.4016 H         1 MMU         0.0481
@<TRIPOS>BOND
     1    1    3 1  
     2    6    1 am 
     3    2    4 1  
     4    2    6 am 
     5    6    5 2  
     6    1    7 1  
     7    2    8 1  
     8    3    9 1  
     9    3   10 1  
    10    3   11 1  
    11    4   12 1  
    12    4   13 1  
    13    4   14 1  
@<TRIPOS>SUBSTRUCTURE
     1 MMU         1

