### 
### Created by X-TOOL on Mon Sep 10 21:13:04 2018
### 

@<TRIPOS>MOLECULE
3k3h_ligand
   39    41     1     0     0
SMALL
GAST_HUCK


@<TRIPOS>ATOM
      1 C2         78.0880   50.0110   40.0220 C.ar      1 BYE        -0.0097
      2 C3         78.7280   49.9150   38.7900 C.ar      1 BYE        -0.0647
      3 C4         80.0090   50.4320   38.6230 C.ar      1 BYE        -0.0759
      4 C5         80.6460   51.0480   39.6930 C.ar      1 BYE        -0.0733
      5 F5         72.4730   55.5060   40.2650 F         1 BYE        -0.1702
      6 C6         80.0040   51.1470   40.9240 C.ar      1 BYE        -0.0327
      7 F6         73.7690   54.5420   38.7430 F         1 BYE        -0.1702
      8 C7         78.7250   50.6300   41.0910 C.ar      1 BYE         0.1149
      9 F7         74.2860   56.5550   39.5190 F         1 BYE        -0.1702
     10 N8         78.1300   50.7570   42.3010 N.pl3     1 BYE        -0.1316
     11 N9         78.6290   50.3750   43.3820 N.2       1 BYE        -0.2154
     12 C10        77.8650   50.7350   44.4380 C.2       1 BYE         0.0018
     13 C11        76.9670   51.4020   42.5380 C.2       1 BYE         0.2328
     14 C12        76.7750   51.4130   43.9120 C.2       1 BYE         0.0764
     15 N13        76.0560   52.0070   41.7300 N.pl3     1 BYE        -0.1958
     16 C14        74.9650   52.6270   42.2560 C.2       1 BYE         0.1450
     17 N15        74.7600   52.6490   43.6000 N.2       1 BYE        -0.2743
     18 C16        75.6620   52.0460   44.4520 C.2       1 BYE         0.1308
     19 O17        75.4860   52.0920   45.6680 O.2       1 BYE        -0.4239
     20 C18        73.9960   53.3530   41.3370 C.3       1 BYE         0.0513
     21 C19        74.5880   54.7140   40.9600 C.3       1 BYE         0.0725
     22 C20        74.5870   55.6410   42.1770 C.3       1 BYE        -0.0511
     23 C21        73.7550   55.3440   39.8410 C.3       1 BYE         0.3955
     24 CL1        76.5210   49.3210   40.2000 C.3       1 BYE        -0.0308
     25 H1         78.2266   49.4355   37.9571 H         1 BYE         0.0536
     26 H2         80.5072   50.3546   37.6634 H         1 BYE         0.0537
     27 H3         81.6442   51.4520   39.5690 H         1 BYE         0.0541
     28 H4         80.5039   51.6295   41.7561 H         1 BYE         0.0561
     29 H5         78.0650   50.5334   45.4893 H         1 BYE         0.0660
     30 H6         76.1932   51.9958   40.7092 H         1 BYE         0.2420
     31 H7         73.0366   53.4993   41.8547 H         1 BYE         0.0584
     32 H8         73.8344   52.7567   40.4269 H         1 BYE         0.0584
     33 H9         75.6217   54.5750   40.6106 H         1 BYE         0.0421
     34 H10        75.1853   55.1896   42.9822 H         1 BYE         0.0237
     35 H11        73.5540   55.7873   42.5257 H         1 BYE         0.0237
     36 H12        75.0210   56.6126   41.8983 H         1 BYE         0.0237
     37 H13        76.2013   48.8853   39.2419 H         1 BYE         0.0378
     38 H14        75.8086   50.1023   40.5034 H         1 BYE         0.0378
     39 H15        76.5518   48.5345   40.9684 H         1 BYE         0.0378
@<TRIPOS>BOND
     1    1    2 ar 
     2    8    1 ar 
     3    1   24 1  
     4    2    3 ar 
     5    4    3 ar 
     6    6    4 ar 
     7   23    5 1  
     8    8    6 ar 
     9   23    7 1  
    10   10    8 1  
    11   23    9 1  
    12   10   11 1  
    13   13   10 1  
    14   12   11 2  
    15   14   12 1  
    16   13   14 2  
    17   15   13 1  
    18   18   14 1  
    19   16   15 1  
    20   16   17 2  
    21   20   16 1  
    22   17   18 1  
    23   18   19 2  
    24   21   20 1  
    25   21   22 1  
    26   21   23 1  
    27    2   25 1  
    28    3   26 1  
    29    4   27 1  
    30    6   28 1  
    31   12   29 1  
    32   15   30 1  
    33   20   31 1  
    34   20   32 1  
    35   21   33 1  
    36   22   34 1  
    37   22   35 1  
    38   22   36 1  
    39   24   37 1  
    40   24   38 1  
    41   24   39 1  
@<TRIPOS>SUBSTRUCTURE
     1 BYE         1

