### 
### Created by X-TOOL on Mon Sep 10 21:13:00 2018
### 

@<TRIPOS>MOLECULE
3k3i_ligand
   39    42     1     0     0
SMALL
GAST_HUCK


@<TRIPOS>ATOM
      1 N1          2.1460    3.7520  -17.7100 N.4       1 JZJ         0.2586
      2 N3         -0.0120    2.8810  -15.1770 N.2       1 JZJ        -0.3226
      3 C4          1.1940    3.3600  -15.5430 C.2       1 JZJ         0.1673
      4 C5          3.9100    2.1980  -18.5350 C.ar      1 JZJ         0.0037
      5 C6          4.2510    1.9190  -17.2070 C.ar      1 JZJ        -0.0281
      6 C7          4.7380    1.7160  -19.5770 C.ar      1 JZJ        -0.0618
      7 C8          5.3770    1.1660  -16.8800 C.ar      1 JZJ        -0.0663
      8 C10         6.1810    0.6800  -17.9170 C.ar      1 JZJ        -0.0755
      9 C13        -1.7960    3.5100  -13.4710 C.ar      1 JZJ        -0.0291
     10 C15        -2.4340    4.5810  -12.8230 C.ar      1 JZJ        -0.0594
     11 C17        -3.6500    4.3380  -12.1570 C.ar      1 JZJ        -0.0577
     12 BR         -5.7690    2.7530  -11.1620 Br        1 JZJ        -0.0545
     13 C18        -4.1530    3.0400  -12.1540 C.ar      1 JZJ         0.0073
     14 C14        -2.3050    2.2070  -13.4210 C.ar      1 JZJ        -0.0594
     15 C16        -3.4990    1.9650  -12.7420 C.ar      1 JZJ        -0.0577
     16 C11        -0.4950    3.7000  -14.1860 C.2       1 JZJ         0.0151
     17 N2          1.5330    4.4310  -14.7550 N.pl3     1 JZJ        -0.2521
     18 C12         0.4810    4.6520  -13.9060 C.2       1 JZJ         0.0437
     19 C1          2.0090    2.7610  -16.6070 C.3       1 JZJ         0.0640
     20 C2          2.6820    3.0200  -18.9030 C.3       1 JZJ         0.0002
     21 C3          3.3840    2.4170  -16.0520 C.3       1 JZJ         0.0381
     22 C9          5.8470    0.9450  -19.2370 C.ar      1 JZJ        -0.0753
     23 H1          2.7841    4.4837  -17.4390 H         1 JZJ         0.2051
     24 H2          1.2471    4.1533  -17.9268 H         1 JZJ         0.2051
     25 H3          4.5146    1.9413  -20.6135 H         1 JZJ         0.0539
     26 H4          5.6247    0.9612  -15.8447 H         1 JZJ         0.0537
     27 H5          7.0653    0.0961  -17.6887 H         1 JZJ         0.0541
     28 H6         -1.9989    5.5737  -12.8357 H         1 JZJ         0.0581
     29 H7         -4.1812    5.1411  -11.6591 H         1 JZJ         0.0629
     30 H8         -1.7763    1.3940  -13.9053 H         1 JZJ         0.0581
     31 H9         -3.9065    0.9627  -12.6748 H         1 JZJ         0.0629
     32 H10         2.4117    4.9670  -14.7944 H         1 JZJ         0.2410
     33 H11         0.4194    5.4320  -13.1485 H         1 JZJ         0.0887
     34 H12         1.5228    1.8488  -16.9832 H         1 JZJ         0.1118
     35 H13         2.9574    3.7498  -19.6786 H         1 JZJ         0.0964
     36 H14         1.9030    2.3478  -19.2920 H         1 JZJ         0.0964
     37 H15         3.8393    3.3120  -15.6029 H         1 JZJ         0.0495
     38 H16         3.2918    1.6302  -15.2888 H         1 JZJ         0.0495
     39 H17         6.4679    0.5398  -20.0278 H         1 JZJ         0.0541
@<TRIPOS>BOND
     1   19    1 1  
     2    1   20 1  
     3    2    3 2  
     4   16    2 1  
     5    3   17 1  
     6    3   19 1  
     7    4    5 ar 
     8    4    6 ar 
     9   20    4 1  
    10    5    7 ar 
    11    5   21 1  
    12    6   22 ar 
    13    7    8 ar 
    14   22    8 ar 
    15    9   10 ar 
    16    9   14 ar 
    17    9   16 1  
    18   10   11 ar 
    19   11   13 ar 
    20   13   12 1  
    21   13   15 ar 
    22   14   15 ar 
    23   16   18 2  
    24   17   18 1  
    25   19   21 1  
    26    1   23 1  
    27    1   24 1  
    28    6   25 1  
    29    7   26 1  
    30    8   27 1  
    31   10   28 1  
    32   11   29 1  
    33   14   30 1  
    34   15   31 1  
    35   17   32 1  
    36   18   33 1  
    37   19   34 1  
    38   20   35 1  
    39   20   36 1  
    40   21   37 1  
    41   21   38 1  
    42   22   39 1  
@<TRIPOS>SUBSTRUCTURE
     1 JZJ         1

