### 
### Created by X-TOOL on Mon Sep 10 21:13:00 2018
### 

@<TRIPOS>MOLECULE
3k3j_ligand
   50    53     1     0     0
SMALL
GAST_HUCK


@<TRIPOS>ATOM
      1 N1         -0.7770    4.1060  -14.2440 N.am      1 F4C        -0.0807
      2 N3          1.9400    3.0900  -17.2680 N.am      1 F4C        -0.2720
      3 C4          0.3910    6.1300  -13.7940 C.2       1 F4C         0.1096
      4 C5          4.5690    1.4420  -20.2240 C.3       1 F4C         0.3705
      5 C6          2.1850    4.1870  -16.5420 C.2       1 F4C         0.2045
      6 C7          4.8980    1.3730  -18.7630 C.ar      1 F4C         0.0509
      7 C8         -1.9210    3.4310  -13.7740 C.ar      1 F4C         0.1304
      8 C10         0.3950    7.4000  -13.0160 C.ar      1 F4C         0.0155
      9 C13        -3.0950    4.1850  -13.7310 C.ar      1 F4C        -0.0251
     10 C15        -4.2530    3.6250  -13.2320 C.ar      1 F4C        -0.0339
     11 C17         6.0750    0.7170  -18.3830 C.ar      1 F4C        -0.0379
     12 C20         1.0670    8.5170  -13.5130 C.ar      1 F4C        -0.0294
     13 C21        -0.3410    7.5190  -11.8430 C.ar      1 F4C        -0.0294
     14 C22         4.3440    1.8840  -16.4720 C.ar      1 F4C        -0.0273
     15 C24         5.5220    1.2440  -16.0800 C.ar      1 F4C        -0.0405
     16 F4         -5.3690    1.7900  -12.3000 F         1 F4C        -0.1907
     17 C14        -4.2340    2.3130  -12.7720 C.ar      1 F4C         0.1231
     18 C16        -3.0640    1.5540  -12.7950 C.ar      1 F4C        -0.0339
     19 C12        -1.8850    2.1270  -13.2790 C.ar      1 F4C        -0.0251
     20 C2          0.1030    3.7140  -15.1960 C.2       1 F4C         0.2722
     21 O1         -0.0330    2.6240  -15.8140 O.2       1 F4C        -0.3951
     22 N2         -0.6120    5.3100  -13.5620 N.2       1 F4C        -0.1132
     23 C18         1.0390    9.7120  -12.8030 C.ar      1 F4C         0.0067
     24 C19        -0.3430    8.7430  -11.1720 C.ar      1 F4C         0.0067
     25 N4          0.3630    9.7940  -11.6590 N.ar      1 F4C        -0.3028
     26 C3          1.3240    5.7730  -14.7930 C.2       1 F4C        -0.0039
     27 C1          1.1880    4.5510  -15.4740 C.2       1 F4C         0.1266
     28 O2          3.1710    4.9100  -16.7450 O.2       1 F4C        -0.3940
     29 C11         2.7700    2.6180  -18.3320 C.3       1 F4C         0.0787
     30 C9          4.0340    1.9480  -17.8330 C.ar      1 F4C         0.0131
     31 C23         6.3770    0.6500  -17.0350 C.ar      1 F4C        -0.0392
     32 F1          5.6640    1.1370  -20.9070 F         1 F4C        -0.2263
     33 F2          3.5760    0.6090  -20.5090 F         1 F4C        -0.2263
     34 F3          4.1890    2.6790  -20.5140 F         1 F4C        -0.2263
     35 H1          1.1182    2.5631  -17.0510 H         1 F4C         0.1873
     36 H2         -3.0968    5.2082  -14.0889 H         1 F4C         0.0562
     37 H3         -5.1696    4.2028  -13.1989 H         1 F4C         0.0583
     38 H4          6.7308    0.2743  -19.1240 H         1 F4C         0.0820
     39 H5          1.6091    8.4534  -14.4495 H         1 F4C         0.0691
     40 H6         -0.9032    6.6767  -11.4563 H         1 F4C         0.0691
     41 H7          3.6824    2.3230  -15.7340 H         1 F4C         0.0636
     42 H8          5.7837    1.2025  -15.0289 H         1 F4C         0.0834
     43 H9         -3.0693    0.5295  -12.4408 H         1 F4C         0.0583
     44 H10        -0.9568    1.5671  -13.2700 H         1 F4C         0.0562
     45 H11         1.5686   10.5787  -13.1816 H         1 F4C         0.0809
     46 H12        -0.9122    8.8544  -10.2562 H         1 F4C         0.0809
     47 H13         2.1472    6.4435  -15.0350 H         1 F4C         0.0821
     48 H14         3.0509    3.4726  -18.9651 H         1 F4C         0.0762
     49 H15         2.1986    1.8917  -18.9287 H         1 F4C         0.0762
     50 H16         7.2755    0.1385  -16.7092 H         1 F4C         0.0648
@<TRIPOS>BOND
     1    1    7 1  
     2   20    1 am 
     3    1   22 1  
     4    2    5 am 
     5   29    2 1  
     6    3    8 1  
     7    3   22 2  
     8   26    3 1  
     9    6    4 1  
    10    4   32 1  
    11    4   33 1  
    12    4   34 1  
    13    5   27 1  
    14    5   28 2  
    15    6   11 ar 
    16   30    6 ar 
    17    7    9 ar 
    18    7   19 ar 
    19    8   12 ar 
    20    8   13 ar 
    21    9   10 ar 
    22   10   17 ar 
    23   11   31 ar 
    24   12   23 ar 
    25   13   24 ar 
    26   14   15 ar 
    27   30   14 ar 
    28   15   31 ar 
    29   17   16 1  
    30   18   17 ar 
    31   19   18 ar 
    32   20   21 2  
    33   27   20 1  
    34   23   25 ar 
    35   24   25 ar 
    36   27   26 2  
    37   29   30 1  
    38    2   35 1  
    39    9   36 1  
    40   10   37 1  
    41   11   38 1  
    42   12   39 1  
    43   13   40 1  
    44   14   41 1  
    45   15   42 1  
    46   18   43 1  
    47   19   44 1  
    48   23   45 1  
    49   24   46 1  
    50   26   47 1  
    51   29   48 1  
    52   29   49 1  
    53   31   50 1  
@<TRIPOS>SUBSTRUCTURE
     1 F4C         1

