### 
### Created by X-TOOL on Mon Sep 10 21:13:03 2018
### 

@<TRIPOS>MOLECULE
3k4d_ligand
   21    21     1     0     0
SMALL
GAST_HUCK


@<TRIPOS>ATOM
      1 C         -21.5210  -27.9660   -1.1480 C.2       1 EVA         0.0627
      2 N         -23.4170  -26.4870   -0.8390 N.am      1 EVA        -0.2666
      3 O         -22.0500  -28.7430   -1.9020 O.co2     1 EVA        -0.5665
      4 CA        -22.4040  -27.2600   -0.1290 C.3       1 EVA         0.1228
      5 CB        -23.0800  -28.2150    0.8280 C.3       1 EVA         0.1201
      6 CG        -24.0610  -27.4450    1.7120 C.3       1 EVA         0.1276
      7 OG        -22.0970  -28.8040    1.6680 O.3       1 EVA        -0.3849
      8 CAE       -24.6680  -26.2480   -0.3950 C.2       1 EVA         0.2094
      9 OAJ       -25.8800  -25.9180    1.6650 O.3       1 EVA        -0.3687
     10 OAK       -25.3680  -25.4940   -1.0420 O.2       1 EVA        -0.3940
     11 CD1       -25.1990  -26.8900    0.8840 C.3       1 EVA         0.1719
     12 OD2       -24.6420  -28.3880    2.5970 O.3       1 EVA        -0.3840
     13 OXT       -20.3220  -27.7470   -1.1610 O.co2     1 EVA        -0.5665
     14 H1        -23.1634  -26.1032   -1.7269 H         1 EVA         0.1876
     15 H2        -21.7749  -26.5740    0.4572 H         1 EVA         0.0753
     16 H3        -23.6127  -28.9947    0.2639 H         1 EVA         0.0664
     17 H4        -23.5451  -26.6412    2.2576 H         1 EVA         0.0673
     18 H5        -22.5187  -29.3945    2.2811 H         1 EVA         0.2101
     19 H6        -25.2794  -25.2175    1.8909 H         1 EVA         0.2134
     20 H7        -25.8912  -27.7029    0.6194 H         1 EVA         0.0865
     21 H8        -23.9637  -28.7680    3.1430 H         1 EVA         0.2102
@<TRIPOS>BOND
     1    1    3 ar 
     2    1    4 1  
     3    1   13 ar 
     4    4    2 1  
     5    2    8 am 
     6    4    5 1  
     7    5    6 1  
     8    5    7 1  
     9    6   11 1  
    10    6   12 1  
    11    8   10 2  
    12    8   11 1  
    13   11    9 1  
    14    2   14 1  
    15    4   15 1  
    16    5   16 1  
    17    6   17 1  
    18    7   18 1  
    19    9   19 1  
    20   11   20 1  
    21   12   21 1  
@<TRIPOS>SUBSTRUCTURE
     1 EVA         1

