### 
### Created by X-TOOL on Mon Sep 10 21:13:03 2018
### 

@<TRIPOS>MOLECULE
3k4q_ligand
   42    42     1     0     0
SMALL
GAST_HUCK


@<TRIPOS>ATOM
      1 C1         -5.4270   11.5670   35.3950 C.3       1 IHS         0.1461
      2 O1         -6.2860   12.4390   35.9960 O.3       1 IHS        -0.2569
      3 S1         -6.3460   13.8460   35.4360 S.o2      1 IHS        -0.0733
      4 C2         -6.2250   10.5000   34.6730 C.3       1 IHS         0.1461
      5 O2         -5.3510   14.6690   36.1360 O.co2     1 IHS        -0.4611
      6 S2         -8.6190   10.3110   35.6880 S.o2      1 IHS        -0.0733
      7 C3         -5.2410    9.5270   34.0600 C.3       1 IHS         0.1461
      8 O3         -7.7320   14.1040   35.8650 O.co2     1 IHS        -0.4611
      9 S3         -6.3230    8.3920   32.1870 S.o2      1 IHS        -0.0733
     10 C4         -3.9130    9.3270   34.7570 C.3       1 IHS         0.1461
     11 O4         -6.2920   14.0400   33.9770 O.co2     1 IHS        -0.4611
     12 S4         -2.3910    7.6710   33.6890 S.o2      1 IHS        -0.0733
     13 C5         -3.3430   10.6370   35.3290 C.3       1 IHS         0.1461
     14 S5         -0.8480   11.2490   35.2760 S.o2      1 IHS        -0.0733
     15 C6         -4.3470   11.1260   36.3570 C.3       1 IHS         0.1461
     16 S6         -3.5770   12.4480   38.5140 S.o2      1 IHS        -0.0733
     17 O12        -7.2150    9.7940   35.3990 O.3       1 IHS        -0.2569
     18 O13        -5.8900    8.3120   33.6510 O.3       1 IHS        -0.2569
     19 O14        -3.1400    8.9750   33.6450 O.3       1 IHS        -0.2569
     20 O15        -2.0420   10.5110   35.8820 O.3       1 IHS        -0.2569
     21 O16        -3.8010   12.2710   37.0000 O.3       1 IHS        -0.2569
     22 O22        -8.5550   11.0220   36.9940 O.co2     1 IHS        -0.4611
     23 O23        -6.8450    7.0600   31.8270 O.co2     1 IHS        -0.4611
     24 O24        -2.1770    7.0670   32.3710 O.co2     1 IHS        -0.4611
     25 O25        -0.8470   11.0760   33.8220 O.co2     1 IHS        -0.4611
     26 O26        -2.6660   11.3620   38.9410 O.co2     1 IHS        -0.4611
     27 O32        -9.1090   11.2830   34.7160 O.co2     1 IHS        -0.4611
     28 O33        -5.1220    8.8340   31.4090 O.co2     1 IHS        -0.4611
     29 O34        -3.0370    6.7150   34.5830 O.co2     1 IHS        -0.4611
     30 O35        -0.9350   12.6770   35.6060 O.co2     1 IHS        -0.4611
     31 O36        -4.8520   12.4100   39.2470 O.co2     1 IHS        -0.4611
     32 O42        -9.4470    9.1240   35.8710 O.co2     1 IHS        -0.4611
     33 O43        -7.2760    9.4620   31.9380 O.co2     1 IHS        -0.4611
     34 O44        -1.0740    8.1920   34.1620 O.co2     1 IHS        -0.4611
     35 O45         0.3930   10.6750   35.8290 O.co2     1 IHS        -0.4611
     36 O46        -2.9610   13.7750   38.6620 O.co2     1 IHS        -0.4611
     37 H1         -4.9009   12.1252   34.6066 H         1 IHS         0.0675
     38 H2         -6.7557   11.0095   33.8552 H         1 IHS         0.0675
     39 H3         -4.9535   10.0114   33.1152 H         1 IHS         0.0675
     40 H4         -3.9545    8.5465   35.5310 H         1 IHS         0.0675
     41 H5         -3.2820   11.3732   34.5140 H         1 IHS         0.0675
     42 H6         -4.6698   10.3602   37.0777 H         1 IHS         0.0675
@<TRIPOS>BOND
     1    1    2 1  
     2    1    4 1  
     3    1   15 1  
     4    2    3 1  
     5    3    5 ar 
     6    3    8 ar 
     7    3   11 ar 
     8    4    7 1  
     9    4   17 1  
    10   17    6 1  
    11    6   22 ar 
    12    6   27 ar 
    13    6   32 ar 
    14    7   10 1  
    15    7   18 1  
    16   18    9 1  
    17    9   23 ar 
    18    9   28 ar 
    19    9   33 ar 
    20   10   13 1  
    21   10   19 1  
    22   19   12 1  
    23   12   24 ar 
    24   12   29 ar 
    25   12   34 ar 
    26   13   15 1  
    27   13   20 1  
    28   20   14 1  
    29   14   25 ar 
    30   14   30 ar 
    31   14   35 ar 
    32   15   21 1  
    33   21   16 1  
    34   16   26 ar 
    35   16   31 ar 
    36   16   36 ar 
    37    1   37 1  
    38    4   38 1  
    39    7   39 1  
    40   10   40 1  
    41   13   41 1  
    42   15   42 1  
@<TRIPOS>SUBSTRUCTURE
     1 IHS         1

