### 
### Created by X-TOOL on Mon Sep 10 21:13:03 2018
### 

@<TRIPOS>MOLECULE
3k54_ligand
   60    63     1     0     0
SMALL
GAST_HUCK


@<TRIPOS>ATOM
      1 C1        -14.2950   -4.4390    1.1320 C.2       1 1N1        -0.0104
      2 C2        -15.4330   -4.5540    1.9400 C.2       1 1N1         0.1128
      3 C3        -15.5720   -4.5200    3.4190 C.2       1 1N1         0.2261
      4 N6        -20.4830   -6.3450   -7.3550 N.4       1 1N1         0.2397
      5 C7        -14.5870   -4.1280    8.4070 C.ar      1 1N1        -0.0834
      6 C8        -14.3140   -5.3180    7.7380 C.ar      1 1N1        -0.0735
      7 C9        -14.2940   -5.3970    6.3330 C.ar      1 1N1        -0.0235
      8 C10       -13.9970   -6.7560    5.7400 C.3       1 1N1        -0.0351
      9 C11       -17.6210   -4.9810   -2.0970 C.ar      1 1N1         0.1348
     10 C12       -17.9880   -5.0860   -3.4200 C.ar      1 1N1         0.0208
     11 C13       -19.3460   -5.2400   -3.6950 C.ar      1 1N1         0.1091
     12 C14       -19.9060   -5.1660   -1.4500 C.ar      1 1N1         0.0703
     13 C15       -20.9560   -5.2090   -0.3630 C.3       1 1N1        -0.0028
     14 C16       -18.9710   -4.9140   -6.0670 C.3       1 1N1         0.0716
     15 C19       -21.2120   -5.7860   -5.1200 C.3       1 1N1         0.0716
     16 C20       -20.7360   -7.2570   -8.4670 C.3       1 1N1        -0.0080
     17 C21       -21.9360   -8.0950   -8.0500 C.3       1 1N1         0.0841
     18 N         -16.2990   -4.8520   -1.7600 N.pl3     1 1N1        -0.2165
     19 C         -15.8850   -4.7340   -0.4750 C.2       1 1N1         0.2125
     20 N1        -14.5830   -4.5440   -0.2000 N.2       1 1N1        -0.2981
     21 S         -16.8940   -4.8120    0.9770 S.3       1 1N1         0.0354
     22 N2        -14.4840   -4.2780    4.1730 N.am      1 1N1        -0.2384
     23 C4        -14.5250   -4.2730    5.5470 C.ar      1 1N1         0.0817
     24 C5        -14.7930   -3.0770    6.2340 C.ar      1 1N1         0.0531
     25 C6        -14.8230   -2.9920    7.6340 C.ar      1 1N1        -0.0685
     26 CL        -15.0970   -1.5690    5.3200 Cl        1 1N1        -0.0853
     27 O         -16.6920   -4.6860    3.8680 O.2       1 1N1        -0.3859
     28 N3        -20.2880   -5.2750   -2.7360 N.ar      1 1N1        -0.2701
     29 N4        -18.5860   -5.0230   -1.1540 N.ar      1 1N1        -0.2662
     30 N5        -19.8170   -5.3260   -4.9730 N.pl3     1 1N1        -0.2818
     31 C17       -19.0790   -6.0530   -7.0520 C.3       1 1N1        -0.0108
     32 C18       -21.5930   -5.7880   -6.5920 C.3       1 1N1        -0.0108
     33 O1        -23.1060   -7.4510   -8.5910 O.3       1 1N1        -0.3898
     34 H1        -13.2904   -4.2830    1.5223 H         1 1N1         0.0652
     35 H2        -20.5207   -5.5517   -7.9758 H         1 1N1         0.2036
     36 H3        -14.6151   -4.0862    9.4898 H         1 1N1         0.0471
     37 H4        -14.1105   -6.2114    8.3172 H         1 1N1         0.0515
     38 H5        -13.8505   -7.4855    6.5502 H         1 1N1         0.0362
     39 H6        -13.0839   -6.6980    5.1293 H         1 1N1         0.0362
     40 H7        -14.8405   -7.0731    5.1092 H         1 1N1         0.0362
     41 H8        -17.2516   -5.0504   -4.2147 H         1 1N1         0.0519
     42 H9        -21.9502   -5.3291   -0.8181 H         1 1N1         0.0460
     43 H10       -20.9269   -4.2718    0.2122 H         1 1N1         0.0460
     44 H11       -20.7549   -6.0573    0.3077 H         1 1N1         0.0460
     45 H12       -17.9317   -4.7831   -5.7313 H         1 1N1         0.0577
     46 H13       -19.3338   -3.9755   -6.5114 H         1 1N1         0.0577
     47 H14       -21.8813   -5.1089   -4.5691 H         1 1N1         0.0577
     48 H15       -21.3067   -6.8045   -4.7155 H         1 1N1         0.0577
     49 H16       -19.8612   -7.9006   -8.6414 H         1 1N1         0.0837
     50 H17       -20.9633   -6.6912   -9.3825 H         1 1N1         0.0837
     51 H18       -22.0026   -8.1403   -6.9530 H         1 1N1         0.0610
     52 H19       -21.8444   -9.1139   -8.4542 H         1 1N1         0.0610
     53 H20       -15.5941   -4.8444   -2.5110 H         1 1N1         0.2300
     54 H21       -13.6132   -4.0950    3.7167 H         1 1N1         0.2226
     55 H22       -15.0297   -2.0428    8.1149 H         1 1N1         0.0526
     56 H23       -18.5589   -5.7772   -7.9812 H         1 1N1         0.0835
     57 H24       -18.6088   -6.9490   -6.6207 H         1 1N1         0.0835
     58 H25       -22.4924   -6.4034   -6.7418 H         1 1N1         0.0835
     59 H26       -21.7931   -4.7589   -6.9251 H         1 1N1         0.0835
     60 H27       -23.8792   -7.9476   -8.3504 H         1 1N1         0.2096
@<TRIPOS>BOND
     1    2    1 2  
     2    1   20 1  
     3    3    2 1  
     4    2   21 1  
     5   22    3 am 
     6    3   27 2  
     7    4   16 1  
     8   31    4 1  
     9   32    4 1  
    10    6    5 ar 
    11    5   25 ar 
    12    7    6 ar 
    13    7    8 1  
    14   23    7 ar 
    15    9   10 ar 
    16   18    9 1  
    17    9   29 ar 
    18   10   11 ar 
    19   11   28 ar 
    20   11   30 1  
    21   12   13 1  
    22   12   28 ar 
    23   29   12 ar 
    24   30   14 1  
    25   14   31 1  
    26   30   15 1  
    27   15   32 1  
    28   16   17 1  
    29   17   33 1  
    30   19   18 1  
    31   19   20 2  
    32   21   19 1  
    33   22   23 1  
    34   23   24 ar 
    35   24   25 ar 
    36   24   26 1  
    37    1   34 1  
    38    4   35 1  
    39    5   36 1  
    40    6   37 1  
    41    8   38 1  
    42    8   39 1  
    43    8   40 1  
    44   10   41 1  
    45   13   42 1  
    46   13   43 1  
    47   13   44 1  
    48   14   45 1  
    49   14   46 1  
    50   15   47 1  
    51   15   48 1  
    52   16   49 1  
    53   16   50 1  
    54   17   51 1  
    55   17   52 1  
    56   18   53 1  
    57   22   54 1  
    58   25   55 1  
    59   31   56 1  
    60   31   57 1  
    61   32   58 1  
    62   32   59 1  
    63   33   60 1  
@<TRIPOS>SUBSTRUCTURE
     1 1N1         1

