### 
### Created by X-TOOL on Mon Sep 10 21:13:03 2018
### 

@<TRIPOS>MOLECULE
3k5c_ligand
   88    92     1     0     0
SMALL
GAST_HUCK


@<TRIPOS>ATOM
      1 N1         30.3240    6.1340   15.4260 N.am      1 0BI        -0.2787
      2 C3         31.5350    6.2000   14.6000 C.3       1 0BI         0.0816
      3 C5         32.5990    7.0850   15.3410 C.3       1 0BI         0.0040
      4 C8         31.9990    8.4280   15.7910 C.ar      1 0BI        -0.0496
      5 C9         31.6290    8.6180   17.1450 C.ar      1 0BI        -0.0322
      6 C11        31.0670    9.8490   17.5730 C.ar      1 0BI         0.0844
      7 C12        30.8750   10.8930   16.6320 C.ar      1 0BI        -0.0401
      8 C14        31.2430   10.7040   15.2840 C.ar      1 0BI        -0.0772
      9 C16        31.8050    9.4800   14.8580 C.ar      1 0BI        -0.0713
     10 O18        30.6920   10.0740   18.8970 O.3       1 0BI        -0.3198
     11 C19        31.0670    9.2520   20.0160 C.3       1 0BI         0.0703
     12 C22        29.9070    9.1350   21.0350 C.3       1 0BI        -0.0233
     13 C25        28.5720    8.6240   20.4400 C.3       1 0BI        -0.0311
     14 C28        28.5740    7.0780   20.3360 C.3       1 0BI         0.0237
     15 N31        27.3260    6.6510   19.7040 N.pl3     1 0BI        -0.3234
     16 C33        27.1260    6.5070   18.3630 C.ar      1 0BI         0.0363
     17 C34        28.1760    6.5270   17.4020 C.ar      1 0BI        -0.0317
     18 C36        27.9010    6.3650   16.0240 C.ar      1 0BI         0.0318
     19 C37        26.5620    6.1840   15.5900 C.ar      1 0BI        -0.0517
     20 C39        25.5060    6.1630   16.5320 C.ar      1 0BI        -0.0239
     21 C40        25.7970    6.3240   17.9110 C.ar      1 0BI        -0.0371
     22 C42        24.0580    5.9660   16.0590 C.3       1 0BI         0.0792
     23 O45        23.8000    4.5450   16.0490 O.3       1 0BI        -0.3707
     24 C46        22.8490    4.1140   17.0520 C.3       1 0BI         0.0391
     25 C50        29.0430    6.3860   15.0350 C.2       1 0BI         0.2008
     26 O51        28.7720    6.6410   13.8680 O.2       1 0BI        -0.3847
     27 C52        32.0520    4.7610   14.3420 C.3       1 0BI         0.1193
     28 O54        33.1810    4.7900   13.4590 O.3       1 0BI        -0.3840
     29 C56        30.9820    3.8940   13.6320 C.3       1 0BI        -0.0087
     30 N59        31.5390    2.6060   13.1720 N.4       1 0BI         0.1886
     31 C61        30.7230    2.0080   12.1030 C.3       1 0BI        -0.0180
     32 C62        30.8500    0.4730   12.0100 C.3       1 0BI        -0.0317
     33 C65        29.5460    1.1030   12.5430 C.3       1 0BI        -0.0317
     34 C68        30.6640    2.7160   10.7430 C.ar      1 0BI        -0.0091
     35 C69        31.8650    2.9700   10.0440 C.ar      1 0BI        -0.0333
     36 C71        31.8490    3.6230    8.7830 C.ar      1 0BI        -0.0116
     37 C72        30.6010    4.0190    8.2390 C.ar      1 0BI        -0.0314
     38 C74        29.3930    3.7720    8.9320 C.ar      1 0BI        -0.0379
     39 C76        29.4240    3.1210   10.1850 C.ar      1 0BI        -0.0404
     40 C78        33.1790    3.8790    8.0490 C.3       1 0BI        -0.0068
     41 C80        33.7770    5.2540    8.4540 C.3       1 0BI        -0.0523
     42 C84        34.2290    2.7360    8.1420 C.3       1 0BI        -0.0523
     43 H1         30.4531    5.8751   16.3832 H         1 0BI         0.1851
     44 H2         31.2944    6.6678   13.6339 H         1 0BI         0.0606
     45 H3         33.4398    7.2796   14.6589 H         1 0BI         0.0447
     46 H4         32.9626    6.5416   16.2255 H         1 0BI         0.0447
     47 H5         31.7763    7.8167   17.8601 H         1 0BI         0.0478
     48 H6         30.4453   11.8363   16.9493 H         1 0BI         0.0486
     49 H7         31.0934   11.5046   14.5687 H         1 0BI         0.0572
     50 H8         32.0876    9.3444   13.8203 H         1 0BI         0.0464
     51 H9         31.9393    9.6999   20.5145 H         1 0BI         0.0614
     52 H10        31.3283    8.2473   19.6522 H         1 0BI         0.0614
     53 H11        29.7301   10.1304   21.4685 H         1 0BI         0.0292
     54 H12        30.2169    8.4392   21.8286 H         1 0BI         0.0292
     55 H13        28.4365    9.0531   19.4362 H         1 0BI         0.0285
     56 H14        27.7426    8.9410   21.0893 H         1 0BI         0.0285
     57 H15        28.6490    6.6390   21.3418 H         1 0BI         0.0511
     58 H16        29.4291    6.7486   19.7274 H         1 0BI         0.0511
     59 H17        26.5310    6.4414   20.3244 H         1 0BI         0.1753
     60 H18        29.1994    6.6682   17.7304 H         1 0BI         0.0510
     61 H19        26.3476    6.0615   14.5345 H         1 0BI         0.0498
     62 H20        24.9873    6.3066   18.6315 H         1 0BI         0.0487
     63 H21        23.9329    6.3785   15.0470 H         1 0BI         0.0722
     64 H22        23.3647    6.4697   16.7486 H         1 0BI         0.0722
     65 H23        22.7076    3.0255   16.9795 H         1 0BI         0.0526
     66 H24        21.8867    4.6205   16.8865 H         1 0BI         0.0526
     67 H25        23.2301    4.3684   18.0520 H         1 0BI         0.0526
     68 H26        32.3316    4.3015   15.3015 H         1 0BI         0.0672
     69 H27        33.8761    5.3044   13.8524 H         1 0BI         0.2101
     70 H28        30.5957    4.4460   12.7625 H         1 0BI         0.0841
     71 H29        30.1598    3.6958   14.3354 H         1 0BI         0.0841
     72 H30        31.5732    1.9682   13.9518 H         1 0BI         0.1976
     73 H31        32.4719    2.7601   12.8228 H         1 0BI         0.1976
     74 H32        31.5204   -0.0653   12.6961 H         1 0BI         0.0221
     75 H33        30.8603   -0.0188   11.0261 H         1 0BI         0.0221
     76 H34        28.6278    1.0617   11.9387 H         1 0BI         0.0221
     77 H35        29.2879    1.0151   13.6087 H         1 0BI         0.0221
     78 H36        32.8107    2.6626   10.4756 H         1 0BI         0.0779
     79 H37        30.5722    4.5186    7.2774 H         1 0BI         0.0803
     80 H38        28.4468    4.0812    8.5030 H         1 0BI         0.0683
     81 H39        28.5007    2.9308   10.7202 H         1 0BI         0.0802
     82 H40        32.9209    3.9542    6.9824 H         1 0BI         0.0461
     83 H41        34.7243    5.4140    7.9182 H         1 0BI         0.0254
     84 H42        33.9621    5.2684    9.5382 H         1 0BI         0.0254
     85 H43        33.0683    6.0535    8.1924 H         1 0BI         0.0254
     86 H44        33.7623    1.7846    7.8471 H         1 0BI         0.0254
     87 H45        34.5967    2.6591    9.1759 H         1 0BI         0.0254
     88 H46        35.0708    2.9557    7.4688 H         1 0BI         0.0254
@<TRIPOS>BOND
     1    1    2 1  
     2    1   25 am 
     3    2    3 1  
     4    2   27 1  
     5    3    4 1  
     6    4    5 ar 
     7    4    9 ar 
     8    5    6 ar 
     9    6    7 ar 
    10    6   10 1  
    11    7    8 ar 
    12    8    9 ar 
    13   10   11 1  
    14   11   12 1  
    15   12   13 1  
    16   13   14 1  
    17   14   15 1  
    18   15   16 1  
    19   16   17 ar 
    20   16   21 ar 
    21   17   18 ar 
    22   18   19 ar 
    23   18   25 1  
    24   19   20 ar 
    25   20   21 ar 
    26   20   22 1  
    27   22   23 1  
    28   23   24 1  
    29   25   26 2  
    30   27   28 1  
    31   27   29 1  
    32   29   30 1  
    33   30   31 1  
    34   31   32 1  
    35   31   33 1  
    36   31   34 1  
    37   32   33 1  
    38   34   35 ar 
    39   34   39 ar 
    40   35   36 ar 
    41   36   37 ar 
    42   36   40 1  
    43   37   38 ar 
    44   38   39 ar 
    45   40   41 1  
    46   40   42 1  
    47    1   43 1  
    48    2   44 1  
    49    3   45 1  
    50    3   46 1  
    51    5   47 1  
    52    7   48 1  
    53    8   49 1  
    54    9   50 1  
    55   11   51 1  
    56   11   52 1  
    57   12   53 1  
    58   12   54 1  
    59   13   55 1  
    60   13   56 1  
    61   14   57 1  
    62   14   58 1  
    63   15   59 1  
    64   17   60 1  
    65   19   61 1  
    66   21   62 1  
    67   22   63 1  
    68   22   64 1  
    69   24   65 1  
    70   24   66 1  
    71   24   67 1  
    72   27   68 1  
    73   28   69 1  
    74   29   70 1  
    75   29   71 1  
    76   30   72 1  
    77   30   73 1  
    78   32   74 1  
    79   32   75 1  
    80   33   76 1  
    81   33   77 1  
    82   35   78 1  
    83   37   79 1  
    84   38   80 1  
    85   39   81 1  
    86   40   82 1  
    87   41   83 1  
    88   41   84 1  
    89   41   85 1  
    90   42   86 1  
    91   42   87 1  
    92   42   88 1  
@<TRIPOS>SUBSTRUCTURE
     1 0BI         1

