### 
### Created by X-TOOL on Mon Sep 10 21:13:03 2018
### 

@<TRIPOS>MOLECULE
3k5d_ligand
   89    88     1     0     0
SMALL
GAST_HUCK


@<TRIPOS>ATOM
      1 C           3.2040    7.3270   28.8540 C.2       1 XLI         0.1751
      2 O           3.9620    7.4530   29.8440 O.2       1 XLI        -0.3972
      3 CH3         3.8210    7.1200   27.5150 C.3       1 XLI         0.0258
      4 N           1.8540    7.3650   28.9110 N.am      1 XLI        -0.2658
      5 CA          1.1910    7.6010   30.1850 C.3       1 XLI         0.1311
      6 C1          1.0610    6.3140   30.9770 C.2       1 XLI         0.2039
      7 O1          0.8770    5.2740   30.3610 O.2       1 XLI        -0.3944
      8 CB         -0.1120    8.4700   30.1280 C.3       1 XLI        -0.0101
      9 CG         -1.3520    7.8840   29.3890 C.3       1 XLI        -0.0425
     10 CD1        -1.0350    7.6270   27.8940 C.3       1 XLI        -0.0625
     11 CD2        -2.5450    8.8520   29.4920 C.3       1 XLI        -0.0625
     12 N1          1.1600    6.3920   32.3300 N.am      1 XLI        -0.2637
     13 CA1         1.0580    5.2230   33.1830 C.3       1 XLI         0.1316
     14 C2         -0.0620    5.4590   34.1780 C.2       1 XLI         0.2020
     15 O2          0.1940    5.6830   35.3600 O.2       1 XLI        -0.3945
     16 CB1         2.3990    4.8730   33.9040 C.3       1 XLI        -0.0034
     17 CG1         3.4650    4.3590   32.8960 C.3       1 XLI        -0.0024
     18 SD          5.0840    4.3490   33.7130 S.3       1 XLI        -0.1639
     19 CE          5.6870    6.0000   33.2390 C.3       1 XLI        -0.0181
     20 N2         -1.3400    5.4090   33.7120 N.am      1 XLI        -0.2795
     21 CA2        -2.5110    5.6340   34.5730 C.3       1 XLI         0.0683
     22 C3         -3.1970    4.2820   34.9500 C.3       1 XLI         0.0804
     23 O3         -3.9420    3.7700   33.8320 O.3       1 XLI        -0.3894
     24 CB2        -3.4780    6.6650   33.9230 C.3       1 XLI        -0.0251
     25 CG2        -2.8680    8.0660   33.6110 C.3       1 XLI        -0.0446
     26 CD11       -3.9420    8.9100   32.8690 C.3       1 XLI        -0.0626
     27 CD21       -2.4310    8.8390   34.8860 C.3       1 XLI        -0.0626
     28 CM         -2.3250    3.1700   35.6230 C.3       1 XLI        -0.0052
     29 CA3        -3.0600    2.2520   36.6480 C.3       1 XLI         0.0482
     30 CB3        -2.3110    0.8990   36.7820 C.3       1 XLI        -0.0452
     31 C4         -3.1640    2.8470   38.0420 C.2       1 XLI         0.1789
     32 O4         -2.3070    3.6260   38.4360 O.2       1 XLI        -0.3968
     33 C11        -4.4570    2.9680   40.1460 C.3       1 XLI         0.0309
     34 N3         -4.2310    2.4700   38.7950 N.am      1 XLI        -0.2867
     35 C21        -5.8970    2.6680   40.6250 C.3       1 XLI        -0.0330
     36 C31        -6.0620    2.8680   42.1560 C.3       1 XLI        -0.0541
     37 C41        -6.0320    4.3670   42.5490 C.3       1 XLI        -0.0652
     38 H           4.4584    7.9709   27.2746 H         1 XLI         0.0467
     39 H           4.4191    6.2089   27.5289 H         1 XLI         0.0467
     40 H           3.0357    7.0292   26.7646 H         1 XLI         0.0467
     41 H           1.3019    7.2288   28.0642 H         1 XLI         0.1882
     42 H           1.8557    8.2580   30.7460 H         1 XLI         0.0800
     43 H           0.1617    9.3642   29.5681 H         1 XLI         0.0315
     44 H          -0.4244    8.5902   31.1653 H         1 XLI         0.0315
     45 H          -1.6065    6.9378   29.8666 H         1 XLI         0.0298
     46 H          -0.7536    8.5658   27.4170 H         1 XLI         0.0232
     47 H          -0.2118    6.9169   27.8153 H         1 XLI         0.0232
     48 H          -1.9175    7.2181   27.4019 H         1 XLI         0.0232
     49 H          -2.7965    9.0064   30.5413 H         1 XLI         0.0232
     50 H          -2.2777    9.8057   29.0370 H         1 XLI         0.0232
     51 H          -3.4024    8.4267   28.9703 H         1 XLI         0.0232
     52 H           1.3113    7.3041   32.7608 H         1 XLI         0.1883
     53 H           0.8345    4.3565   32.5607 H         1 XLI         0.0800
     54 H           2.2053    4.0877   34.6347 H         1 XLI         0.0320
     55 H           2.7808    5.7745   34.3831 H         1 XLI         0.0320
     56 H           3.4949    5.0128   32.0243 H         1 XLI         0.0378
     57 H           3.2094    3.3508   32.5698 H         1 XLI         0.0378
     58 H           5.7390    6.0683   32.1524 H         1 XLI         0.0340
     59 H           5.0028    6.7584   33.6196 H         1 XLI         0.0340
     60 H           6.6789    6.1584   33.6622 H         1 XLI         0.0340
     61 H          -1.4920    5.2069   32.7238 H         1 XLI         0.1855
     62 H          -2.1839    6.0739   35.5151 H         1 XLI         0.0582
     63 H          -3.8610    4.5614   35.7680 H         1 XLI         0.0618
     64 H          -4.3572    2.9403   34.0786 H         1 XLI         0.2099
     65 H          -4.2790    6.8318   34.6432 H         1 XLI         0.0291
     66 H          -3.7808    6.2413   32.9655 H         1 XLI         0.0291
     67 H          -1.9756    7.9076   33.0055 H         1 XLI         0.0296
     68 H          -4.2207    8.4077   31.9426 H         1 XLI         0.0232
     69 H          -4.8211    9.0169   33.5045 H         1 XLI         0.0232
     70 H          -3.5346    9.8951   32.6414 H         1 XLI         0.0232
     71 H          -3.2961    8.9914   35.5313 H         1 XLI         0.0232
     72 H          -1.6760    8.2610   35.4189 H         1 XLI         0.0232
     73 H          -2.0154    9.8050   34.5991 H         1 XLI         0.0232
     74 H          -1.5448    3.6882   36.1805 H         1 XLI         0.0318
     75 H          -1.9844    2.5188   34.8180 H         1 XLI         0.0318
     76 H          -4.0683    2.1284   36.2529 H         1 XLI         0.0536
     77 H          -2.2827    0.4032   35.8117 H         1 XLI         0.0257
     78 H          -1.2936    1.0811   37.1282 H         1 XLI         0.0257
     79 H          -2.8326    0.2660   37.4999 H         1 XLI         0.0257
     80 H          -4.3104    4.0481   40.1457 H         1 XLI         0.0520
     81 H          -3.7580    2.4717   40.8192 H         1 XLI         0.0520
     82 H          -4.9012    1.8114   38.3982 H         1 XLI         0.1851
     83 H          -6.1203    1.6265   40.3939 H         1 XLI         0.0285
     84 H          -6.5725    3.3578   40.1190 H         1 XLI         0.0285
     85 H          -5.2344    2.3663   42.6576 H         1 XLI         0.0263
     86 H          -7.0265    2.4559   42.4527 H         1 XLI         0.0263
     87 H          -5.0786    4.8012   42.2480 H         1 XLI         0.0230
     88 H          -6.8457    4.8895   42.0460 H         1 XLI         0.0230
     89 H          -6.1507    4.4607   43.6285 H         1 XLI         0.0230
@<TRIPOS>BOND
     1    1    2 2  
     2    1    3 1  
     3    1    4 am 
     4    4    5 1  
     5    5    6 1  
     6    5    8 1  
     7    6    7 2  
     8    6   12 am 
     9    8    9 1  
    10    9   10 1  
    11    9   11 1  
    12   12   13 1  
    13   13   14 1  
    14   13   16 1  
    15   14   15 2  
    16   14   20 am 
    17   16   17 1  
    18   17   18 1  
    19   18   19 1  
    20   20   21 1  
    21   21   22 1  
    22   21   24 1  
    23   22   23 1  
    24   22   28 1  
    25   24   25 1  
    26   25   26 1  
    27   25   27 1  
    28   28   29 1  
    29   29   30 1  
    30   29   31 1  
    31   31   32 2  
    32   31   34 am 
    33   34   33 1  
    34   33   35 1  
    35   35   36 1  
    36   36   37 1  
    37    3   38 1  
    38    3   39 1  
    39    3   40 1  
    40    4   41 1  
    41    5   42 1  
    42    8   43 1  
    43    8   44 1  
    44    9   45 1  
    45   10   46 1  
    46   10   47 1  
    47   10   48 1  
    48   11   49 1  
    49   11   50 1  
    50   11   51 1  
    51   12   52 1  
    52   13   53 1  
    53   16   54 1  
    54   16   55 1  
    55   17   56 1  
    56   17   57 1  
    57   19   58 1  
    58   19   59 1  
    59   19   60 1  
    60   20   61 1  
    61   21   62 1  
    62   22   63 1  
    63   23   64 1  
    64   24   65 1  
    65   24   66 1  
    66   25   67 1  
    67   26   68 1  
    68   26   69 1  
    69   26   70 1  
    70   27   71 1  
    71   27   72 1  
    72   27   73 1  
    73   28   74 1  
    74   28   75 1  
    75   29   76 1  
    76   30   77 1  
    77   30   78 1  
    78   30   79 1  
    79   33   80 1  
    80   33   81 1  
    81   34   82 1  
    82   35   83 1  
    83   35   84 1  
    84   36   85 1  
    85   36   86 1  
    86   37   87 1  
    87   37   88 1  
    88   37   89 1  
@<TRIPOS>SUBSTRUCTURE
     1 XLI         1

