### 
### Created by X-TOOL on Mon Sep 10 21:13:04 2018
### 

@<TRIPOS>MOLECULE
3k5f_ligand
   83    84     1     0     0
SMALL
GAST_HUCK


@<TRIPOS>ATOM
      1 N1          5.3980   12.3450   27.3600 N.am      1 AYH        -0.2792
      2 C3          4.4390   13.4230   27.5040 C.3       1 AYH         0.0774
      3 C5          4.9510   14.8010   27.0400 C.3       1 AYH         0.0822
      4 O7          5.9910   15.2350   27.9560 O.3       1 AYH        -0.3892
      5 C9          5.5030   14.7330   25.6000 C.3       1 AYH        -0.0050
      6 C12         5.4720   16.1790   25.0290 C.3       1 AYH         0.0482
      7 C14         6.4290   16.3060   23.8230 C.3       1 AYH        -0.0452
      8 C18         4.0800   16.5060   24.5070 C.2       1 AYH         0.1789
      9 O19         3.3990   15.6480   23.9640 O.2       1 AYH        -0.3968
     10 N20         3.6610   17.7610   24.6840 N.am      1 AYH        -0.2867
     11 C22         2.3260   18.1390   24.1970 C.3       1 AYH         0.0309
     12 C25         1.9920   19.5650   24.6590 C.3       1 AYH        -0.0330
     13 C28         0.8220   20.1520   23.8200 C.3       1 AYH        -0.0541
     14 C31        -0.5160   19.4390   24.1580 C.3       1 AYH        -0.0652
     15 C35         3.9200   13.5130   28.9450 C.3       1 AYH         0.0064
     16 C38         3.4990   12.1220   29.4440 C.ar      1 AYH        -0.0408
     17 C39         2.5630   11.3550   28.7230 C.ar      1 AYH        -0.0603
     18 C41         2.1950   10.0720   29.1780 C.ar      1 AYH        -0.0686
     19 C43         2.7570    9.5620   30.3670 C.ar      1 AYH        -0.0687
     20 C45         3.6810   10.3360   31.0900 C.ar      1 AYH        -0.0686
     21 C47         4.0530   11.6070   30.6260 C.ar      1 AYH        -0.0603
     22 C49         5.2480   11.5000   26.3220 C.2       1 AYH         0.1795
     23 O50         4.3640   11.6110   25.4850 O.2       1 AYH        -0.3968
     24 C51         6.2560   10.3740   26.2340 C.3       1 AYH         0.0490
     25 C53         5.9140    9.3680   27.3790 C.3       1 AYH        -0.0281
     26 C56         6.8850    8.1560   27.3990 C.3       1 AYH        -0.0133
     27 C58         6.9590    7.4770   25.9830 C.3       1 AYH        -0.0476
     28 C61         7.3610    8.5040   24.8940 C.3       1 AYH        -0.0504
     29 C64         6.2940    9.6490   24.8550 C.3       1 AYH        -0.0332
     30 C67         6.4440    7.1220   28.5230 C.3       1 AYH         0.0503
     31 N68         6.3920    7.8410   29.8130 N.am      1 AYH        -0.2814
     32 C70         7.5030    8.4410   30.2950 C.2       1 AYH         0.1734
     33 O71         8.5850    8.3920   29.7250 O.2       1 AYH        -0.3974
     34 C72         7.3570    9.2020   31.5980 C.3       1 AYH         0.0257
     35 C76         5.0450    6.5250   28.2770 C.3       1 AYH        -0.0391
     36 C80         7.4340    5.9340   28.5790 C.3       1 AYH        -0.0391
     37 H1          6.1481   12.2324   28.0117 H         1 AYH         0.1857
     38 H2          3.5835   13.1694   26.8608 H         1 AYH         0.0604
     39 H3          4.1201   15.5213   27.0662 H         1 AYH         0.0619
     40 H4          5.6321   15.2993   28.8333 H         1 AYH         0.2099
     41 H5          4.8744   14.0714   24.9859 H         1 AYH         0.0318
     42 H6          6.5353   14.3532   25.6093 H         1 AYH         0.0318
     43 H7          5.7595   16.8898   25.8177 H         1 AYH         0.0536
     44 H8          6.3934   17.3341   23.4334 H         1 AYH         0.0257
     45 H9          6.1202   15.6041   23.0343 H         1 AYH         0.0257
     46 H10         7.4548   16.0703   24.1425 H         1 AYH         0.0257
     47 H11         4.2450   18.4326   25.1400 H         1 AYH         0.1851
     48 H12         1.5783   17.4397   24.5993 H         1 AYH         0.0520
     49 H13         2.3124   18.0980   23.0979 H         1 AYH         0.0520
     50 H14         2.8802   20.2022   24.5361 H         1 AYH         0.0285
     51 H15         1.7006   19.5426   25.7195 H         1 AYH         0.0285
     52 H16         1.0421   20.0162   22.7509 H         1 AYH         0.0263
     53 H17         0.7237   21.2251   24.0407 H         1 AYH         0.0263
     54 H18        -1.3255   19.8722   23.5522 H         1 AYH         0.0230
     55 H19        -0.7442   19.5745   25.2255 H         1 AYH         0.0230
     56 H20        -0.4258   18.3655   23.9356 H         1 AYH         0.0230
     57 H21         3.0526   14.1887   28.9775 H         1 AYH         0.0449
     58 H22         4.7160   13.9065   29.5942 H         1 AYH         0.0449
     59 H23         2.1240   11.7525   27.8151 H         1 AYH         0.0557
     60 H24         1.4824    9.4795   28.6157 H         1 AYH         0.0599
     61 H25         2.4773    8.5767   30.7219 H         1 AYH         0.0559
     62 H26         4.1075    9.9499   32.0088 H         1 AYH         0.0599
     63 H27         4.7728   12.1947   31.1841 H         1 AYH         0.0557
     64 H28         7.2567   10.7936   26.4140 H         1 AYH         0.0538
     65 H29         4.8883    8.9987   27.2324 H         1 AYH         0.0296
     66 H30         5.9807    9.8922   28.3438 H         1 AYH         0.0296
     67 H31         7.8904    8.5246   27.6505 H         1 AYH         0.0327
     68 H32         5.9737    7.0561   25.7341 H         1 AYH         0.0269
     69 H33         7.7062    6.6702   26.0097 H         1 AYH         0.0269
     70 H34         7.4030    8.0055   23.9144 H         1 AYH         0.0267
     71 H35         8.3478    8.9274   25.1326 H         1 AYH         0.0267
     72 H36         6.5601   10.3709   24.0689 H         1 AYH         0.0292
     73 H37         5.3043    9.2201   24.6393 H         1 AYH         0.0292
     74 H38         5.5362    7.8835   30.3285 H         1 AYH         0.1857
     75 H39         8.3268    9.6392   31.8779 H         1 AYH         0.0467
     76 H40         7.0229    8.5143   32.3888 H         1 AYH         0.0467
     77 H41         6.6155   10.0047   31.4727 H         1 AYH         0.0467
     78 H42         4.7996    5.8207   29.0855 H         1 AYH         0.0255
     79 H43         5.0370    5.9943   27.3135 H         1 AYH         0.0255
     80 H44         4.2997    7.3337   28.2564 H         1 AYH         0.0255
     81 H45         7.1159    5.2282   29.3604 H         1 AYH         0.0255
     82 H46         8.4423    6.3075   28.8108 H         1 AYH         0.0255
     83 H47         7.4475    5.4217   27.6057 H         1 AYH         0.0255
@<TRIPOS>BOND
     1    1    2 1  
     2    1   22 am 
     3    2    3 1  
     4    2   15 1  
     5    3    4 1  
     6    3    5 1  
     7    5    6 1  
     8    6    7 1  
     9    6    8 1  
    10    8    9 2  
    11    8   10 am 
    12   10   11 1  
    13   11   12 1  
    14   12   13 1  
    15   13   14 1  
    16   15   16 1  
    17   16   17 ar 
    18   16   21 ar 
    19   17   18 ar 
    20   18   19 ar 
    21   19   20 ar 
    22   20   21 ar 
    23   22   23 2  
    24   22   24 1  
    25   24   25 1  
    26   24   29 1  
    27   25   26 1  
    28   26   27 1  
    29   26   30 1  
    30   27   28 1  
    31   28   29 1  
    32   30   31 1  
    33   30   35 1  
    34   30   36 1  
    35   31   32 am 
    36   32   33 2  
    37   32   34 1  
    38    1   37 1  
    39    2   38 1  
    40    3   39 1  
    41    4   40 1  
    42    5   41 1  
    43    5   42 1  
    44    6   43 1  
    45    7   44 1  
    46    7   45 1  
    47    7   46 1  
    48   10   47 1  
    49   11   48 1  
    50   11   49 1  
    51   12   50 1  
    52   12   51 1  
    53   13   52 1  
    54   13   53 1  
    55   14   54 1  
    56   14   55 1  
    57   14   56 1  
    58   15   57 1  
    59   15   58 1  
    60   17   59 1  
    61   18   60 1  
    62   19   61 1  
    63   20   62 1  
    64   21   63 1  
    65   24   64 1  
    66   25   65 1  
    67   25   66 1  
    68   26   67 1  
    69   27   68 1  
    70   27   69 1  
    71   28   70 1  
    72   28   71 1  
    73   29   72 1  
    74   29   73 1  
    75   31   74 1  
    76   34   75 1  
    77   34   76 1  
    78   34   77 1  
    79   35   78 1  
    80   35   79 1  
    81   35   80 1  
    82   36   81 1  
    83   36   82 1  
    84   36   83 1  
@<TRIPOS>SUBSTRUCTURE
     1 AYH         1

