### 
### Created by X-TOOL on Mon Sep 10 21:13:03 2018
### 

@<TRIPOS>MOLECULE
3k5g_ligand
   93    96     1     0     0
SMALL
GAST_HUCK


@<TRIPOS>ATOM
      1 N1         27.6370    8.2520   19.5530 N.am      1 BJC        -0.2674
      2 C2         28.5930    9.3660   19.2720 C.3       1 BJC         0.0346
      3 C5         29.7890    9.5810   20.2450 C.3       1 BJC        -0.0304
      4 C8         30.4600    8.2180   20.5230 C.3       1 BJC        -0.0342
      5 C11        29.4070    7.2850   21.1720 C.3       1 BJC         0.0375
      6 C14        28.0530    7.2720   20.4590 C.2       1 BJC         0.1789
      7 O15        27.3750    6.3040   20.7620 O.2       1 BJC        -0.3969
      8 C16        26.2700    8.1580   18.8900 C.3       1 BJC         0.0533
      9 C17        26.2680    6.8450   17.9980 C.3       1 BJC        -0.0131
     10 C19        27.4310    6.8230   16.9450 C.3       1 BJC        -0.0280
     11 C22        27.5270    5.5230   16.1050 C.3       1 BJC         0.0490
     12 C24        26.1260    5.1630   15.4930 C.3       1 BJC        -0.0332
     13 C27        25.0420    5.0610   16.6010 C.3       1 BJC        -0.0504
     14 C30        24.9010    6.4230   17.3500 C.3       1 BJC        -0.0476
     15 C33        28.6210    5.7200   15.0800 C.2       1 BJC         0.1795
     16 O34        28.3560    5.9510   13.9040 O.2       1 BJC        -0.3968
     17 N35        29.9080    5.6310   15.5430 N.am      1 BJC        -0.2790
     18 C37        31.1040    5.7940   14.7090 C.3       1 BJC         0.0823
     19 C39        31.7840    4.4230   14.4310 C.3       1 BJC         0.1193
     20 O41        32.9750    4.5940   13.6490 O.3       1 BJC        -0.3841
     21 C43        30.8440    3.4930   13.6170 C.3       1 BJC        -0.0033
     22 N46        31.5050    2.2430   13.1800 N.4       1 BJC         0.2409
     23 C48        30.7800    1.4800   12.1190 C.3       1 BJC        -0.0014
     24 C51        30.7080    2.2840   10.7970 C.ar      1 BJC        -0.0054
     25 C52        31.8860    2.7240   10.1500 C.ar      1 BJC        -0.0539
     26 C54        31.8370    3.4630    8.9350 C.ar      1 BJC        -0.0471
     27 C55        30.5690    3.7540    8.3730 C.ar      1 BJC        -0.0670
     28 C57        29.3790    3.3170    9.0130 C.ar      1 BJC        -0.0750
     29 C59        29.4450    2.5830   10.2200 C.ar      1 BJC        -0.0622
     30 C61        33.1400    3.9240    8.2400 C.3       1 BJC        -0.0146
     31 C63        33.6320    5.2620    8.8310 C.3       1 BJC        -0.0529
     32 C67        34.2950    2.8890    8.2110 C.3       1 BJC        -0.0529
     33 C71        32.0740    6.7870   15.4350 C.3       1 BJC         0.0066
     34 C74        31.5320    8.1840   15.7920 C.ar      1 BJC        -0.0408
     35 C75        30.4350    8.7880   15.1050 C.ar      1 BJC        -0.0603
     36 C77        29.9820   10.0820   15.4740 C.ar      1 BJC        -0.0686
     37 C79        30.6180   10.7780   16.5280 C.ar      1 BJC        -0.0687
     38 C81        31.7090   10.1870   17.2170 C.ar      1 BJC        -0.0686
     39 C83        32.1590    8.8950   16.8490 C.ar      1 BJC        -0.0603
     40 C85        25.9590    9.4170   17.9870 C.3       1 BJC        -0.0389
     41 C89        25.0780    8.2000   19.9150 C.3       1 BJC        -0.0389
     42 H1         28.0106   10.2991   19.2621 H         1 BJC         0.0522
     43 H2         29.0157    9.1869   18.2724 H         1 BJC         0.0522
     44 H3         29.4241   10.0121   21.1889 H         1 BJC         0.0286
     45 H4         30.5188   10.2651   19.7874 H         1 BJC         0.0286
     46 H5         31.3099    8.3539   21.2079 H         1 BJC         0.0290
     47 H6         30.8160    7.7786   19.5795 H         1 BJC         0.0290
     48 H7         29.2471    7.6147   22.2091 H         1 BJC         0.0502
     49 H8         29.8070    6.2603   21.1705 H         1 BJC         0.0502
     50 H9         26.4997    6.0357   18.7060 H         1 BJC         0.0327
     51 H10        28.3816    6.9530   17.4830 H         1 BJC         0.0296
     52 H11        27.2824    7.6659   16.2541 H         1 BJC         0.0296
     53 H12        27.8232    4.6943   16.7650 H         1 BJC         0.0538
     54 H13        26.1990    4.1971   14.9717 H         1 BJC         0.0292
     55 H14        25.8350    5.9453   14.7766 H         1 BJC         0.0292
     56 H15        25.3306    4.2801   17.3199 H         1 BJC         0.0267
     57 H16        24.0776    4.7983   16.1417 H         1 BJC         0.0267
     58 H17        24.5862    7.1973   16.6349 H         1 BJC         0.0269
     59 H18        24.1424    6.3235   18.1403 H         1 BJC         0.0269
     60 H19        30.0409    5.4420   16.5159 H         1 BJC         0.1857
     61 H20        30.8079    6.2315   13.7442 H         1 BJC         0.0606
     62 H21        32.0350    3.9484   15.3911 H         1 BJC         0.0672
     63 H22        33.5851    5.1490   14.1205 H         1 BJC         0.2101
     64 H23        30.4984    4.0370   12.7256 H         1 BJC         0.0840
     65 H24        29.9796    3.2315   14.2450 H         1 BJC         0.0840
     66 H25        31.6023    1.6435   13.9844 H         1 BJC         0.2029
     67 H26        32.4182    2.4802   12.8252 H         1 BJC         0.2029
     68 H27        29.7578    1.2678   12.4654 H         1 BJC         0.0979
     69 H28        31.3085    0.5331   11.9341 H         1 BJC         0.0979
     70 H29        32.8493    2.4928   10.5901 H         1 BJC         0.0496
     71 H30        30.5070    4.3146    7.4473 H         1 BJC         0.0500
     72 H31        28.4150    3.5473    8.5740 H         1 BJC         0.0582
     73 H32        28.5340    2.2494   10.7036 H         1 BJC         0.0501
     74 H33        32.8734    4.1128    7.1896 H         1 BJC         0.0455
     75 H34        34.5577    5.5692    8.3223 H         1 BJC         0.0254
     76 H35        33.8284    5.1378    9.9062 H         1 BJC         0.0254
     77 H36        32.8607    6.0327    8.6857 H         1 BJC         0.0254
     78 H37        33.9284    1.9422    7.7877 H         1 BJC         0.0254
     79 H38        34.6585    2.7164    9.2347 H         1 BJC         0.0254
     80 H39        35.1171    3.2743    7.5900 H         1 BJC         0.0254
     81 H40        32.9471    6.9304   14.7815 H         1 BJC         0.0449
     82 H41        32.3926    6.3086   16.3729 H         1 BJC         0.0449
     83 H42        29.9457    8.2555   14.2975 H         1 BJC         0.0557
     84 H43        29.1496   10.5359   14.9484 H         1 BJC         0.0599
     85 H44        30.2713   11.7655   16.8104 H         1 BJC         0.0559
     86 H45        32.1969   10.7230   18.0231 H         1 BJC         0.0599
     87 H46        32.9902    8.4449   17.3796 H         1 BJC         0.0557
     88 H47        24.9645    9.3043   17.5307 H         1 BJC         0.0255
     89 H48        26.7186    9.4972   17.1954 H         1 BJC         0.0255
     90 H49        25.9773   10.3259   18.6062 H         1 BJC         0.0255
     91 H50        24.1244    8.1282   19.3715 H         1 BJC         0.0255
     92 H51        25.1099    9.1456   20.4760 H         1 BJC         0.0255
     93 H52        25.1659    7.3556   20.6144 H         1 BJC         0.0255
@<TRIPOS>BOND
     1    1    2 1  
     2    1    6 am 
     3    1    8 1  
     4    2    3 1  
     5    3    4 1  
     6    4    5 1  
     7    5    6 1  
     8    6    7 2  
     9    8    9 1  
    10    8   40 1  
    11    8   41 1  
    12    9   10 1  
    13    9   14 1  
    14   10   11 1  
    15   11   12 1  
    16   11   15 1  
    17   12   13 1  
    18   13   14 1  
    19   15   16 2  
    20   15   17 am 
    21   17   18 1  
    22   18   19 1  
    23   18   33 1  
    24   19   20 1  
    25   19   21 1  
    26   21   22 1  
    27   22   23 1  
    28   23   24 1  
    29   24   25 ar 
    30   24   29 ar 
    31   25   26 ar 
    32   26   27 ar 
    33   26   30 1  
    34   27   28 ar 
    35   28   29 ar 
    36   30   31 1  
    37   30   32 1  
    38   33   34 1  
    39   34   35 ar 
    40   34   39 ar 
    41   35   36 ar 
    42   36   37 ar 
    43   37   38 ar 
    44   38   39 ar 
    45    2   42 1  
    46    2   43 1  
    47    3   44 1  
    48    3   45 1  
    49    4   46 1  
    50    4   47 1  
    51    5   48 1  
    52    5   49 1  
    53    9   50 1  
    54   10   51 1  
    55   10   52 1  
    56   11   53 1  
    57   12   54 1  
    58   12   55 1  
    59   13   56 1  
    60   13   57 1  
    61   14   58 1  
    62   14   59 1  
    63   17   60 1  
    64   18   61 1  
    65   19   62 1  
    66   20   63 1  
    67   21   64 1  
    68   21   65 1  
    69   22   66 1  
    70   22   67 1  
    71   23   68 1  
    72   23   69 1  
    73   25   70 1  
    74   27   71 1  
    75   28   72 1  
    76   29   73 1  
    77   30   74 1  
    78   31   75 1  
    79   31   76 1  
    80   31   77 1  
    81   32   78 1  
    82   32   79 1  
    83   32   80 1  
    84   33   81 1  
    85   33   82 1  
    86   35   83 1  
    87   36   84 1  
    88   37   85 1  
    89   38   86 1  
    90   39   87 1  
    91   40   88 1  
    92   40   89 1  
    93   40   90 1  
    94   41   91 1  
    95   41   92 1  
    96   41   93 1  
@<TRIPOS>SUBSTRUCTURE
     1 BJC         1

