### 
### Created by X-TOOL on Mon Sep 10 21:13:04 2018
### 

@<TRIPOS>MOLECULE
3k5u_ligand
   42    45     1     0     0
SMALL
GAST_HUCK


@<TRIPOS>ATOM
      1 C2         -4.4370  -30.5870    9.6760 C.ar      1 PFQ         0.0554
      2 C10        -3.4870  -32.0960    5.5850 C.2       1 PFQ         0.1438
      3 C11        -2.8700  -32.8540    4.6080 C.ar      1 PFQ         0.0192
      4 C12        -2.7970  -32.5120    3.2670 C.ar      1 PFQ        -0.0510
      5 C13        -2.0850  -33.3120    2.3840 C.ar      1 PFQ        -0.0615
      6 C14        -1.5640  -34.5360    2.8100 C.ar      1 PFQ        -0.0622
      7 C15        -1.4940  -34.8140    4.1790 C.ar      1 PFQ        -0.0615
      8 C16        -2.2470  -34.0300    5.0540 C.ar      1 PFQ        -0.0510
      9 C19        -4.7640  -28.9360    4.4230 C.ar      1 PFQ        -0.0609
     10 C20        -5.4030  -28.2510    3.4060 C.ar      1 PFQ        -0.0660
     11 C21        -6.1070  -28.9490    2.4200 C.ar      1 PFQ        -0.0660
     12 C22        -6.0620  -30.3430    2.4350 C.ar      1 PFQ        -0.0660
     13 N1         -3.8240  -31.5750    9.0540 N.ar      1 PFQ        -0.2620
     14 C6         -3.8210  -31.6010    7.7190 C.ar      1 PFQ         0.2013
     15 O6         -3.1970  -32.4680    6.8720 O.3       1 PFQ        -0.2284
     16 C5         -4.5200  -30.6580    6.9630 C.ar      1 PFQ         0.0757
     17 N9         -5.9870  -28.7640    7.0820 N.pl3     1 PFQ        -0.2984
     18 C4         -5.2200  -29.6860    7.6640 C.ar      1 PFQ         0.1260
     19 N3         -5.1140  -29.6700    9.0090 N.ar      1 PFQ        -0.2686
     20 C17        -5.6490  -30.9990    3.6130 C.ar      1 PFQ        -0.0609
     21 C1         -4.3130  -30.9980    5.6250 C.2       1 PFQ         0.0223
     22 C18        -4.8980  -30.3180    4.5670 C.ar      1 PFQ        -0.0309
     23 C23        -8.0290  -28.3500    8.4710 C.3       1 PFQ         0.0648
     24 C8         -6.7290  -27.7610    7.8700 C.3       1 PFQ         0.0533
     25 O24        -8.7000  -27.3760    9.2920 O.3       1 PFQ        -0.3930
     26 H1         -4.3842  -30.5262   10.7570 H         1 PFQ         0.1000
     27 H2         -3.2961  -31.6194    2.9075 H         1 PFQ         0.0623
     28 H3         -1.9329  -32.9861    1.3614 H         1 PFQ         0.0616
     29 H4         -1.2169  -35.2642    2.0859 H         1 PFQ         0.0614
     30 H5         -0.8702  -35.6186    4.5511 H         1 PFQ         0.0616
     31 H6         -2.3519  -34.3326    6.0896 H         1 PFQ         0.0623
     32 H7         -4.1452  -28.3877    5.1241 H         1 PFQ         0.0583
     33 H8         -5.3580  -27.1684    3.3730 H         1 PFQ         0.0606
     34 H9         -6.6738  -28.4198    1.6626 H         1 PFQ         0.0581
     35 H10        -6.3399  -30.9127    1.5556 H         1 PFQ         0.0606
     36 H11        -6.0637  -28.7514    6.0549 H         1 PFQ         0.1865
     37 H12        -5.9171  -32.0366    3.7761 H         1 PFQ         0.0583
     38 H13        -7.7772  -29.2272    9.0851 H         1 PFQ         0.0578
     39 H14        -8.6985  -28.6549    7.6532 H         1 PFQ         0.0578
     40 H15        -6.9900  -26.9161    7.2158 H         1 PFQ         0.0549
     41 H16        -6.0869  -27.4057    8.6894 H         1 PFQ         0.0549
     42 H17        -8.9221  -26.6178    8.7644 H         1 PFQ         0.2095
@<TRIPOS>BOND
     1   13    1 ar 
     2   19    1 ar 
     3    2    3 1  
     4    2   15 1  
     5   21    2 2  
     6    3    4 ar 
     7    3    8 ar 
     8    4    5 ar 
     9    5    6 ar 
    10    7    6 ar 
    11    8    7 ar 
    12    9   10 ar 
    13   22    9 ar 
    14   10   11 ar 
    15   12   11 ar 
    16   20   12 ar 
    17   14   13 ar 
    18   14   15 1  
    19   16   14 ar 
    20   16   18 ar 
    21   21   16 1  
    22   18   17 1  
    23   17   24 1  
    24   18   19 ar 
    25   22   20 ar 
    26   21   22 1  
    27   24   23 1  
    28   23   25 1  
    29    1   26 1  
    30    4   27 1  
    31    5   28 1  
    32    6   29 1  
    33    7   30 1  
    34    8   31 1  
    35    9   32 1  
    36   10   33 1  
    37   11   34 1  
    38   12   35 1  
    39   17   36 1  
    40   20   37 1  
    41   23   38 1  
    42   23   39 1  
    43   24   40 1  
    44   24   41 1  
    45   25   42 1  
@<TRIPOS>SUBSTRUCTURE
     1 PFQ         1

