### 
### Created by X-TOOL on Mon Sep 10 21:13:03 2018
### 

@<TRIPOS>MOLECULE
3k5v_ligand
   40    42     1     0     0
SMALL
GAST_HUCK


@<TRIPOS>ATOM
      1 F1         16.7690   38.2120   48.9130 F         1 STJ        -0.1403
      2 C2         17.3270   38.7500   50.0250 C.3       1 STJ         0.5443
      3 F3         16.5120   38.6120   51.1080 F         1 STJ        -0.1403
      4 F4         18.5320   38.1730   50.2750 F         1 STJ        -0.1403
      5 O5         17.5150   40.1250   49.7490 O.3       1 STJ        -0.2334
      6 C6         18.0890   40.9540   50.7170 C.ar      1 STJ         0.0890
      7 C7         19.4740   41.2320   50.7140 C.ar      1 STJ        -0.0416
      8 C9         20.0180   42.0800   51.6830 C.ar      1 STJ        -0.0462
      9 C11        19.2070   42.6490   52.6690 C.ar      1 STJ         0.0536
     10 C12        17.8240   42.3790   52.6550 C.ar      1 STJ        -0.0462
     11 C14        17.2730   41.5340   51.6840 C.ar      1 STJ        -0.0416
     12 N16        19.6440   43.4880   53.6350 N.pl3     1 STJ        -0.2596
     13 C18        20.9160   43.8190   53.9800 C.ar      1 STJ         0.1450
     14 N19        22.0110   43.3680   53.3070 N.ar      1 STJ        -0.2510
     15 C20        23.2650   43.7190   53.6850 C.ar      1 STJ         0.0700
     16 N22        23.4470   44.5390   54.7480 N.ar      1 STJ        -0.2790
     17 C23        22.3930   45.0220   55.4550 C.ar      1 STJ         0.0556
     18 C24        21.0870   44.6670   55.0730 C.ar      1 STJ         0.0164
     19 C26        22.6470   45.9230   56.6020 C.ar      1 STJ         0.0087
     20 C27        23.8620   46.6160   56.6180 C.ar      1 STJ        -0.0286
     21 C29        24.1870   47.4950   57.6510 C.ar      1 STJ         0.0537
     22 C30        23.2770   47.6830   58.7090 C.ar      1 STJ        -0.0390
     23 C32        22.0520   46.9900   58.7050 C.ar      1 STJ        -0.0524
     24 C34        21.7330   46.1090   57.6520 C.ar      1 STJ        -0.0444
     25 C36        25.5380   48.1710   57.5250 C.2       1 STJ         0.2033
     26 O37        25.6350   49.0640   56.6990 O.2       1 STJ        -0.3848
     27 N38        26.6090   47.7820   58.2540 N.am      1 STJ        -0.3000
     28 H1         20.1146   40.7880   49.9607 H         1 STJ         0.0516
     29 H2         21.0797   42.2986   51.6696 H         1 STJ         0.0512
     30 H3         17.1811   42.8295   53.4025 H         1 STJ         0.0512
     31 H4         16.2082   41.3310   51.6854 H         1 STJ         0.0516
     32 H5         18.9051   43.9425   54.1903 H         1 STJ         0.2132
     33 H6         24.1216   43.3436   53.1369 H         1 STJ         0.1079
     34 H7         20.2298   45.0455   55.6180 H         1 STJ         0.0681
     35 H8         24.5674   46.4664   55.8087 H         1 STJ         0.0707
     36 H9         23.5187   48.3578   59.5222 H         1 STJ         0.0693
     37 H10        21.3490   47.1348   59.5173 H         1 STJ         0.0637
     38 H11        20.7879   45.5782   57.6526 H         1 STJ         0.0687
     39 H12        27.4853   48.2512   58.1447 H         1 STJ         0.1808
     40 H13        26.5244   47.0252   58.9022 H         1 STJ         0.1808
@<TRIPOS>BOND
     1    1    2 1  
     2    2    3 1  
     3    2    4 1  
     4    2    5 1  
     5    5    6 1  
     6    6    7 ar 
     7    6   11 ar 
     8    7    8 ar 
     9    8    9 ar 
    10    9   10 ar 
    11    9   12 1  
    12   10   11 ar 
    13   12   13 1  
    14   13   14 ar 
    15   13   18 ar 
    16   14   15 ar 
    17   15   16 ar 
    18   16   17 ar 
    19   17   18 ar 
    20   17   19 1  
    21   19   20 ar 
    22   19   24 ar 
    23   20   21 ar 
    24   21   22 ar 
    25   21   25 1  
    26   22   23 ar 
    27   23   24 ar 
    28   25   26 2  
    29   25   27 am 
    30    7   28 1  
    31    8   29 1  
    32   10   30 1  
    33   11   31 1  
    34   12   32 1  
    35   15   33 1  
    36   18   34 1  
    37   20   35 1  
    38   22   36 1  
    39   23   37 1  
    40   24   38 1  
    41   27   39 1  
    42   27   40 1  
@<TRIPOS>SUBSTRUCTURE
     1 STJ         1

