### 
### Created by X-TOOL on Mon Sep 10 21:12:59 2018
### 

@<TRIPOS>MOLECULE
3k7f_ligand
   51    53     1     0     0
SMALL
GAST_HUCK


@<TRIPOS>ATOM
      1 C1        -44.9300   46.9130    7.4350 C.ar      1 F2C        -0.0686
      2 C2        -44.4330   45.6170    7.3080 C.ar      1 F2C        -0.0603
      3 C3        -44.4250   44.7690    8.4130 C.ar      1 F2C        -0.0430
      4 C4        -44.9310   45.2130    9.6360 C.ar      1 F2C        -0.0603
      5 C5        -45.4330   46.5060    9.7600 C.ar      1 F2C        -0.0686
      6 C6        -45.4300   47.3620    8.6550 C.ar      1 F2C        -0.0687
      7 C7        -43.8960   43.3490    8.3220 C.3       1 F2C        -0.0192
      8 C8        -43.3560   42.9290    6.9580 C.3       1 F2C        -0.0433
      9 C9        -42.6810   41.5610    7.1250 C.3       1 F2C        -0.0513
     10 C10       -42.3650   40.8890    5.7890 C.3       1 F2C        -0.0526
     11 C11       -41.4530   39.6730    6.0040 C.3       1 F2C        -0.0481
     12 C12       -40.0130   40.0820    6.3410 C.3       1 F2C        -0.0080
     13 C13       -39.1440   38.8480    6.5800 C.3       1 F2C         0.1461
     14 O14       -39.6200   38.1450    7.7340 O.3       1 F2C        -0.3694
     15 C15       -37.6950   39.2320    6.8400 C.2       1 F2C         0.2132
     16 N16       -36.5260   38.6410    6.6510 N.2       1 F2C        -0.3028
     17 C17       -35.6030   39.4840    7.1030 C.2       1 F2C         0.0035
     18 C18       -36.2120   40.5700    7.5710 C.2       1 F2C         0.1538
     19 O19       -37.5430   40.4250    7.4150 O.3       1 F2C        -0.2185
     20 C20       -35.5750   41.7690    8.1620 C.ar      1 F2C         0.0787
     21 N21       -34.2700   41.7360    8.4620 N.ar      1 F2C        -0.2831
     22 C22       -33.6660   42.8180    8.9890 C.ar      1 F2C         0.0753
     23 C23       -34.3770   43.9810    9.2520 C.ar      1 F2C        -0.0249
     24 C24       -35.7300   44.0340    8.9460 C.ar      1 F2C        -0.0435
     25 C25       -36.3350   42.9130    8.3910 C.ar      1 F2C        -0.0279
     26 C26       -32.2080   42.7220    9.3060 C.2       1 F2C         0.0796
     27 O27       -31.6220   41.6470    9.0450 O.co2     1 F2C        -0.5571
     28 O28       -31.6300   43.7020    9.8210 O.co2     1 F2C        -0.5571
     29 H1        -44.9274   47.5765    6.5778 H         1 F2C         0.0599
     30 H2        -44.0543   45.2705    6.3533 H         1 F2C         0.0557
     31 H3        -44.9331   44.5486   10.4925 H         1 F2C         0.0557
     32 H4        -45.8251   46.8478   10.7111 H         1 F2C         0.0599
     33 H5        -45.8152   48.3711    8.7472 H         1 F2C         0.0559
     34 H6        -44.7165   42.6654    8.5855 H         1 F2C         0.0426
     35 H7        -43.0819   43.2442    9.0543 H         1 F2C         0.0426
     36 H8        -42.6228   43.6675    6.6016 H         1 F2C         0.0287
     37 H9        -44.1817   42.8536    6.2351 H         1 F2C         0.0287
     38 H10       -43.3530   40.9051    7.6979 H         1 F2C         0.0267
     39 H11       -41.7414   41.6982    7.6802 H         1 F2C         0.0267
     40 H12       -41.8580   41.6104    5.1314 H         1 F2C         0.0265
     41 H13       -43.3030   40.5597    5.3181 H         1 F2C         0.0265
     42 H14       -41.4440   39.0697    5.0843 H         1 F2C         0.0268
     43 H15       -41.8538   39.0715    6.8332 H         1 F2C         0.0268
     44 H16       -40.0168   40.7025    7.2492 H         1 F2C         0.0321
     45 H17       -39.5963   40.6605    5.5034 H         1 F2C         0.0321
     46 H18       -39.1968   38.1945    5.6968 H         1 F2C         0.0870
     47 H19       -40.5199   37.8764    7.5909 H         1 F2C         0.2143
     48 H20       -34.5274   39.3139    7.0920 H         1 F2C         0.0579
     49 H21       -33.8809   44.8387    9.6917 H         1 F2C         0.0703
     50 H22       -36.3041   44.9335    9.1366 H         1 F2C         0.0726
     51 H23       -37.3891   42.9289    8.1386 H         1 F2C         0.0699
@<TRIPOS>BOND
     1    1    2 ar 
     2    1    6 ar 
     3    2    3 ar 
     4    3    4 ar 
     5    3    7 1  
     6    4    5 ar 
     7    5    6 ar 
     8    7    8 1  
     9    8    9 1  
    10    9   10 1  
    11   10   11 1  
    12   11   12 1  
    13   12   13 1  
    14   13   14 1  
    15   13   15 1  
    16   15   16 2  
    17   15   19 1  
    18   16   17 1  
    19   17   18 2  
    20   18   19 1  
    21   18   20 1  
    22   20   21 ar 
    23   20   25 ar 
    24   21   22 ar 
    25   22   23 ar 
    26   22   26 1  
    27   23   24 ar 
    28   24   25 ar 
    29   26   27 ar 
    30   26   28 ar 
    31    1   29 1  
    32    2   30 1  
    33    4   31 1  
    34    5   32 1  
    35    6   33 1  
    36    7   34 1  
    37    7   35 1  
    38    8   36 1  
    39    8   37 1  
    40    9   38 1  
    41    9   39 1  
    42   10   40 1  
    43   10   41 1  
    44   11   42 1  
    45   11   43 1  
    46   12   44 1  
    47   12   45 1  
    48   13   46 1  
    49   14   47 1  
    50   17   48 1  
    51   23   49 1  
    52   24   50 1  
    53   25   51 1  
@<TRIPOS>SUBSTRUCTURE
     1 F2C         1

