### 
### Created by X-TOOL on Mon Sep 10 21:12:59 2018
### 

@<TRIPOS>MOLECULE
3k83_ligand
   49    52     1     0     0
SMALL
GAST_HUCK


@<TRIPOS>ATOM
      1 C12        54.5160  -14.5640   -6.3070 C.3       1 F27         0.0019
      2 C13        53.0230  -14.4190   -6.5880 C.3       1 F27         0.1478
      3 O14        52.6230  -15.1920   -7.7380 O.3       1 F27        -0.3692
      4 C15        52.6600  -12.9470   -6.8550 C.2       1 F27         0.2133
      5 N16        51.5870  -12.2090   -6.6290 N.2       1 F27        -0.3028
      6 C17        51.8460  -10.9880   -7.0830 C.2       1 F27         0.0035
      7 C18        53.0740  -10.9730   -7.5920 C.2       1 F27         0.1538
      8 O19        53.6130  -12.2080   -7.4570 O.3       1 F27        -0.2185
      9 C20        53.7450   -9.7970   -8.1980 C.ar      1 F27         0.0787
     10 N21        53.0190   -8.7040   -8.4890 N.ar      1 F27        -0.2831
     11 C22        53.6020   -7.6190   -9.0350 C.ar      1 F27         0.0753
     12 C23        54.9640   -7.6110   -9.3110 C.ar      1 F27        -0.0249
     13 C24        55.7270   -8.7290   -9.0170 C.ar      1 F27        -0.0435
     14 C25        55.1100   -9.8330   -8.4520 C.ar      1 F27        -0.0279
     15 C26        52.7690   -6.4110   -9.3500 C.2       1 F27         0.0796
     16 O27        51.5350   -6.4740   -9.1840 O.co2     1 F27        -0.5571
     17 O28        53.3340   -5.3730   -9.7660 O.co2     1 F27        -0.5571
     18 C29        55.0190  -16.0130   -6.1950 C.3       1 F27        -0.0137
     19 C30        56.5060  -15.9740   -6.4990 C.ar      1 F27        -0.0417
     20 C31        57.5060  -16.1960   -5.5420 C.ar      1 F27        -0.0589
     21 C32        58.8570  -16.1240   -5.9400 C.ar      1 F27        -0.0600
     22 C33        59.2120  -15.8310   -7.2640 C.ar      1 F27        -0.0242
     23 C34        58.2020  -15.6130   -8.1950 C.ar      1 F27        -0.0600
     24 C35        56.8660  -15.6810   -7.8120 C.ar      1 F27        -0.0589
     25 C36        60.6500  -15.7570   -7.6890 C.ar      1 F27        -0.0221
     26 C37        61.0400  -16.2140   -8.9460 C.ar      1 F27        -0.0557
     27 C38        62.3790  -16.1470   -9.3480 C.ar      1 F27        -0.0622
     28 C39        63.3470  -15.6150   -8.4910 C.ar      1 F27        -0.0627
     29 C40        62.9660  -15.1550   -7.2360 C.ar      1 F27        -0.0622
     30 C41        61.6220  -15.2250   -6.8360 C.ar      1 F27        -0.0557
     31 H1         54.7359  -14.0523   -5.3584 H         1 F27         0.0344
     32 H2         55.0661  -14.0742   -7.1240 H         1 F27         0.0344
     33 H3         52.4671  -14.7737   -5.7076 H         1 F27         0.0872
     34 H4         51.6911  -15.0800   -7.8849 H         1 F27         0.2143
     35 H5         51.1648  -10.1392   -7.0446 H         1 F27         0.0579
     36 H6         55.4261   -6.7358   -9.7533 H         1 F27         0.0703
     37 H7         56.7906   -8.7398   -9.2259 H         1 F27         0.0726
     38 H8         55.6877  -10.7177   -8.2101 H         1 F27         0.0699
     39 H9         54.4986  -16.6539   -6.9220 H         1 F27         0.0432
     40 H10        54.8483  -16.3977   -5.1787 H         1 F27         0.0432
     41 H11        57.2453  -16.4192   -4.5138 H         1 F27         0.0560
     42 H12        59.6366  -16.2987   -5.2073 H         1 F27         0.0609
     43 H13        58.4570  -15.3889   -9.2245 H         1 F27         0.0609
     44 H14        56.0914  -15.5027   -8.5490 H         1 F27         0.0560
     45 H15        60.2980  -16.6261   -9.6203 H         1 F27         0.0615
     46 H16        62.6668  -16.5093  -10.3283 H         1 F27         0.0615
     47 H17        64.3840  -15.5618   -8.8021 H         1 F27         0.0610
     48 H18        63.7089  -14.7409   -6.5639 H         1 F27         0.0615
     49 H19        61.3348  -14.8628   -5.8555 H         1 F27         0.0615
@<TRIPOS>BOND
     1    1    2 1  
     2    1   18 1  
     3    2    3 1  
     4    2    4 1  
     5    4    5 2  
     6    4    8 1  
     7    5    6 1  
     8    6    7 2  
     9    7    8 1  
    10    7    9 1  
    11    9   10 ar 
    12    9   14 ar 
    13   10   11 ar 
    14   11   12 ar 
    15   11   15 1  
    16   12   13 ar 
    17   13   14 ar 
    18   15   16 ar 
    19   15   17 ar 
    20   18   19 1  
    21   19   20 ar 
    22   19   24 ar 
    23   20   21 ar 
    24   21   22 ar 
    25   22   23 ar 
    26   22   25 1  
    27   23   24 ar 
    28   25   26 ar 
    29   25   30 ar 
    30   26   27 ar 
    31   27   28 ar 
    32   28   29 ar 
    33   29   30 ar 
    34    1   31 1  
    35    1   32 1  
    36    2   33 1  
    37    3   34 1  
    38    6   35 1  
    39   12   36 1  
    40   13   37 1  
    41   14   38 1  
    42   18   39 1  
    43   18   40 1  
    44   20   41 1  
    45   21   42 1  
    46   23   43 1  
    47   24   44 1  
    48   26   45 1  
    49   27   46 1  
    50   28   47 1  
    51   29   48 1  
    52   30   49 1  
@<TRIPOS>SUBSTRUCTURE
     1 F27         1

