### 
### Created by X-TOOL on Mon Sep 10 21:12:59 2018
### 

@<TRIPOS>MOLECULE
3k84_ligand
   69    70     1     0     0
SMALL
GAST_HUCK


@<TRIPOS>ATOM
      1 C21       -45.0810   -4.5670   -2.3610 C.2       1 K84        -0.0987
      2 C22       -45.2890   -4.7110   -3.7330 C.2       1 K84        -0.0987
      3 C23       -46.4020   -5.3370   -4.2920 C.3       1 K84        -0.0365
      4 C24       -46.3200   -5.3840   -5.8220 C.3       1 K84        -0.0464
      5 C25       -47.4210   -6.2670   -6.4070 C.3       1 K84        -0.0515
      6 C26       -47.4630   -7.6670   -5.7900 C.3       1 K84        -0.0529
      7 C27       -48.3180   -8.6170   -6.6350 C.3       1 K84        -0.0531
      8 C28       -48.4640  -10.0000   -5.9810 C.3       1 K84        -0.0533
      9 C29       -47.1330  -10.7560   -5.9370 C.3       1 K84        -0.0559
     10 C30       -46.5910  -11.0730   -7.3330 C.3       1 K84        -0.0653
     11 OAA       -52.0980    1.0650   -1.3990 O.3       1 K84        -0.3690
     12 CAD       -46.5020    6.3830   -3.7080 C.ar      1 K84        -0.0327
     13 CAG       -46.2620    5.0520   -3.3570 C.ar      1 K84        -0.0400
     14 CAH       -47.7100    6.9830   -3.3180 C.ar      1 K84         0.0122
     15 CAK       -47.2280    4.3730   -2.6120 C.ar      1 K84        -0.0192
     16 NAL       -50.2780    4.8930   -0.7460 N.2       1 K84        -0.2382
     17 CAM       -48.5370   -2.4670   -0.3520 C.3       1 K84        -0.0529
     18 CAN       -49.8260   -2.0530   -1.0220 C.3       1 K84        -0.0528
     19 CAO       -47.7100   -3.2800   -1.3180 C.3       1 K84        -0.0515
     20 CAP       -50.5440   -1.0420   -0.1470 C.3       1 K84        -0.0481
     21 CAQ       -46.5590   -3.9240   -0.5590 C.3       1 K84        -0.0464
     22 CAR       -49.9990    0.3710   -0.3870 C.3       1 K84        -0.0077
     23 NAS       -48.6180    6.3130   -2.6110 N.ar      1 K84        -0.2838
     24 NAT       -50.9620    3.9840   -0.2590 N.2       1 K84        -0.2401
     25 OAU       -49.4640    3.0140   -1.5440 O.3       1 K84        -0.1846
     26 CAV       -45.9580   -5.0500   -1.3960 C.3       1 K84        -0.0365
     27 CAW       -48.4030    5.0340   -2.2580 C.ar      1 K84         0.1116
     28 CAX       -49.3570    4.3650   -1.5330 C.2       1 K84         0.2366
     29 CAY       -50.5260    2.8040   -0.7030 C.2       1 K84         0.2317
     30 CAZ       -51.1380    1.4050   -0.3670 C.3       1 K84         0.1486
     31 H1        -44.1833   -4.0483   -2.0278 H         1 K84         0.0450
     32 H2        -44.5354   -4.3096   -4.4089 H         1 K84         0.0450
     33 H3        -47.3062   -4.7824   -4.0008 H         1 K84         0.0388
     34 H4        -46.4628   -6.3656   -3.9070 H         1 K84         0.0388
     35 H5        -45.3407   -5.7890   -6.1167 H         1 K84         0.0285
     36 H6        -46.4294   -4.3639   -6.2188 H         1 K84         0.0285
     37 H7        -47.2510   -6.3669   -7.4892 H         1 K84         0.0267
     38 H8        -48.3909   -5.7786   -6.2318 H         1 K84         0.0267
     39 H9        -47.8915   -7.6013   -4.7790 H         1 K84         0.0265
     40 H10       -46.4388   -8.0636   -5.7291 H         1 K84         0.0265
     41 H11       -47.8444   -8.7389   -7.6203 H         1 K84         0.0265
     42 H12       -49.3182   -8.1769   -6.7609 H         1 K84         0.0265
     43 H13       -49.1896  -10.5914   -6.5587 H         1 K84         0.0265
     44 H14       -48.8328   -9.8698   -4.9529 H         1 K84         0.0265
     45 H15       -47.2820  -11.7008   -5.3938 H         1 K84         0.0263
     46 H16       -46.3946  -10.1391   -5.4039 H         1 K84         0.0263
     47 H17       -45.6376  -11.6141   -7.2420 H         1 K84         0.0230
     48 H18       -46.4292  -10.1355   -7.8851 H         1 K84         0.0230
     49 H19       -47.3166  -11.6973   -7.8750 H         1 K84         0.0230
     50 H20       -52.4476    0.1977   -1.2314 H         1 K84         0.2143
     51 H21       -45.7665    6.9440   -4.2730 H         1 K84         0.0719
     52 H22       -45.3453    4.5571   -3.6567 H         1 K84         0.0739
     53 H23       -47.9073    8.0115   -3.5978 H         1 K84         0.0833
     54 H24       -47.0661    3.3439   -2.3124 H         1 K84         0.0737
     55 H25       -48.7637   -3.0730    0.5376 H         1 K84         0.0265
     56 H26       -47.9749   -1.5705   -0.0516 H         1 K84         0.0265
     57 H27       -50.4663   -2.9361   -1.1643 H         1 K84         0.0265
     58 H28       -49.6032   -1.6003   -1.9994 H         1 K84         0.0265
     59 H29       -47.3117   -2.6242   -2.1062 H         1 K84         0.0267
     60 H30       -48.3358   -4.0619   -1.7730 H         1 K84         0.0267
     61 H31       -50.3967   -1.3105    0.9095 H         1 K84         0.0268
     62 H32       -51.6182   -1.0590   -0.3834 H         1 K84         0.0268
     63 H33       -46.9314   -4.3336    0.3916 H         1 K84         0.0285
     64 H34       -45.7868   -3.1677   -0.3550 H         1 K84         0.0285
     65 H35       -49.4992    0.4036   -1.3664 H         1 K84         0.0322
     66 H36       -49.2742    0.6173    0.4029 H         1 K84         0.0322
     67 H37       -45.4125   -5.7354   -0.7307 H         1 K84         0.0388
     68 H38       -46.7722   -5.5949   -1.8961 H         1 K84         0.0388
     69 H39       -51.6250    1.4227    0.6192 H         1 K84         0.0874
@<TRIPOS>BOND
     1    1    2 2  
     2   26    1 1  
     3    2    3 1  
     4    3    4 1  
     5    4    5 1  
     6    5    6 1  
     7    6    7 1  
     8    7    8 1  
     9    8    9 1  
    10    9   10 1  
    11   30   11 1  
    12   13   12 ar 
    13   14   12 ar 
    14   15   13 ar 
    15   23   14 ar 
    16   27   15 ar 
    17   24   16 1  
    18   28   16 2  
    19   18   17 1  
    20   17   19 1  
    21   20   18 1  
    22   19   21 1  
    23   22   20 1  
    24   21   26 1  
    25   30   22 1  
    26   27   23 ar 
    27   29   24 2  
    28   25   28 1  
    29   29   25 1  
    30   28   27 1  
    31   29   30 1  
    32    1   31 1  
    33    2   32 1  
    34    3   33 1  
    35    3   34 1  
    36    4   35 1  
    37    4   36 1  
    38    5   37 1  
    39    5   38 1  
    40    6   39 1  
    41    6   40 1  
    42    7   41 1  
    43    7   42 1  
    44    8   43 1  
    45    8   44 1  
    46    9   45 1  
    47    9   46 1  
    48   10   47 1  
    49   10   48 1  
    50   10   49 1  
    51   11   50 1  
    52   12   51 1  
    53   13   52 1  
    54   14   53 1  
    55   15   54 1  
    56   17   55 1  
    57   17   56 1  
    58   18   57 1  
    59   18   58 1  
    60   19   59 1  
    61   19   60 1  
    62   20   61 1  
    63   20   62 1  
    64   21   63 1  
    65   21   64 1  
    66   22   65 1  
    67   22   66 1  
    68   26   67 1  
    69   26   68 1  
    70   30   69 1  
@<TRIPOS>SUBSTRUCTURE
     1 K84         1

