### 
### Created by X-TOOL on Mon Sep 10 21:12:59 2018
### 

@<TRIPOS>MOLECULE
3k8d_ligand
   28    28     1     0     0
SMALL
GAST_HUCK


@<TRIPOS>ATOM
      1 C1        -14.8500   61.3350  105.1950 C.2       1 KDO         0.0637
      2 O1A       -14.1860   61.8610  104.0770 O.co2     1 KDO        -0.5663
      3 O1B       -15.6540   60.4740  104.9980 O.co2     1 KDO        -0.5663
      4 C2        -14.1620   61.4360  106.6070 C.3       1 KDO         0.1137
      5 C3        -12.7230   62.0220  106.5640 C.3       1 KDO         0.0140
      6 C4        -11.6390   60.9670  106.1850 C.3       1 KDO         0.0875
      7 O4        -10.3410   61.4940  106.3790 O.3       1 KDO        -0.3890
      8 C5        -11.8550   59.6140  106.9280 C.3       1 KDO         0.1099
      9 O5        -11.7000   59.8000  108.3120 O.3       1 KDO        -0.3866
     10 C6        -13.3230   59.1870  106.6950 C.3       1 KDO         0.1173
     11 O6        -14.2380   60.1510  107.2430 O.3       1 KDO        -0.3540
     12 C7        -13.6180   57.7870  107.3190 C.3       1 KDO         0.1069
     13 O7        -12.9990   56.8310  106.4760 O.3       1 KDO        -0.3869
     14 C8        -15.1640   57.5730  107.3680 C.3       1 KDO         0.0727
     15 O8        -15.7480   57.7870  106.0930 O.3       1 KDO        -0.3924
     16 H         -14.7065   62.1634  107.2091 H         1 KDO         0.0767
     17 H         -12.4879   62.3922  107.5619 H         1 KDO         0.0334
     18 H         -12.7067   62.8001  105.8009 H         1 KDO         0.0334
     19 H         -11.7431   60.7426  105.1234 H         1 KDO         0.0622
     20 H         -10.2300   61.7369  107.3011 H         1 KDO         0.2099
     21 H         -11.1410   58.8755  106.5634 H         1 KDO         0.0646
     22 H         -11.8343   58.9633  108.7632 H         1 KDO         0.2100
     23 H         -13.4664   59.1294  105.6160 H         1 KDO         0.0651
     24 H         -13.2338   57.6972  108.3351 H         1 KDO         0.0643
     25 H         -13.1557   55.9501  106.8239 H         1 KDO         0.2100
     26 H         -15.5932   58.2850  108.0730 H         1 KDO         0.0584
     27 H         -15.3652   56.5472  107.6769 H         1 KDO         0.0584
     28 H         -15.5702   58.6862  105.8077 H         1 KDO         0.2095
@<TRIPOS>BOND
     1    1    2 ar 
     2    1    3 ar 
     3    1    4 1  
     4    4    5 1  
     5    4   11 1  
     6    5    6 1  
     7    6    7 1  
     8    6    8 1  
     9    8    9 1  
    10    8   10 1  
    11   10   11 1  
    12   10   12 1  
    13   12   13 1  
    14   12   14 1  
    15   14   15 1  
    16    4   16 1  
    17    5   17 1  
    18    5   18 1  
    19    6   19 1  
    20    7   20 1  
    21    8   21 1  
    22    9   22 1  
    23   10   23 1  
    24   12   24 1  
    25   13   25 1  
    26   14   26 1  
    27   14   27 1  
    28   15   28 1  
@<TRIPOS>SUBSTRUCTURE
     1 KDO         1

