### 
### Created by X-TOOL on Mon Sep 10 21:13:04 2018
### 

@<TRIPOS>MOLECULE
3k8o_ligand
   36    37     1     0     0
SMALL
GAST_HUCK


@<TRIPOS>ATOM
      1 O4        -44.5540   -1.1850   -0.6890 O.3       1 229        -0.3923
      2 C11       -43.2180   -1.6590   -0.8700 C.3       1 229         0.0755
      3 C6        -43.1120   -2.3930   -2.2130 C.3       1 229         0.1226
      4 O3        -44.0800   -3.4520   -2.2870 O.3       1 229        -0.3838
      5 C8        -43.2790   -1.4640   -3.4150 C.3       1 229         0.0304
      6 C3        -43.2310   -2.3160   -4.6770 C.3       1 229         0.0893
      7 O2        -42.9040   -1.5390   -5.8410 O.3       1 229        -0.3894
      8 N2        -44.5590   -0.8100   -3.3010 N.4       1 229         0.2395
      9 C10       -44.8600    0.3600   -4.0870 C.3       1 229        -0.0159
     10 C4        -44.6800    1.5640   -3.2090 C.2       1 229         0.0000
     11 C1        -43.4410    2.3030   -2.9820 C.2       1 229         0.0180
     12 N4        -42.1980    2.0970   -3.4680 N.2       1 229        -0.3199
     13 C7        -41.2170    2.9300   -3.0980 C.2       1 229         0.1146
     14 N3        -41.4320    3.9730   -2.2520 N.am      1 229        -0.2067
     15 C9        -45.6340    2.2190   -2.4510 C.2       1 229         0.0220
     16 N1        -45.0800    3.2720   -1.7910 N.pl3     1 229        -0.2895
     17 C2        -43.7690    3.3730   -2.0600 C.2       1 229         0.1348
     18 C5        -42.6250    4.2520   -1.6950 C.2       1 229         0.2413
     19 O1        -42.7550    5.2230   -0.9150 O.2       1 229        -0.4013
     20 H1        -45.1538   -1.9217   -0.6957 H         1 229         0.2095
     21 H2        -42.9605   -2.3498   -0.0536 H         1 229         0.0585
     22 H3        -42.5226   -0.8068   -0.8624 H         1 229         0.0585
     23 H4        -42.1080   -2.8389   -2.2698 H         1 229         0.0674
     24 H5        -44.9533   -3.0877   -2.2024 H         1 229         0.2101
     25 H6        -42.4744   -0.7142   -3.4362 H         1 229         0.0900
     26 H7        -44.2154   -2.7832   -4.8274 H         1 229         0.0614
     27 H8        -42.4694   -3.0991   -4.5477 H         1 229         0.0614
     28 H9        -42.8844   -2.1056   -6.6033 H         1 229         0.2097
     29 H10       -44.6601   -0.5415   -2.3347 H         1 229         0.2026
     30 H11       -45.2565   -1.4998   -3.5328 H         1 229         0.2026
     31 H12       -45.8984    0.3117   -4.4468 H         1 229         0.0898
     32 H13       -44.1764    0.4188   -4.9467 H         1 229         0.0898
     33 H14       -40.2133    2.7668   -3.4876 H         1 229         0.1426
     34 H15       -40.6586    4.5672   -2.0310 H         1 229         0.2519
     35 H16       -46.6827    1.9317   -2.3909 H         1 229         0.0779
     36 H17       -45.5981    3.9074   -1.1675 H         1 229         0.2273
@<TRIPOS>BOND
     1    1    2 1  
     2    2    3 1  
     3    3    4 1  
     4    3    5 1  
     5    5    6 1  
     6    5    8 1  
     7    6    7 1  
     8    8    9 1  
     9    9   10 1  
    10   10   11 1  
    11   10   15 2  
    12   11   12 1  
    13   11   17 2  
    14   12   13 2  
    15   13   14 1  
    16   14   18 am 
    17   15   16 1  
    18   16   17 1  
    19   17   18 1  
    20   18   19 2  
    21    1   20 1  
    22    2   21 1  
    23    2   22 1  
    24    3   23 1  
    25    4   24 1  
    26    5   25 1  
    27    6   26 1  
    28    6   27 1  
    29    7   28 1  
    30    8   29 1  
    31    8   30 1  
    32    9   31 1  
    33    9   32 1  
    34   13   33 1  
    35   14   34 1  
    36   15   35 1  
    37   16   36 1  
@<TRIPOS>SUBSTRUCTURE
     1 229         1

