### 
### Created by X-TOOL on Mon Sep 10 21:13:04 2018
### 

@<TRIPOS>MOLECULE
3k8q_ligand
   32    33     1     0     0
SMALL
GAST_HUCK


@<TRIPOS>ATOM
      1 N1         13.5820    8.6130   55.8030 N.am      1 22A        -0.2067
      2 C2         12.8260    8.9380   56.8700 C.2       1 22A         0.1146
      3 N3         12.9660   10.1000   57.5260 N.2       1 22A        -0.3199
      4 C4         13.9120   10.9840   57.1120 C.2       1 22A         0.0180
      5 C5         14.6340   10.7580   55.9170 C.2       1 22A         0.1348
      6 C6         14.5560    9.4240   55.3290 C.2       1 22A         0.2413
      7 O6         15.2240    9.1190   54.3140 O.2       1 22A        -0.4013
      8 N7         15.6390   11.7880   55.7830 N.pl3     1 22A        -0.2895
      9 C8         15.2810   12.6930   56.7570 C.2       1 22A         0.0220
     10 C9         14.2300   12.2470   57.5760 C.2       1 22A         0.0000
     11 N1'        14.6380   12.8270   59.8540 N.4       1 22A         0.2392
     12 C10        13.6670   12.9790   58.7680 C.3       1 22A        -0.0159
     13 C2'        14.8310   11.5130   60.4760 C.3       1 22A         0.0253
     14 C3'        13.9640   11.3940   61.7230 C.3       1 22A         0.0890
     15 C4'        16.2940   11.1840   60.8190 C.3       1 22A         0.0890
     16 O5'        17.1840   12.3160   60.7860 O.3       1 22A        -0.3894
     17 O6'        13.9400   12.6120   62.4980 O.3       1 22A        -0.3894
     18 H1         13.4171    7.7398   55.3443 H         1 22A         0.2519
     19 H2         12.0726    8.2305   57.2130 H         1 22A         0.1426
     20 H3         16.4279   11.8337   55.1223 H         1 22A         0.2273
     21 H4         15.7654   13.6605   56.8806 H         1 22A         0.0779
     22 H5         14.3581   13.4594   60.5873 H         1 22A         0.2025
     23 H6         15.5331   13.1117   59.4881 H         1 22A         0.2025
     24 H7         12.7009   12.5414   59.0597 H         1 22A         0.0898
     25 H8         13.5300   14.0439   58.5286 H         1 22A         0.0898
     26 H9         14.4902   10.7583   59.7519 H         1 22A         0.0896
     27 H10        14.3603   10.5834   62.3521 H         1 22A         0.0614
     28 H11        12.9360   11.1509   61.4161 H         1 22A         0.0614
     29 H12        16.6577   10.4398   60.0952 H         1 22A         0.0614
     30 H13        16.3214   10.7548   61.8314 H         1 22A         0.0614
     31 H14        18.0632   12.0327   61.0077 H         1 22A         0.2097
     32 H15        13.5924   13.3179   61.9657 H         1 22A         0.2097
@<TRIPOS>BOND
     1    1    2 1  
     2    1    6 am 
     3    2    3 2  
     4    3    4 1  
     5    4    5 2  
     6    4   10 1  
     7    5    6 1  
     8    5    8 1  
     9    6    7 2  
    10    8    9 1  
    11    9   10 2  
    12   10   12 1  
    13   12   11 1  
    14   11   13 1  
    15   13   14 1  
    16   13   15 1  
    17   14   17 1  
    18   15   16 1  
    19    1   18 1  
    20    2   19 1  
    21    8   20 1  
    22    9   21 1  
    23   11   22 1  
    24   11   23 1  
    25   12   24 1  
    26   12   25 1  
    27   13   26 1  
    28   14   27 1  
    29   14   28 1  
    30   15   29 1  
    31   15   30 1  
    32   16   31 1  
    33   17   32 1  
@<TRIPOS>SUBSTRUCTURE
     1 22A         1

