### 
### Created by X-TOOL on Mon Sep 10 21:13:03 2018
### 

@<TRIPOS>MOLECULE
3k97_ligand
   41    43     1     0     0
SMALL
GAST_HUCK


@<TRIPOS>ATOM
      1 N1         67.4650   78.9670   22.8120 N.am      1 4CD        -0.2626
      2 C4         67.9820   79.8930   23.8650 C.3       1 4CD         0.0751
      3 C5         69.4610   79.6540   24.3000 C.ar      1 4CD        -0.0161
      4 C6         70.4200   79.0410   23.4040 C.ar      1 4CD        -0.0647
      5 C7         71.7620   78.8180   23.7990 C.ar      1 4CD        -0.0754
      6 C8         72.1930   79.1950   25.0890 C.ar      1 4CD        -0.0755
      7 C10        69.9230   80.0350   25.6240 C.ar      1 4CD        -0.0419
      8 C13        68.3240   76.4470   24.7470 C.ar      1 4CD        -0.0440
      9 C15        67.1970   75.5530   26.7450 C.ar      1 4CD         0.0989
     10 C17        65.8860   76.6740   24.9940 C.ar      1 4CD         0.1012
     11 C1         67.8230   81.2830   23.2210 C.3       1 4CD        -0.0190
     12 C2         67.9440   81.0460   21.7170 C.3       1 4CD        -0.0287
     13 C3         67.3770   79.6480   21.5120 C.3       1 4CD         0.0354
     14 C9         71.2850   79.7960   25.9920 C.ar      1 4CD        -0.0671
     15 C11        69.0280   80.6810   26.6570 C.3       1 4CD        -0.0336
     16 C12        67.0680   76.9080   24.2400 C.ar      1 4CD         0.0681
     17 C14        68.3880   75.7710   25.9980 C.ar      1 4CD         0.0624
     18 C16        65.9470   76.0010   26.2440 C.ar      1 4CD         0.0016
     19 O1         64.6610   77.0720   24.5790 O.3       1 4CD        -0.3301
     20 O2         67.2480   74.9130   27.9510 O.3       1 4CD        -0.3315
     21 C18        67.0050   77.6310   22.9250 C.2       1 4CD         0.1961
     22 O3         66.5210   77.0000   21.9840 O.2       1 4CD        -0.3953
     23 CL1        69.9240   75.2350   26.5690 Cl        1 4CD        -0.0869
     24 H1         67.3494   79.8133   24.7614 H         1 4CD         0.0705
     25 H2         70.1039   78.7466   22.4098 H         1 4CD         0.0538
     26 H3         72.4594   78.3568   23.1090 H         1 4CD         0.0541
     27 H4         73.2208   79.0238   25.3881 H         1 4CD         0.0541
     28 H5         69.2304   76.6132   24.1762 H         1 4CD         0.0623
     29 H6         68.6154   81.9620   23.5691 H         1 4CD         0.0309
     30 H7         66.8397   81.7110   23.4658 H         1 4CD         0.0309
     31 H8         68.9959   81.0908   21.3984 H         1 4CD         0.0287
     32 H9         67.3591   81.7901   21.1565 H         1 4CD         0.0287
     33 H10        66.3286   79.7075   21.1843 H         1 4CD         0.0523
     34 H11        67.9666   79.1056   20.7582 H         1 4CD         0.0523
     35 H12        71.6271   80.0806   26.9805 H         1 4CD         0.0537
     36 H13        68.0171   80.8036   26.2410 H         1 4CD         0.0376
     37 H14        69.4343   81.6662   26.9295 H         1 4CD         0.0376
     38 H15        68.9813   80.0432   27.5520 H         1 4CD         0.0376
     39 H16        65.0407   75.8301   26.8137 H         1 4CD         0.0475
     40 H17        64.0951   76.3137   24.4930 H         1 4CD         0.2508
     41 H18        66.7149   74.1275   27.9142 H         1 4CD         0.2502
@<TRIPOS>BOND
     1    1    2 1  
     2    1   13 1  
     3   21    1 am 
     4    2    3 1  
     5    2   11 1  
     6    3    4 ar 
     7    3    7 ar 
     8    4    5 ar 
     9    5    6 ar 
    10   14    6 ar 
    11    7   14 ar 
    12    7   15 1  
    13   16    8 ar 
    14    8   17 ar 
    15   17    9 ar 
    16   18    9 ar 
    17    9   20 1  
    18   16   10 ar 
    19   10   18 ar 
    20   10   19 1  
    21   12   11 1  
    22   13   12 1  
    23   16   21 1  
    24   17   23 1  
    25   21   22 2  
    26    2   24 1  
    27    4   25 1  
    28    5   26 1  
    29    6   27 1  
    30    8   28 1  
    31   11   29 1  
    32   11   30 1  
    33   12   31 1  
    34   12   32 1  
    35   13   33 1  
    36   13   34 1  
    37   14   35 1  
    38   15   36 1  
    39   15   37 1  
    40   15   38 1  
    41   18   39 1  
    42   19   40 1  
    43   20   41 1  
@<TRIPOS>SUBSTRUCTURE
     1 4CD         1

