### 
### Created by X-TOOL on Mon Sep 10 21:13:03 2018
### 

@<TRIPOS>MOLECULE
3k98_ligand
   42    44     1     0     0
SMALL
GAST_HUCK


@<TRIPOS>ATOM
      1 N1         16.6200   -3.0070   50.7400 N.am      1 1RC        -0.2343
      2 C4         17.4940   -2.8140   54.3950 C.ar      1 1RC        -0.0622
      3 C5         17.2390   -3.0700   53.0220 C.ar      1 1RC         0.0052
      4 C6         17.6420   -4.2930   52.4180 C.ar      1 1RC        -0.0139
      5 C7         17.2630   -4.3190   50.9710 C.3       1 1RC         0.0691
      6 C8         16.5500   -2.1880   52.0110 C.3       1 1RC         0.1654
      7 C10        15.6290   -1.2800   49.2250 C.ar      1 1RC         0.0684
      8 C13        14.5590    1.3200   48.9020 C.ar      1 1RC         0.0989
      9 C15        16.4800   -0.1950   48.8460 C.ar      1 1RC         0.1013
     10 C17        12.8770   -3.0860   52.8820 C.3       1 1RC         0.0282
     11 C1         18.1660   -3.8070   55.1530 C.ar      1 1RC        -0.0750
     12 C2         18.5670   -5.0320   54.5400 C.ar      1 1RC        -0.0751
     13 C3         18.3030   -5.2810   53.1630 C.ar      1 1RC        -0.0644
     14 C9         16.2080   -2.6440   49.4180 C.2       1 1RC         0.1998
     15 C11        14.2440   -1.0610   49.4310 C.ar      1 1RC        -0.0440
     16 C12        13.7150    0.2360   49.2700 C.ar      1 1RC         0.0624
     17 C14        15.9450    1.1040   48.6850 C.ar      1 1RC         0.0016
     18 O1         17.8210   -0.4140   48.6430 O.3       1 1RC        -0.3301
     19 O2         14.0310    2.5820   48.7560 O.3       1 1RC        -0.3315
     20 CL1        12.0410    0.4630   49.5390 Cl        1 1RC        -0.0869
     21 O3         16.3190   -3.3590   48.4220 O.2       1 1RC        -0.3950
     22 C16        15.0980   -1.9600   52.5160 C.2       1 1RC         0.2124
     23 N2         14.2750   -3.0800   52.4530 N.am      1 1RC        -0.2838
     24 C18        11.9010   -2.7960   51.7640 C.3       1 1RC        -0.0449
     25 O4         14.7350   -0.8640   52.9300 O.2       1 1RC        -0.3918
     26 H1         17.1827   -1.8822   54.8530 H         1 1RC         0.0542
     27 H2         18.1542   -4.4337   50.3365 H         1 1RC         0.0674
     28 H3         16.5594   -5.1395   50.7669 H         1 1RC         0.0674
     29 H4         17.0620   -1.2227   51.8844 H         1 1RC         0.0947
     30 H5         12.7492   -2.3216   53.6626 H         1 1RC         0.0517
     31 H6         12.6449   -4.0774   53.2981 H         1 1RC         0.0517
     32 H7         18.3759   -3.6347   56.2024 H         1 1RC         0.0542
     33 H8         19.0794   -5.7829   55.1306 H         1 1RC         0.0544
     34 H9         18.6061   -6.2134   52.7006 H         1 1RC         0.0539
     35 H10        13.5964   -1.8843   49.7102 H         1 1RC         0.0623
     36 H11        16.5881    1.9281   48.3982 H         1 1RC         0.0475
     37 H12        18.0474   -0.1801   47.7505 H         1 1RC         0.2508
     38 H13        14.1757    2.8837   47.8669 H         1 1RC         0.2502
     39 H14        14.6616   -3.9295   52.0938 H         1 1RC         0.1852
     40 H15        10.8745   -2.8170   52.1588 H         1 1RC         0.0249
     41 H16        12.0071   -3.5580   50.9778 H         1 1RC         0.0249
     42 H17        12.1113   -1.8021   51.3422 H         1 1RC         0.0249
@<TRIPOS>BOND
     1    1    5 1  
     2    6    1 1  
     3    1   14 am 
     4    3    2 ar 
     5    2   11 ar 
     6    3    4 ar 
     7    6    3 1  
     8    4    5 1  
     9    4   13 ar 
    10   22    6 1  
    11    7    9 ar 
    12   14    7 1  
    13    7   15 ar 
    14   16    8 ar 
    15   17    8 ar 
    16    8   19 1  
    17    9   17 ar 
    18    9   18 1  
    19   23   10 1  
    20   10   24 1  
    21   11   12 ar 
    22   13   12 ar 
    23   14   21 2  
    24   15   16 ar 
    25   16   20 1  
    26   22   23 am 
    27   22   25 2  
    28    2   26 1  
    29    5   27 1  
    30    5   28 1  
    31    6   29 1  
    32   10   30 1  
    33   10   31 1  
    34   11   32 1  
    35   12   33 1  
    36   13   34 1  
    37   15   35 1  
    38   17   36 1  
    39   18   37 1  
    40   19   38 1  
    41   23   39 1  
    42   24   40 1  
    43   24   41 1  
    44   24   42 1  
@<TRIPOS>SUBSTRUCTURE
     1 1RC         1

