### 
### Created by X-TOOL on Mon Sep 10 21:13:03 2018
### 

@<TRIPOS>MOLECULE
3k99_ligand
   32    34     1     0     0
SMALL
GAST_HUCK


@<TRIPOS>ATOM
      1 N1         47.3610   72.4170   63.9750 N.am      1 PFT        -0.2587
      2 C2         46.8840   72.3460   65.3310 C.2       1 PFT         0.1870
      3 C3         47.9460   73.7040   63.3900 C.3       1 PFT         0.0656
      4 C4         47.4000   71.2900   62.9030 C.3       1 PFT         0.0656
      5 C5         46.3460   70.9760   65.7460 C.2       1 PFT         0.0836
      6 O6         47.0030   73.3770   65.9400 O.2       1 PFT        -0.4065
      7 C7         48.3410   73.2780   61.9270 C.ar      1 PFT        -0.0169
      8 C8         48.0030   71.8750   61.7010 C.ar      1 PFT        -0.0169
      9 C9         47.3290   70.2410   66.5330 C.2       1 PFT         0.1481
     10 C10        45.0550   70.4720   65.4110 C.2       1 PFT        -0.0616
     11 C11        48.9480   73.9550   60.8150 C.ar      1 PFT        -0.0649
     12 C12        48.2190   71.1280   60.4850 C.ar      1 PFT        -0.0649
     13 C13        47.1570   68.9440   67.0730 C.3       1 PFT         0.1005
     14 O14        48.5810   70.7310   66.8530 O.3       1 PFT        -0.2908
     15 C15        44.8000   69.1840   65.9070 C.2       1 PFT        -0.0375
     16 C16        49.1890   73.2210   59.5520 C.ar      1 PFT        -0.0754
     17 C17        48.8130   71.8050   59.4170 C.ar      1 PFT        -0.0754
     18 C18        45.8350   68.4890   66.6970 C.2       1 PFT         0.1086
     19 O19        45.5210   67.2820   67.1210 O.2       1 PFT        -0.4146
     20 H1         48.8288   74.0316   63.9586 H         1 PFT         0.0670
     21 H2         47.1972   74.5097   63.3789 H         1 PFT         0.0670
     22 H3         46.3807   70.9393   62.6839 H         1 PFT         0.0670
     23 H4         48.0089   70.4467   63.2609 H         1 PFT         0.0670
     24 H5         44.3319   71.0356   64.8232 H         1 PFT         0.0687
     25 H6         49.2284   74.9986   60.9002 H         1 PFT         0.0538
     26 H7         47.9324   70.0857   60.4039 H         1 PFT         0.0538
     27 H8         47.2449   68.9785   68.1689 H         1 PFT         0.0816
     28 H9         47.9187   68.2632   66.6653 H         1 PFT         0.0816
     29 H10        48.6714   70.7731   67.7977 H         1 PFT         0.2740
     30 H11        43.8443   68.7004   65.7101 H         1 PFT         0.0353
     31 H12        49.6489   73.7340   58.7151 H         1 PFT         0.0541
     32 H13        48.9978   71.2845   58.4843 H         1 PFT         0.0541
@<TRIPOS>BOND
     1    1    2 am 
     2    1    3 1  
     3    1    4 1  
     4    2    5 1  
     5    2    6 2  
     6    3    7 1  
     7    4    8 1  
     8    5    9 2  
     9    5   10 1  
    10    7    8 ar 
    11    7   11 ar 
    12    8   12 ar 
    13    9   13 1  
    14    9   14 1  
    15   10   15 2  
    16   11   16 ar 
    17   12   17 ar 
    18   13   18 1  
    19   15   18 1  
    20   16   17 ar 
    21   18   19 2  
    22    3   20 1  
    23    3   21 1  
    24    4   22 1  
    25    4   23 1  
    26   10   24 1  
    27   11   25 1  
    28   12   26 1  
    29   13   27 1  
    30   13   28 1  
    31   14   29 1  
    32   15   30 1  
    33   16   31 1  
    34   17   32 1  
@<TRIPOS>SUBSTRUCTURE
     1 PFT         1

