### 
### Created by X-TOOL on Mon Sep 10 21:13:00 2018
### 

@<TRIPOS>MOLECULE
3k9x_ligand
   71    75     1     0     0
SMALL
GAST_HUCK


@<TRIPOS>ATOM
      1 C          -3.4890    8.5340   24.8720 C.ar      1 MBM         0.0155
      2 N           3.0780    6.0130   25.5820 N.pl3     1 MBM        -0.2836
      3 O           0.8180    6.3350   24.0420 O.2       1 MBM        -0.3820
      4 C1         -2.9220    7.9800   23.7230 C.ar      1 MBM        -0.0284
      5 N1         -2.8700    8.5350   26.0810 N.ar      1 MBM        -0.2903
      6 O1          8.3070    4.7780   26.6490 O.3       1 MBM        -0.1763
      7 C2         -1.6400    7.4410   23.8270 C.ar      1 MBM        -0.0224
      8 N2          1.1840    7.4420   26.0400 N.am      1 MBM        -0.2613
      9 O2          3.9920   12.6780   28.3460 O.2       1 MBM        -0.3946
     10 C3          2.3670    6.8890   26.3660 C.cat     1 MBM         0.1703
     11 N3          2.9510    7.4920   27.4810 N.pl3     1 MBM        -0.3089
     12 O3          4.5110    8.9200   28.7340 O.2       1 MBM        -0.3940
     13 C4          0.4170    6.9750   25.0120 C.2       1 MBM         0.2109
     14 N4          5.4050   13.2200   29.9820 N.am      1 MBM        -0.2716
     15 C5         -1.6150    8.0060   26.1600 C.ar      1 MBM         0.0313
     16 N5          2.9600   10.5040   29.4180 N.am      1 MBM        -0.2524
     17 C6         -0.9680    7.4740   25.0490 C.ar      1 MBM         0.0775
     18 C7          8.8510    4.8850   25.3750 C.2       1 MBM         0.2119
     19 C8          7.8950    5.2090   24.4340 C.2       1 MBM         0.0708
     20 C9         10.3080    4.6970   25.2640 C.3       1 MBM         0.0552
     21 C10         4.3890    5.6510   25.9040 C.ar      1 MBM         0.0859
     22 C11         5.3300    5.6960   24.8320 C.ar      1 MBM         0.0027
     23 C12         6.6380    5.3730   25.1750 C.ar      1 MBM         0.0716
     24 C13         4.7240    5.3750   27.2480 C.ar      1 MBM        -0.0029
     25 C14         6.0590    5.0650   27.5920 C.ar      1 MBM         0.0095
     26 C15         6.9590    5.0690   26.5430 C.ar      1 MBM         0.1820
     27 C16         5.8440   14.4190   29.2670 C.3       1 MBM         0.0340
     28 C17         4.0080   11.1810   30.2320 C.3       1 MBM         0.1229
     29 C18         4.3940   12.4460   29.4730 C.2       1 MBM         0.2012
     30 C19         6.1930   12.9310   31.2040 C.3       1 MBM         0.0340
     31 C20         7.0860   14.8790   30.0230 C.3       1 MBM        -0.0307
     32 C21         7.0700   14.2050   31.3690 C.3       1 MBM        -0.0307
     33 C22         1.2450    7.9250   29.2070 C.3       1 MBM        -0.0119
     34 C23         3.3330    9.3290   28.7980 C.2       1 MBM         0.2067
     35 C24         2.2000    8.5680   28.1720 C.3       1 MBM         0.1237
     36 C25         1.5500   10.9460   29.5640 C.3       1 MBM         0.0365
     37 C26         0.1100    8.8470   29.7170 C.3       1 MBM        -0.0469
     38 C27         0.6990   10.0380   30.4980 C.3       1 MBM        -0.0321
     39 H1         -4.4715    8.9856   24.7956 H         1 MBM         0.0858
     40 H2          2.6364    5.6154   24.7407 H         1 MBM         0.2027
     41 H3         -3.4599    7.9691   22.7819 H         1 MBM         0.0722
     42 H4         -1.1662    6.9968   22.9591 H         1 MBM         0.0789
     43 H5          0.8550    8.2234   26.5702 H         1 MBM         0.1810
     44 H6          3.8796    7.1973   27.8153 H         1 MBM         0.1793
     45 H7         -1.1065    7.9999   27.1173 H         1 MBM         0.0879
     46 H8          8.0427    5.3203   23.3608 H         1 MBM         0.1052
     47 H9         10.6126    4.8055   24.2126 H         1 MBM         0.0686
     48 H10        10.5764    3.6920   25.6216 H         1 MBM         0.0686
     49 H11        10.8229    5.4532   25.8748 H         1 MBM         0.0686
     50 H12         5.0448    5.9634   23.8209 H         1 MBM         0.0765
     51 H13         3.9580    5.4009   28.0146 H         1 MBM         0.0857
     52 H14         6.3571    4.8394   28.6095 H         1 MBM         0.0712
     53 H15         5.0641   15.1943   29.2918 H         1 MBM         0.0522
     54 H16         6.0908   14.1804   28.2219 H         1 MBM         0.0522
     55 H17         4.8832   10.5247   30.3470 H         1 MBM         0.0765
     56 H18         3.6106   11.4395   31.2246 H         1 MBM         0.0765
     57 H19         6.8183   12.0363   31.0680 H         1 MBM         0.0522
     58 H20         5.5348   12.7896   32.0739 H         1 MBM         0.0522
     59 H21         7.0659   15.9715   30.1495 H         1 MBM         0.0285
     60 H22         7.9915   14.5906   29.4691 H         1 MBM         0.0285
     61 H23         8.0914   13.9289   31.6696 H         1 MBM         0.0285
     62 H24         6.6332   14.8736   32.1254 H         1 MBM         0.0285
     63 H25         1.8443    7.6111   30.0743 H         1 MBM         0.0314
     64 H26         0.7830    7.0419   28.7415 H         1 MBM         0.0314
     65 H27         1.6276    9.1972   27.4746 H         1 MBM         0.0808
     66 H28         1.0838   10.9518   28.5677 H         1 MBM         0.0524
     67 H29         1.5475   11.9659   29.9760 H         1 MBM         0.0524
     68 H30        -0.5548    8.2723   30.3786 H         1 MBM         0.0268
     69 H31        -0.4644    9.2246   28.8582 H         1 MBM         0.0268
     70 H32        -0.1232   10.6306   30.9255 H         1 MBM         0.0285
     71 H33         1.3368    9.6570   31.3092 H         1 MBM         0.0285
@<TRIPOS>BOND
     1    4    1 ar 
     2    5    1 ar 
     3   10    2 ar 
     4    2   21 1  
     5   13    3 2  
     6    7    4 ar 
     7   15    5 ar 
     8    6   18 1  
     9   26    6 1  
    10   17    7 ar 
    11   10    8 ar 
    12    8   13 am 
    13   29    9 2  
    14   11   10 ar 
    15   35   11 1  
    16   34   12 2  
    17   13   17 1  
    18   14   27 1  
    19   29   14 am 
    20   14   30 1  
    21   17   15 ar 
    22   16   28 1  
    23   34   16 am 
    24   16   36 1  
    25   19   18 2  
    26   18   20 1  
    27   23   19 1  
    28   21   22 ar 
    29   21   24 ar 
    30   22   23 ar 
    31   23   26 ar 
    32   24   25 ar 
    33   25   26 ar 
    34   27   31 1  
    35   28   29 1  
    36   30   32 1  
    37   32   31 1  
    38   35   33 1  
    39   33   37 1  
    40   34   35 1  
    41   36   38 1  
    42   37   38 1  
    43    1   39 1  
    44    2   40 1  
    45    4   41 1  
    46    7   42 1  
    47    8   43 1  
    48   11   44 1  
    49   15   45 1  
    50   19   46 1  
    51   20   47 1  
    52   20   48 1  
    53   20   49 1  
    54   22   50 1  
    55   24   51 1  
    56   25   52 1  
    57   27   53 1  
    58   27   54 1  
    59   28   55 1  
    60   28   56 1  
    61   30   57 1  
    62   30   58 1  
    63   31   59 1  
    64   31   60 1  
    65   32   61 1  
    66   32   62 1  
    67   33   63 1  
    68   33   64 1  
    69   35   65 1  
    70   36   66 1  
    71   36   67 1  
    72   37   68 1  
    73   37   69 1  
    74   38   70 1  
    75   38   71 1  
@<TRIPOS>SUBSTRUCTURE
     1 MBM         1

