### 
### Created by X-TOOL on Mon Sep 10 21:13:01 2018
### 

@<TRIPOS>MOLECULE
3kab_ligand
   21    22     1     0     0
SMALL
GAST_HUCK


@<TRIPOS>ATOM
      1 C1         33.2350   25.7730   24.7380 C.2       1 4BL         0.0893
      2 N2         33.7200   25.6370   26.0040 N.pl3     1 4BL        -0.2736
      3 C3         34.2230   25.5250   23.7800 C.2       1 4BL        -0.0507
      4 C4         35.0220   25.3000   25.9990 C.ar      1 4BL         0.0590
      5 C5         31.8280   26.1410   24.4150 C.2       1 4BL         0.0847
      6 C6         35.3630   25.2220   24.5770 C.ar      1 4BL        -0.0267
      7 C7         35.9900   25.0410   26.9580 C.ar      1 4BL        -0.0413
      8 O8         31.0240   26.3420   25.3500 O.co2     1 4BL        -0.5596
      9 C9         36.6550   24.8900   24.1950 C.ar      1 4BL        -0.0767
     10 O10        31.4870   26.2380   23.2160 O.co2     1 4BL        -0.5596
     11 C11        37.2770   24.7100   26.5420 C.ar      1 4BL        -0.0583
     12 C12        37.6010   24.6370   25.1860 C.ar      1 4BL        -0.0739
     13 C13        38.3390   24.4270   27.5720 C.3       1 4BL        -0.0357
     14 H1         33.1600   25.7749   26.8574 H         1 4BL         0.2250
     15 H2         34.1408   25.5559   22.6945 H         1 4BL         0.0348
     16 H3         35.7487   25.0953   28.0134 H         1 4BL         0.0473
     17 H4         36.9229   24.8287   23.1464 H         1 4BL         0.0541
     18 H5         38.6130   24.3772   24.8972 H         1 4BL         0.0478
     19 H6         37.9094   24.5301   28.5794 H         1 4BL         0.0380
     20 H7         39.1665   25.1416   27.4514 H         1 4BL         0.0380
     21 H8         38.7166   23.4026   27.4375 H         1 4BL         0.0380
@<TRIPOS>BOND
     1    1    2 1  
     2    1    3 2  
     3    1    5 1  
     4    2    4 1  
     5    3    6 1  
     6    4    6 ar 
     7    4    7 ar 
     8    5    8 ar 
     9    5   10 ar 
    10    6    9 ar 
    11    7   11 ar 
    12    9   12 ar 
    13   11   12 ar 
    14   11   13 1  
    15    2   14 1  
    16    3   15 1  
    17    7   16 1  
    18    9   17 1  
    19   12   18 1  
    20   13   19 1  
    21   13   20 1  
    22   13   21 1  
@<TRIPOS>SUBSTRUCTURE
     1 4BL         1

