### 
### Created by X-TOOL on Mon Sep 10 21:12:59 2018
### 

@<TRIPOS>MOLECULE
3kac_ligand
   23    24     1     0     0
SMALL
GAST_HUCK


@<TRIPOS>ATOM
      1 C1         43.9090    5.9710   -3.4080 C.ar      1 4BX        -0.0766
      2 C2         44.7800    6.1860   -2.3450 C.ar      1 4BX        -0.0786
      3 C3         44.9830    5.1880   -1.3990 C.ar      1 4BX        -0.0656
      4 C4         43.2410    4.7580   -3.5250 C.ar      1 4BX        -0.0422
      5 N5         42.9540    2.5350   -2.4400 N.pl3     1 4BX        -0.2463
      6 C6         43.4460    3.7620   -2.5780 C.ar      1 4BX         0.0783
      7 C7         44.3140    3.9760   -1.5190 C.ar      1 4BX         0.0207
      8 N8         44.3140    2.8710   -0.7820 N.2       1 4BX        -0.3180
      9 C9         43.4840    1.9920   -1.3440 C.2       1 4BX         0.1222
     10 C10        43.1880    0.5860   -0.8170 C.3       1 4BX         0.0413
     11 C11        43.6770   -0.4810   -1.7980 C.3       1 4BX         0.0180
     12 C12        42.9710   -1.8160   -1.5530 C.2       1 4BX         0.0376
     13 O13        42.3060   -2.3420   -2.4430 O.co2     1 4BX        -0.5688
     14 O14        43.0620   -2.3770   -0.4620 O.co2     1 4BX        -0.5688
     15 H1         43.7512    6.7498   -4.1453 H         1 4BX         0.0528
     16 H2         45.3008    7.1324   -2.2543 H         1 4BX         0.0516
     17 H3         45.6613    5.3547   -0.5700 H         1 4BX         0.0535
     18 H4         42.5618    4.5893   -4.3528 H         1 4BX         0.0541
     19 H5         42.2788    2.0814   -3.0718 H         1 4BX         0.2322
     20 H6         42.1026    0.4754   -0.6768 H         1 4BX         0.0551
     21 H7         43.6982    0.4486    0.1478 H         1 4BX         0.0551
     22 H8         44.7608   -0.6184   -1.6693 H         1 4BX         0.0462
     23 H9         43.4691   -0.1474   -2.8254 H         1 4BX         0.0462
@<TRIPOS>BOND
     1    1    2 ar 
     2    1    4 ar 
     3    2    3 ar 
     4    3    7 ar 
     5    4    6 ar 
     6    6    5 1  
     7    5    9 1  
     8    6    7 ar 
     9    7    8 1  
    10    8    9 2  
    11    9   10 1  
    12   10   11 1  
    13   11   12 1  
    14   12   13 ar 
    15   12   14 ar 
    16    1   15 1  
    17    2   16 1  
    18    3   17 1  
    19    4   18 1  
    20    5   19 1  
    21   10   20 1  
    22   10   21 1  
    23   11   22 1  
    24   11   23 1  
@<TRIPOS>SUBSTRUCTURE
     1 4BX         1

