### 
### Created by X-TOOL on Mon Sep 10 21:13:00 2018
### 

@<TRIPOS>MOLECULE
3kad_ligand
   43    45     1     0     0
SMALL
GAST_HUCK


@<TRIPOS>ATOM
      1 C1         31.4660  -15.0670   -0.1880 C.ar      1 4C0        -0.0786
      2 C2         31.9410  -15.3660   -1.4600 C.ar      1 4C0        -0.0766
      3 C3         31.2360  -16.2400   -2.2790 C.ar      1 4C0        -0.0422
      4 C4         30.2850  -15.6430    0.2660 C.ar      1 4C0        -0.0656
      5 C5         29.5810  -16.5170   -0.5540 C.ar      1 4C0         0.0207
      6 C6         30.0550  -16.8150   -1.8230 C.ar      1 4C0         0.0783
      7 N7         29.1850  -17.6770   -2.3880 N.pl3     1 4C0        -0.2463
      8 C8         28.1910  -17.9160   -1.5030 C.2       1 4C0         0.1245
      9 N9         28.4340  -17.2060   -0.3790 N.2       1 4C0        -0.3179
     10 C10        27.0080  -18.8260   -1.7310 C.3       1 4C0         0.0647
     11 C11        25.8530  -18.0210   -2.3130 C.3       1 4C0         0.1119
     12 N12        26.1370  -17.6710   -3.6920 N.am      1 4C0        -0.2686
     13 C13        26.4370  -16.4250   -4.0450 C.2       1 4C0         0.1798
     14 O14        26.4700  -15.4990   -3.2510 O.2       1 4C0        -0.3968
     15 C15        26.7420  -16.1930   -5.5050 C.3       1 4C0         0.0470
     16 C16        28.0570  -15.4330   -5.6350 C.3       1 4C0        -0.0022
     17 C17        28.5960  -15.5950   -7.0370 C.ar      1 4C0        -0.0408
     18 C18        28.2010  -16.6790   -7.8130 C.ar      1 4C0        -0.0602
     19 C19        28.6970  -16.8280   -9.1030 C.ar      1 4C0        -0.0686
     20 C20        29.5880  -15.8930   -9.6170 C.ar      1 4C0        -0.0687
     21 C21        29.9830  -14.8090   -8.8410 C.ar      1 4C0        -0.0686
     22 C22        29.4870  -14.6600   -7.5510 C.ar      1 4C0        -0.0602
     23 C23        24.5830  -18.8110   -2.1940 C.2       1 4C0         0.0630
     24 O24        24.1120  -19.3410   -3.2230 O.co2     1 4C0        -0.5664
     25 O25        24.0440  -18.9080   -1.0710 O.co2     1 4C0        -0.5664
     26 H1         32.0165  -14.3848    0.4497 H         1 4C0         0.0516
     27 H2         32.8622  -14.9170   -1.8133 H         1 4C0         0.0528
     28 H3         31.6060  -16.4728   -3.2709 H         1 4C0         0.0541
     29 H4         29.9139  -15.4109    1.2577 H         1 4C0         0.0535
     30 H5         29.2641  -18.0833   -3.3312 H         1 4C0         0.2322
     31 H6         26.6986  -19.2720   -0.7742 H         1 4C0         0.0574
     32 H7         27.2894  -19.6242   -2.4337 H         1 4C0         0.0574
     33 H8         25.7414  -17.0918   -1.7350 H         1 4C0         0.0759
     34 H9         26.1064  -18.3834   -4.3931 H         1 4C0         0.1877
     35 H10        25.9318  -15.6042   -5.9598 H         1 4C0         0.0525
     36 H11        26.8256  -17.1611   -6.0205 H         1 4C0         0.0525
     37 H12        28.7848  -15.8335   -4.9139 H         1 4C0         0.0451
     38 H13        27.8858  -14.3661   -5.4291 H         1 4C0         0.0451
     39 H14        27.5062  -17.4080   -7.4120 H         1 4C0         0.0557
     40 H15        28.3890  -17.6731   -9.7080 H         1 4C0         0.0599
     41 H16        29.9749  -16.0090  -10.6229 H         1 4C0         0.0559
     42 H17        30.6778  -14.0800   -9.2420 H         1 4C0         0.0599
     43 H18        29.7950  -13.8149   -6.9460 H         1 4C0         0.0557
@<TRIPOS>BOND
     1    1    2 ar 
     2    1    4 ar 
     3    2    3 ar 
     4    3    6 ar 
     5    4    5 ar 
     6    5    6 ar 
     7    5    9 1  
     8    6    7 1  
     9    7    8 1  
    10    8    9 2  
    11    8   10 1  
    12   10   11 1  
    13   11   12 1  
    14   11   23 1  
    15   12   13 am 
    16   13   14 2  
    17   13   15 1  
    18   15   16 1  
    19   16   17 1  
    20   17   18 ar 
    21   17   22 ar 
    22   18   19 ar 
    23   19   20 ar 
    24   20   21 ar 
    25   21   22 ar 
    26   23   24 ar 
    27   23   25 ar 
    28    1   26 1  
    29    2   27 1  
    30    3   28 1  
    31    4   29 1  
    32    7   30 1  
    33   10   31 1  
    34   10   32 1  
    35   11   33 1  
    36   12   34 1  
    37   15   35 1  
    38   15   36 1  
    39   16   37 1  
    40   16   38 1  
    41   18   39 1  
    42   19   40 1  
    43   20   41 1  
    44   21   42 1  
    45   22   43 1  
@<TRIPOS>SUBSTRUCTURE
     1 4C0         1

