### 
### Created by X-TOOL on Mon Sep 10 21:13:01 2018
### 

@<TRIPOS>MOLECULE
3kaf_ligand
   40    43     1     0     0
SMALL
GAST_HUCK


@<TRIPOS>ATOM
      1 C1         39.4250  -18.6440   13.8430 C.ar      1 4D9        -0.0422
      2 C2         39.5920  -20.0110   13.6630 C.ar      1 4D9        -0.0766
      3 C3         39.3950  -20.5720   12.3980 C.ar      1 4D9        -0.0786
      4 C4         39.0440  -19.8190   11.2720 C.ar      1 4D9        -0.0656
      5 N5         38.8480  -16.5370   12.6120 N.pl3     1 4D9        -0.2463
      6 C6         39.0750  -17.8420   12.7620 C.ar      1 4D9         0.0783
      7 C7         38.8810  -18.4580   11.4310 C.ar      1 4D9         0.0207
      8 N8         38.5540  -17.4610   10.6150 N.2       1 4D9        -0.3179
      9 C9         38.5370  -16.3020   11.3270 C.2       1 4D9         0.1245
     10 C10        38.2230  -14.9440   10.7320 C.3       1 4D9         0.0646
     11 C11        39.4590  -14.0650   10.4470 C.3       1 4D9         0.1113
     12 C12        38.9880  -12.7680    9.8200 C.2       1 4D9         0.0629
     13 N13        40.5630  -14.6250    9.6610 N.am      1 4D9        -0.2681
     14 O14        38.7250  -12.7230    8.5820 O.co2     1 4D9        -0.5664
     15 O15        38.8700  -11.7700   10.5820 O.co2     1 4D9        -0.5664
     16 C16        40.8110  -15.8950    9.2800 C.2       1 4D9         0.2163
     17 C17        40.5640  -16.2580    7.8460 C.2       1 4D9         0.1050
     18 O18        41.2420  -16.7450   10.0490 O.2       1 4D9        -0.3858
     19 C19        40.0610  -15.4570    6.7990 C.2       1 4D9        -0.0363
     20 S20        40.9320  -17.9190    7.3540 S.3       1 4D9        -0.0231
     21 C21        40.4510  -17.6430    5.7510 C.ar      1 4D9         0.0418
     22 C22        39.9910  -16.2320    5.5810 C.ar      1 4D9        -0.0146
     23 C23        39.5440  -15.7990    4.3260 C.ar      1 4D9        -0.0622
     24 C24        39.5440  -16.7200    3.2730 C.ar      1 4D9        -0.0688
     25 C25        39.9870  -18.0550    3.4450 C.ar      1 4D9        -0.0679
     26 C26        40.4550  -18.5410    4.6780 C.ar      1 4D9        -0.0468
     27 H1         39.5670  -18.2034   14.8232 H         1 4D9         0.0541
     28 H2         39.8738  -20.6400   14.4997 H         1 4D9         0.0528
     29 H3         39.5202  -21.6427   12.2837 H         1 4D9         0.0516
     30 H4         38.9046  -20.2898   10.3056 H         1 4D9         0.0535
     31 H5         38.9021  -15.8278   13.3570 H         1 4D9         0.2322
     32 H6         37.5727  -14.4034   11.4355 H         1 4D9         0.0574
     33 H7         37.6876  -15.1005    9.7839 H         1 4D9         0.0574
     34 H8         39.8893  -13.8240   11.4302 H         1 4D9         0.0758
     35 H9         41.2425  -13.9567    9.3582 H         1 4D9         0.1866
     36 H10        39.7694  -14.4121    6.8943 H         1 4D9         0.0547
     37 H11        39.2078  -14.7796    4.1751 H         1 4D9         0.0594
     38 H12        39.1949  -16.4031    2.2969 H         1 4D9         0.0564
     39 H13        39.9641  -18.7263    2.5941 H         1 4D9         0.0589
     40 H14        40.8021  -19.5616    4.7921 H         1 4D9         0.0576
@<TRIPOS>BOND
     1    1    2 ar 
     2    1    6 ar 
     3    2    3 ar 
     4    3    4 ar 
     5    4    7 ar 
     6    6    5 1  
     7    5    9 1  
     8    6    7 ar 
     9    7    8 1  
    10    8    9 2  
    11    9   10 1  
    12   10   11 1  
    13   11   12 1  
    14   11   13 1  
    15   12   14 ar 
    16   12   15 ar 
    17   13   16 am 
    18   16   17 1  
    19   16   18 2  
    20   17   19 2  
    21   17   20 1  
    22   19   22 1  
    23   20   21 1  
    24   21   22 ar 
    25   21   26 ar 
    26   22   23 ar 
    27   23   24 ar 
    28   24   25 ar 
    29   25   26 ar 
    30    1   27 1  
    31    2   28 1  
    32    3   29 1  
    33    4   30 1  
    34    5   31 1  
    35   10   32 1  
    36   10   33 1  
    37   11   34 1  
    38   13   35 1  
    39   19   36 1  
    40   23   37 1  
    41   24   38 1  
    42   25   39 1  
    43   26   40 1  
@<TRIPOS>SUBSTRUCTURE
     1 4D9         1

