### 
### Created by X-TOOL on Mon Sep 10 21:13:01 2018
### 

@<TRIPOS>MOLECULE
3kag_ligand
   37    39     1     0     0
SMALL
GAST_HUCK


@<TRIPOS>ATOM
      1 C1        -31.6940   24.2470   26.6670 C.ar      1 4D7        -0.0786
      2 C2        -31.6130   23.7120   25.3860 C.ar      1 4D7        -0.0766
      3 C3        -32.6650   23.8830   24.4930 C.ar      1 4D7        -0.0422
      4 C4        -32.8260   24.9520   27.0570 C.ar      1 4D7        -0.0656
      5 N5        -35.0510   25.7340   26.2590 N.2       1 4D7        -0.3179
      6 C6        -33.8760   25.1210   26.1630 C.ar      1 4D7         0.0207
      7 C7        -33.7960   24.5890   24.8860 C.ar      1 4D7         0.0783
      8 N8        -34.9260   24.9010   24.2590 N.pl3     1 4D7        -0.2463
      9 C9        -35.6910   25.5990   25.0970 C.2       1 4D7         0.1245
     10 C10       -37.0800   26.1570   24.7780 C.3       1 4D7         0.0646
     11 C11       -36.9790   27.5190   24.0880 C.3       1 4D7         0.1107
     12 C12       -38.3560   28.1850   24.0690 C.2       1 4D7         0.0628
     13 O13       -38.7620   28.8030   25.0510 O.co2     1 4D7        -0.5664
     14 O14       -39.0700   28.1090   23.0700 O.co2     1 4D7        -0.5664
     15 N15       -36.5020   27.3360   22.7100 N.am      1 4D7        -0.2744
     16 C16       -35.2570   27.6330   22.3490 C.2       1 4D7         0.1757
     17 C17       -34.9330   27.3810   20.8750 C.2       1 4D7         0.0442
     18 O18       -34.4060   28.0780   23.1180 O.2       1 4D7        -0.4044
     19 C19       -35.2560   28.2180   19.8250 C.2       1 4D7         0.1204
     20 O20       -34.7990   27.6450   18.6810 O.3       1 4D7        -0.2580
     21 C21       -34.2010   26.4610   19.0650 C.2       1 4D7         0.0732
     22 C22       -34.2920   26.3200   20.3930 C.2       1 4D7        -0.0603
     23 C23       -35.9980   29.5520   19.9320 C.3       1 4D7         0.0069
     24 H1        -30.8730   24.1139   27.3622 H         1 4D7         0.0516
     25 H2        -30.7295   23.1615   25.0835 H         1 4D7         0.0528
     26 H3        -32.6033   23.4672   23.4938 H         1 4D7         0.0541
     27 H4        -32.8897   25.3688   28.0556 H         1 4D7         0.0535
     28 H5        -35.1685   24.6466   23.2908 H         1 4D7         0.2322
     29 H6        -37.6462   26.2694   25.7143 H         1 4D7         0.0574
     30 H7        -37.6056   25.4554   24.1136 H         1 4D7         0.0574
     31 H8        -36.2717   28.1568   24.6384 H         1 4D7         0.0757
     32 H9        -37.1332   26.9770   22.0225 H         1 4D7         0.1858
     33 H10       -33.7273   25.7499   18.3899 H         1 4D7         0.0874
     34 H11       -33.9087   25.4839   20.9760 H         1 4D7         0.0323
     35 H12       -36.1097   29.9909   18.9295 H         1 4D7         0.0450
     36 H13       -35.4254   30.2398   20.5716 H         1 4D7         0.0450
     37 H14       -36.9923   29.3843   20.3717 H         1 4D7         0.0450
@<TRIPOS>BOND
     1    1    2 ar 
     2    1    4 ar 
     3    2    3 ar 
     4    3    7 ar 
     5    4    6 ar 
     6    6    5 1  
     7    5    9 2  
     8    6    7 ar 
     9    7    8 1  
    10    8    9 1  
    11    9   10 1  
    12   10   11 1  
    13   11   12 1  
    14   11   15 1  
    15   12   13 ar 
    16   12   14 ar 
    17   15   16 am 
    18   16   17 1  
    19   16   18 2  
    20   17   19 2  
    21   17   22 1  
    22   19   20 1  
    23   19   23 1  
    24   20   21 1  
    25   21   22 2  
    26    1   24 1  
    27    2   25 1  
    28    3   26 1  
    29    4   27 1  
    30    8   28 1  
    31   10   29 1  
    32   10   30 1  
    33   11   31 1  
    34   15   32 1  
    35   21   33 1  
    36   22   34 1  
    37   23   35 1  
    38   23   36 1  
    39   23   37 1  
@<TRIPOS>SUBSTRUCTURE
     1 4D7         1

