### 
### Created by X-TOOL on Mon Sep 10 21:13:01 2018
### 

@<TRIPOS>MOLECULE
3kah_ligand
   47    50     1     0     0
SMALL
GAST_HUCK


@<TRIPOS>ATOM
      1 C1         32.0150  -24.0450  -15.6130 C.ar      1 4DH        -0.0786
      2 C2         32.1730  -24.7840  -14.4460 C.ar      1 4DH        -0.0766
      3 C3         33.3600  -25.4680  -14.2110 C.ar      1 4DH        -0.0422
      4 C4         33.0430  -23.9890  -16.5460 C.ar      1 4DH        -0.0656
      5 N5         35.3530  -24.7970  -17.0060 N.2       1 4DH        -0.3179
      6 C6         34.2290  -24.6740  -16.3090 C.ar      1 4DH         0.0207
      7 C7         34.3870  -25.4110  -15.1460 C.ar      1 4DH         0.0783
      8 N8         35.6000  -25.9510  -15.1850 N.pl3     1 4DH        -0.2463
      9 C9         36.1900  -25.5760  -16.3200 C.2       1 4DH         0.1245
     10 C10        37.5980  -25.9760  -16.7640 C.3       1 4DH         0.0647
     11 C11        37.5500  -27.1330  -17.7640 C.3       1 4DH         0.1115
     12 C12        38.9740  -27.5070  -18.1810 C.2       1 4DH         0.0629
     13 O13        39.3330  -27.3840  -19.3510 O.co2     1 4DH        -0.5664
     14 O14        39.7750  -27.9340  -17.3500 O.co2     1 4DH        -0.5664
     15 N15        36.7820  -26.7260  -18.9490 N.am      1 4DH        -0.2661
     16 C16        35.5200  -27.1020  -19.1330 C.2       1 4DH         0.2349
     17 C17        34.8740  -26.5870  -20.4210 C.2       1 4DH         0.1605
     18 O18        34.8900  -27.8080  -18.3480 O.2       1 4DH        -0.3821
     19 N19        33.5760  -26.4220  -20.6240 N.pl3     1 4DH        -0.1915
     20 N20        33.3790  -25.9940  -21.7610 N.2       1 4DH        -0.1992
     21 C21        34.5610  -25.8550  -22.3710 C.2       1 4DH         0.0485
     22 C22        35.5170  -26.2310  -21.5220 C.2       1 4DH        -0.0169
     23 C23        32.5180  -26.7100  -19.6290 C.3       1 4DH         0.0620
     24 C24        34.7590  -25.3960  -23.6680 C.ar      1 4DH        -0.0120
     25 C25        35.9150  -25.7400  -24.3580 C.ar      1 4DH        -0.0548
     26 C26        36.1120  -25.2820  -25.6560 C.ar      1 4DH        -0.0622
     27 C27        35.1530  -24.4780  -26.2620 C.ar      1 4DH        -0.0626
     28 C28        33.9970  -24.1340  -25.5720 C.ar      1 4DH        -0.0622
     29 C29        33.8000  -24.5930  -24.2740 C.ar      1 4DH        -0.0548
     30 H1         31.0888  -23.5120  -15.7951 H         1 4DH         0.0516
     31 H2         31.3701  -24.8268  -13.7190 H         1 4DH         0.0528
     32 H3         33.4844  -26.0442  -13.3013 H         1 4DH         0.0541
     33 H4         32.9205  -23.4128  -17.4560 H         1 4DH         0.0535
     34 H5         36.0140  -26.5562  -14.4617 H         1 4DH         0.2322
     35 H6         38.1785  -26.2863  -15.8827 H         1 4DH         0.0574
     36 H7         38.0850  -25.1110  -17.2380 H         1 4DH         0.0574
     37 H8         37.0658  -28.0023  -17.2951 H         1 4DH         0.0759
     38 H9         37.2216  -26.1491  -19.6374 H         1 4DH         0.1869
     39 H10        36.5920  -26.2428  -21.6959 H         1 4DH         0.0447
     40 H11        31.5337  -26.4825  -20.0642 H         1 4DH         0.0607
     41 H12        32.6762  -26.0886  -18.7352 H         1 4DH         0.0607
     42 H13        32.5580  -27.7729  -19.3484 H         1 4DH         0.0607
     43 H14        36.6632  -26.3653  -23.8844 H         1 4DH         0.0615
     44 H15        37.0129  -25.5516  -26.1953 H         1 4DH         0.0615
     45 H16        35.3073  -24.1194  -27.2733 H         1 4DH         0.0610
     46 H17        33.2490  -23.5081  -26.0452 H         1 4DH         0.0615
     47 H18        32.8986  -24.3245  -23.7350 H         1 4DH         0.0615
@<TRIPOS>BOND
     1    1    2 ar 
     2    1    4 ar 
     3    2    3 ar 
     4    3    7 ar 
     5    4    6 ar 
     6    6    5 1  
     7    5    9 2  
     8    6    7 ar 
     9    7    8 1  
    10    8    9 1  
    11    9   10 1  
    12   10   11 1  
    13   11   12 1  
    14   11   15 1  
    15   12   13 ar 
    16   12   14 ar 
    17   15   16 am 
    18   16   17 1  
    19   16   18 2  
    20   17   19 1  
    21   17   22 2  
    22   19   20 1  
    23   19   23 1  
    24   20   21 2  
    25   21   22 1  
    26   21   24 1  
    27   24   25 ar 
    28   24   29 ar 
    29   25   26 ar 
    30   26   27 ar 
    31   27   28 ar 
    32   28   29 ar 
    33    1   30 1  
    34    2   31 1  
    35    3   32 1  
    36    4   33 1  
    37    8   34 1  
    38   10   35 1  
    39   10   36 1  
    40   11   37 1  
    41   15   38 1  
    42   22   39 1  
    43   23   40 1  
    44   23   41 1  
    45   23   42 1  
    46   25   43 1  
    47   26   44 1  
    48   27   45 1  
    49   28   46 1  
    50   29   47 1  
@<TRIPOS>SUBSTRUCTURE
     1 4DH         1

