### 
### Created by X-TOOL on Mon Sep 10 21:13:01 2018
### 

@<TRIPOS>MOLECULE
3kai_ligand
   50    53     1     0     0
SMALL
GAST_HUCK


@<TRIPOS>ATOM
      1 C1         38.9240  -18.7680   10.7350 C.ar      1 4FI        -0.0567
      2 C2         38.7970  -16.4410   11.3420 C.ar      1 4FI        -0.0384
      3 C3         39.2600  -16.7480   12.6160 C.ar      1 4FI        -0.0547
      4 C4         38.4720  -14.9920   10.9740 C.3       1 4FI         0.0161
      5 C5         39.5060  -14.4290    9.9980 C.3       1 4FI         0.1035
      6 C6         39.1790  -12.9650    9.6960 C.2       1 4FI         0.0621
      7 N7         39.4780  -15.2060    8.7510 N.am      1 4FI        -0.2669
      8 O8         38.7960  -12.6310    8.5760 O.co2     1 4FI        -0.5664
      9 O9         39.2970  -12.1070   10.5700 O.co2     1 4FI        -0.5664
     10 C10        40.5250  -15.9160    8.3390 C.2       1 4FI         0.2348
     11 C11        38.6290  -17.4510   10.4020 C.ar      1 4FI        -0.0564
     12 O12        41.5900  -15.9880    8.9490 O.2       1 4FI        -0.3821
     13 C13        40.3200  -16.6630    7.0190 C.2       1 4FI         0.1605
     14 N14        40.7450  -17.8880    6.7490 N.pl3     1 4FI        -0.1915
     15 N15        40.4210  -18.2010    5.6030 N.2       1 4FI        -0.1992
     16 C16        39.7570  -17.1770    5.0570 C.2       1 4FI         0.0485
     17 C17        39.6900  -16.1940    5.9540 C.2       1 4FI        -0.0169
     18 C18        39.2280  -17.1440    3.7720 C.ar      1 4FI        -0.0120
     19 C19        38.9360  -15.9250    3.1720 C.ar      1 4FI        -0.0548
     20 C20        38.4070  -15.8910    1.8870 C.ar      1 4FI        -0.0622
     21 C21        38.1690  -17.0770    1.2020 C.ar      1 4FI        -0.0626
     22 C22        38.4610  -18.2970    1.8020 C.ar      1 4FI        -0.0622
     23 C23        38.9900  -18.3300    3.0870 C.ar      1 4FI        -0.0548
     24 C24        41.4960  -18.7520    7.6870 C.3       1 4FI         0.0620
     25 C25        39.3880  -19.0740   12.0100 C.ar      1 4FI        -0.0222
     26 C26        39.5560  -18.0640   12.9500 C.ar      1 4FI        -0.0259
     27 C27        40.0190  -18.3710   14.2240 C.ar      1 4FI        -0.0578
     28 C28        40.3140  -19.6880   14.5580 C.ar      1 4FI        -0.0637
     29 C29        40.1460  -20.6980   13.6180 C.ar      1 4FI        -0.0634
     30 C30        39.6830  -20.3910   12.3440 C.ar      1 4FI        -0.0568
     31 H1         38.7926  -19.5556   10.0018 H         1 4FI         0.0620
     32 H2         39.3903  -15.9605   13.3494 H         1 4FI         0.0531
     33 H3         38.4702  -14.3804   11.8883 H         1 4FI         0.0469
     34 H4         37.4774  -14.9543   10.5056 H         1 4FI         0.0469
     35 H5         40.5077  -14.4950   10.4477 H         1 4FI         0.0749
     36 H6         38.6467  -15.2009    8.1952 H         1 4FI         0.1869
     37 H7         38.2677  -17.2115    9.4085 H         1 4FI         0.0586
     38 H8         39.2200  -15.2187    5.8365 H         1 4FI         0.0447
     39 H9         39.1209  -15.0001    3.7064 H         1 4FI         0.0615
     40 H10        38.1801  -14.9398    1.4192 H         1 4FI         0.0615
     41 H11        37.7558  -17.0508    0.2002 H         1 4FI         0.0610
     42 H12        38.2762  -19.2220    1.2678 H         1 4FI         0.0615
     43 H13        39.2170  -19.2810    3.5552 H         1 4FI         0.0615
     44 H14        41.7198  -19.7131    7.2010 H         1 4FI         0.0607
     45 H15        40.8900  -18.9290    8.5878 H         1 4FI         0.0607
     46 H16        42.4364  -18.2562    7.9693 H         1 4FI         0.0607
     47 H17        40.1501  -17.5835   14.9573 H         1 4FI         0.0603
     48 H18        40.6751  -19.9272   15.5517 H         1 4FI         0.0611
     49 H19        40.3760  -21.7248   13.8785 H         1 4FI         0.0598
     50 H20        39.5519  -21.1785   11.6107 H         1 4FI         0.0619
@<TRIPOS>BOND
     1   11    1 ar 
     2    1   25 ar 
     3    2    3 ar 
     4    2    4 1  
     5    2   11 ar 
     6    3   26 ar 
     7    4    5 1  
     8    5    6 1  
     9    5    7 1  
    10    6    8 ar 
    11    6    9 ar 
    12    7   10 am 
    13   10   12 2  
    14   10   13 1  
    15   13   14 1  
    16   13   17 2  
    17   14   15 1  
    18   14   24 1  
    19   15   16 2  
    20   16   17 1  
    21   16   18 1  
    22   18   19 ar 
    23   18   23 ar 
    24   19   20 ar 
    25   20   21 ar 
    26   21   22 ar 
    27   22   23 ar 
    28   25   26 ar 
    29   25   30 ar 
    30   26   27 ar 
    31   27   28 ar 
    32   28   29 ar 
    33   29   30 ar 
    34    1   31 1  
    35    3   32 1  
    36    4   33 1  
    37    4   34 1  
    38    5   35 1  
    39    7   36 1  
    40   11   37 1  
    41   17   38 1  
    42   19   39 1  
    43   20   40 1  
    44   21   41 1  
    45   22   42 1  
    46   23   43 1  
    47   24   44 1  
    48   24   45 1  
    49   24   46 1  
    50   27   47 1  
    51   28   48 1  
    52   29   49 1  
    53   30   50 1  
@<TRIPOS>SUBSTRUCTURE
     1 4FI         1

