### 
### Created by X-TOOL on Mon Sep 10 21:13:04 2018
### 

@<TRIPOS>MOLECULE
3kb7_ligand
   62    66     1     0     0
SMALL
GAST_HUCK


@<TRIPOS>ATOM
      1 N1         42.3370  -12.3940   17.6890 N.ar      1 071        -0.2659
      2 C2         43.6170  -12.8200   17.5630 C.ar      1 071         0.1947
      3 N3         44.0040  -13.4420   16.4160 N.ar      1 071        -0.2603
      4 C4         41.4510  -12.6200   16.6960 C.ar      1 071         0.0111
      5 C5         41.8400  -13.2620   15.5050 C.ar      1 071         0.0021
      6 C6         43.1620  -13.6280   15.3640 C.ar      1 071         0.0758
      7 C7         41.1010  -15.0100   13.9670 C.3       1 071        -0.0140
      8 C8         40.8660  -13.5510   14.3700 C.3       1 071        -0.0073
      9 C9         42.5280  -14.9780   13.4060 C.2       1 071         0.0105
     10 C10        43.6300  -14.4550   14.2270 C.2       1 071         0.1142
     11 N11        44.8250  -14.9220   13.8770 N.pl3     1 071        -0.1981
     12 N12        44.6610  -15.8160   12.7820 N.2       1 071        -0.1840
     13 C13        43.3190  -15.9150   12.5700 C.2       1 071         0.1242
     14 C14        42.6180  -16.7060   11.5010 C.2       1 071         0.2083
     15 N15        43.2440  -17.7910   11.0530 N.am      1 071        -0.3004
     16 O16        41.5080  -16.4190   11.0700 O.2       1 071        -0.3873
     17 C17        46.2210  -14.6910   14.3180 C.3       1 071         0.0599
     18 N18        44.5070  -12.6200   18.5800 N.pl3     1 071        -0.2514
     19 C19        45.7920  -13.0980   18.5740 C.ar      1 071         0.0828
     20 C20        46.1720  -14.3020   17.9810 C.ar      1 071        -0.0292
     21 C21        47.5020  -14.7130   18.0040 C.ar      1 071         0.0194
     22 C22        48.4430  -13.9000   18.6230 C.ar      1 071        -0.0644
     23 C23        48.0830  -12.6980   19.2020 C.ar      1 071        -0.0533
     24 C24        46.7550  -12.3100   19.1800 C.ar      1 071         0.1011
     25 O25        46.3880  -11.1280   19.7710 O.3       1 071        -0.3337
     26 C26        47.3570  -10.4700   20.5950 C.3       1 071         0.0541
     27 N30        47.9580  -15.9180   17.3980 N.pl3     1 071        -0.3067
     28 C31        47.2130  -17.1310   17.7040 C.3       1 071         0.0647
     29 C32        47.5160  -18.2510   16.7120 C.3       1 071        -0.0123
     30 N33        48.9450  -18.3110   16.4530 N.4       1 071         0.2358
     31 C34        49.6950  -17.0990   16.1700 C.3       1 071        -0.0123
     32 C35        49.4160  -16.0330   17.2300 C.3       1 071         0.0647
     33 C36        49.3770  -19.5100   15.7420 C.3       1 071        -0.0430
     34 H1         40.4220  -12.3016   16.8178 H         1 071         0.0810
     35 H2         40.3804  -15.3310   13.2004 H         1 071         0.0414
     36 H3         41.0319  -15.6783   14.8379 H         1 071         0.0414
     37 H4         41.0638  -12.8835   13.5184 H         1 071         0.0447
     38 H5         39.8298  -13.4120   14.7119 H         1 071         0.0447
     39 H6         42.8224  -18.3537   10.3420 H         1 071         0.1808
     40 H7         44.1362  -18.0439   11.4273 H         1 071         0.1808
     41 H8         46.9018  -15.3180   13.7236 H         1 071         0.0600
     42 H9         46.3173  -14.9521   15.3822 H         1 071         0.0600
     43 H10        46.4800  -13.6315   14.1755 H         1 071         0.0600
     44 H11        44.1945  -12.0787   19.3987 H         1 071         0.2129
     45 H12        45.4258  -14.9227   17.4984 H         1 071         0.0400
     46 H13        49.4799  -14.2146   18.6524 H         1 071         0.0393
     47 H14        48.8315  -12.0671   19.6675 H         1 071         0.0477
     48 H15        46.9256   -9.5421   20.9985 H         1 071         0.0568
     49 H16        48.2466  -10.2298   19.9943 H         1 071         0.0568
     50 H17        47.6430  -11.1326   21.4251 H         1 071         0.0568
     51 H18        46.1369  -16.9059   17.6683 H         1 071         0.0562
     52 H19        47.4836  -17.4689   18.7152 H         1 071         0.0562
     53 H20        46.9826  -18.0575   15.7696 H         1 071         0.0834
     54 H21        47.1812  -19.2108   17.1324 H         1 071         0.0834
     55 H22        49.2836  -18.5076   17.3818 H         1 071         0.2032
     56 H23        49.3996  -16.7133   15.1831 H         1 071         0.0834
     57 H24        50.7700  -17.3319   16.1659 H         1 071         0.0834
     58 H25        49.8782  -16.3272   18.1838 H         1 071         0.0562
     59 H26        49.8301  -15.0674   16.9043 H         1 071         0.0562
     60 H27        48.7408  -20.3586   16.0339 H         1 071         0.0778
     61 H28        50.4236  -19.7312   15.9983 H         1 071         0.0778
     62 H29        49.2921  -19.3440   14.6579 H         1 071         0.0778
@<TRIPOS>BOND
     1    1    2 ar 
     2    1    4 ar 
     3    2    3 ar 
     4    2   18 1  
     5    3    6 ar 
     6    4    5 ar 
     7    5    6 ar 
     8    5    8 1  
     9    6   10 1  
    10    8    7 1  
    11    7    9 1  
    12    9   10 2  
    13    9   13 1  
    14   10   11 1  
    15   11   12 1  
    16   11   17 1  
    17   12   13 2  
    18   13   14 1  
    19   14   15 am 
    20   14   16 2  
    21   18   19 1  
    22   19   20 ar 
    23   19   24 ar 
    24   20   21 ar 
    25   21   22 ar 
    26   21   27 1  
    27   22   23 ar 
    28   23   24 ar 
    29   24   25 1  
    30   25   26 1  
    31   27   28 1  
    32   27   32 1  
    33   28   29 1  
    34   29   30 1  
    35   30   31 1  
    36   30   33 1  
    37   31   32 1  
    38    4   34 1  
    39    7   35 1  
    40    7   36 1  
    41    8   37 1  
    42    8   38 1  
    43   15   39 1  
    44   15   40 1  
    45   17   41 1  
    46   17   42 1  
    47   17   43 1  
    48   18   44 1  
    49   20   45 1  
    50   22   46 1  
    51   23   47 1  
    52   26   48 1  
    53   26   49 1  
    54   26   50 1  
    55   28   51 1  
    56   28   52 1  
    57   29   53 1  
    58   29   54 1  
    59   30   55 1  
    60   31   56 1  
    61   31   57 1  
    62   32   58 1  
    63   32   59 1  
    64   33   60 1  
    65   33   61 1  
    66   33   62 1  
@<TRIPOS>SUBSTRUCTURE
     1 071         1

