### 
### Created by X-TOOL on Mon Sep 10 21:13:00 2018
### 

@<TRIPOS>MOLECULE
3kba_ligand
   49    51     1     0     0
SMALL
GAST_HUCK


@<TRIPOS>ATOM
      1 C01        -0.1650   -8.7890   22.1950 C.3       1 WOW        -0.0336
      2 C02        -1.3060   -9.7290   22.3430 C.ar      1 WOW        -0.0422
      3 C03        -1.4100  -10.8030   21.4580 C.ar      1 WOW        -0.0671
      4 C04        -2.4550  -11.7100   21.5860 C.ar      1 WOW        -0.0755
      5 C05        -3.4330  -11.5150   22.5570 C.ar      1 WOW        -0.0754
      6 C06        -3.3220  -10.4570   23.4540 C.ar      1 WOW        -0.0649
      7 C07        -2.2820   -9.5410   23.3290 C.ar      1 WOW        -0.0193
      8 C08        -2.1950   -8.4160   24.3000 C.3       1 WOW         0.0605
      9 N09        -3.3280   -8.1100   25.1100 N.pl3     1 WOW        -0.2883
     10 C10        -4.1000   -6.9470   24.8250 C.3       1 WOW         0.0605
     11 C11        -3.3990   -5.6290   24.8970 C.3       1 WOW        -0.0112
     12 C12        -3.1310   -5.2460   23.4420 C.3       1 WOW         0.0315
     13 N13        -3.9050   -6.1610   22.6220 N.am      1 WOW        -0.2364
     14 C14        -4.7670   -6.9470   23.5040 C.3       1 WOW         0.0523
     15 S15        -3.7230   -5.5970   21.1220 S.o2      1 WOW         0.0386
     16 C16        -3.1370   -6.8660   20.0840 C.3       1 WOW         0.0734
     17 O17        -2.8210   -4.5020   21.1500 O.2       1 WOW        -0.1556
     18 O18        -4.9790   -5.1660   20.6430 O.2       1 WOW        -0.1556
     19 C19        -3.5200   -8.7700   26.3520 C.ar      1 WOW         0.0535
     20 C20        -4.6060   -8.4300   27.1590 C.ar      1 WOW        -0.0318
     21 C21        -4.7930   -9.0480   28.3910 C.ar      1 WOW        -0.0380
     22 C22        -3.8980  -10.0220   28.8140 C.ar      1 WOW         0.0950
     23 C23        -4.1100  -10.6660   30.1350 C.1       1 WOW         0.0862
     24 N24        -4.2790  -11.1670   31.1350 N.1       1 WOW        -0.3396
     25 C25        -2.8280  -10.3870   27.9910 C.ar      1 WOW         0.0648
     26 CL26       -1.6390  -11.5060   28.5170 Cl        1 WOW        -0.0625
     27 C27        -2.6160   -9.7370   26.7790 C.ar      1 WOW        -0.0180
     28 H1          0.4777   -9.1202   21.3660 H         1 WOW         0.0376
     29 H2          0.4188   -8.7713   23.1271 H         1 WOW         0.0376
     30 H3         -0.5467   -7.7796   21.9822 H         1 WOW         0.0376
     31 H4         -0.6757  -10.9297   20.6708 H         1 WOW         0.0537
     32 H5         -2.5086  -12.5704   20.9288 H         1 WOW         0.0541
     33 H6         -4.2813  -12.1874   22.6145 H         1 WOW         0.0541
     34 H7         -4.0473  -10.3461   24.2519 H         1 WOW         0.0538
     35 H8         -1.9580   -7.5101   23.7227 H         1 WOW         0.0667
     36 H9         -1.3633   -8.6438   24.9829 H         1 WOW         0.0667
     37 H10        -4.8886   -6.9334   25.5917 H         1 WOW         0.0573
     38 H11        -2.4543   -5.7229   25.4527 H         1 WOW         0.0304
     39 H12        -4.0376   -4.8771   25.3837 H         1 WOW         0.0304
     40 H13        -2.0595   -5.3464   23.2144 H         1 WOW         0.0479
     41 H14        -3.4495   -4.2094   23.2577 H         1 WOW         0.0479
     42 H15        -5.7626   -6.4850   23.5776 H         1 WOW         0.0501
     43 H16        -4.8668   -7.9749   23.1253 H         1 WOW         0.0501
     44 H17        -3.0145   -6.4768   19.0625 H         1 WOW         0.0482
     45 H18        -3.8589   -7.6959   20.0760 H         1 WOW         0.0482
     46 H19        -2.1674   -7.2269   20.4576 H         1 WOW         0.0482
     47 H20        -5.3103   -7.6776   26.8230 H         1 WOW         0.0546
     48 H21        -5.6329   -8.7708   29.0177 H         1 WOW         0.0685
     49 H22        -1.7523   -9.9826   26.1718 H         1 WOW         0.0550
@<TRIPOS>BOND
     1    1    2 1  
     2    2    3 ar 
     3    2    7 ar 
     4    3    4 ar 
     5    4    5 ar 
     6    5    6 ar 
     7    6    7 ar 
     8    7    8 1  
     9    8    9 1  
    10    9   10 1  
    11    9   19 1  
    12   10   11 1  
    13   10   14 1  
    14   11   12 1  
    15   12   13 1  
    16   13   14 1  
    17   13   15 am 
    18   15   16 1  
    19   15   17 2  
    20   15   18 2  
    21   19   20 ar 
    22   19   27 ar 
    23   20   21 ar 
    24   21   22 ar 
    25   22   23 1  
    26   22   25 ar 
    27   23   24 3  
    28   25   26 1  
    29   25   27 ar 
    30    1   28 1  
    31    1   29 1  
    32    1   30 1  
    33    3   31 1  
    34    4   32 1  
    35    5   33 1  
    36    6   34 1  
    37    8   35 1  
    38    8   36 1  
    39   10   37 1  
    40   11   38 1  
    41   11   39 1  
    42   12   40 1  
    43   12   41 1  
    44   14   42 1  
    45   14   43 1  
    46   16   44 1  
    47   16   45 1  
    48   16   46 1  
    49   20   47 1  
    50   21   48 1  
    51   27   49 1  
@<TRIPOS>SUBSTRUCTURE
     1 WOW         1

