### 
### Created by X-TOOL on Mon Sep 10 21:13:04 2018
### 

@<TRIPOS>MOLECULE
3kc3_ligand
   40    44     1     0     0
SMALL
GAST_HUCK


@<TRIPOS>ATOM
      1 C1         -8.2630   61.6110   -6.9080 C.ar      1 MK2        -0.0767
      2 C2         -6.9460   61.9610   -7.1100 C.ar      1 MK2        -0.0735
      3 C3         -8.8130   60.4690   -7.4320 C.ar      1 MK2        -0.0708
      4 C4         -6.0680   61.1860   -7.8570 C.ar      1 MK2        -0.0312
      5 C5         -7.6450   51.3230  -11.6390 C.ar      1 MK2        -0.0032
      6 C6         -7.4630   50.1710  -12.3830 C.ar      1 MK2        -0.0004
      7 C7         -8.1420   58.4300   -8.8800 C.2       1 MK2        -0.0400
      8 C8         -5.4570   54.9720  -12.1090 C.ar      1 MK2        -0.0421
      9 C9         -6.9830   55.7840  -10.4140 C.ar      1 MK2        -0.0328
     10 C10        -3.8190   56.7050  -12.6410 C.2       1 MK2         0.0173
     11 C11        -7.9730   59.6620   -8.1800 C.ar      1 MK2        -0.0097
     12 C12        -6.6440   60.0420   -8.3710 C.ar      1 MK2         0.1231
     13 C13        -7.0280   52.4680  -12.0770 C.ar      1 MK2         0.1306
     14 C14        -6.5400   54.7840  -11.2700 C.ar      1 MK2         0.0540
     15 C15        -4.9130   56.2340  -11.9460 C.ar      1 MK2         0.0011
     16 C16        -6.4330   57.0550  -10.2840 C.ar      1 MK2         0.0386
     17 C17        -6.9040   58.1400   -9.4380 C.2       1 MK2         0.1205
     18 C18        -5.3410   57.2750  -11.0970 C.ar      1 MK2         0.0922
     19 C19        -6.1770   51.2600  -13.8670 C.ar      1 MK2         0.1713
     20 N20        -5.4280   51.2150  -15.0520 N.pl3     1 MK2        -0.3062
     21 N21        -4.5600   58.3630  -11.2720 N.pl3     1 MK2        -0.2154
     22 N22        -6.7430   50.0980  -13.5050 N.ar      1 MK2        -0.2734
     23 N23        -3.6560   57.9940  -12.2010 N.2       1 MK2        -0.2080
     24 N24        -6.2790   52.4410  -13.1990 N.ar      1 MK2        -0.2393
     25 N25        -7.2390   53.5820  -11.2660 N.pl3     1 MK2        -0.2619
     26 O26        -5.9800   59.1210   -9.1350 O.3       1 MK2        -0.2539
     27 H1         -8.8895   62.2641   -6.3113 H         1 MK2         0.0527
     28 H2         -6.5794   62.8800   -6.6673 H         1 MK2         0.0543
     29 H3         -9.8532   60.2113   -7.2686 H         1 MK2         0.0544
     30 H4         -5.0304   61.4539   -8.0205 H         1 MK2         0.0558
     31 H5         -8.2534   51.3214  -10.7418 H         1 MK2         0.0575
     32 H6         -7.9387   49.2632  -12.0300 H         1 MK2         0.0845
     33 H7         -9.0534   57.8394   -8.9600 H         1 MK2         0.0360
     34 H8         -5.0831   54.2283  -12.8034 H         1 MK2         0.0489
     35 H9         -7.8375   55.5523   -9.7886 H         1 MK2         0.0526
     36 H10        -3.2178   56.1719  -13.3761 H         1 MK2         0.0702
     37 H11        -5.3391   50.3302  -15.5718 H         1 MK2         0.1824
     38 H12        -4.9668   52.0667  -15.4024 H         1 MK2         0.1824
     39 H13        -4.6382   59.2747  -10.7992 H         1 MK2         0.2452
     40 H14        -8.0048   53.5055  -10.5815 H         1 MK2         0.2132
@<TRIPOS>BOND
     1    2    1 ar 
     2    3    1 ar 
     3    4    2 ar 
     4   11    3 ar 
     5   12    4 ar 
     6    6    5 ar 
     7    5   13 ar 
     8   22    6 ar 
     9    7   11 1  
    10   17    7 2  
    11   14    8 ar 
    12    8   15 ar 
    13   14    9 ar 
    14    9   16 ar 
    15   15   10 1  
    16   10   23 2  
    17   12   11 ar 
    18   26   12 1  
    19   13   24 ar 
    20   13   25 1  
    21   25   14 1  
    22   15   18 ar 
    23   16   17 1  
    24   16   18 ar 
    25   17   26 1  
    26   18   21 1  
    27   19   20 1  
    28   19   22 ar 
    29   19   24 ar 
    30   21   23 1  
    31    1   27 1  
    32    2   28 1  
    33    3   29 1  
    34    4   30 1  
    35    5   31 1  
    36    6   32 1  
    37    7   33 1  
    38    8   34 1  
    39    9   35 1  
    40   10   36 1  
    41   20   37 1  
    42   20   38 1  
    43   21   39 1  
    44   25   40 1  
@<TRIPOS>SUBSTRUCTURE
     1 MK2         1

