### 
### Created by X-TOOL on Mon Sep 10 21:13:01 2018
### 

@<TRIPOS>MOLECULE
3kce_ligand
   21    22     1     0     0
SMALL
GAST_HUCK


@<TRIPOS>ATOM
      1 C1          4.6570   44.5260   11.5760 C.2       1 4BY         0.0912
      2 N2          4.3070   43.5550   10.7230 N.pl3     1 4BY        -0.2733
      3 C3          5.0860   44.0210   12.7380 C.2       1 4BY        -0.0494
      4 C4          5.0100   42.6880   12.6280 C.ar      1 4BY        -0.0289
      5 C5          4.5220   42.3910   11.3480 C.ar      1 4BY         0.0604
      6 C6          4.5490   46.0040   11.2330 C.2       1 4BY         0.0866
      7 C7          5.3230   41.6450   13.5020 C.ar      1 4BY        -0.0731
      8 O8          3.9740   46.2840   10.1500 O.co2     1 4BY        -0.5588
      9 C9          4.3650   41.0640   10.9470 C.ar      1 4BY        -0.0461
     10 O10         5.0260   46.8500   12.0290 O.co2     1 4BY        -0.5588
     11 C11         5.1470   40.3080   13.1010 C.ar      1 4BY        -0.0618
     12 C12         4.6680   40.0180   11.8210 C.ar      1 4BY        -0.0720
     13 C13         5.4800   39.1640   14.0680 C.3       1 4BY        -0.0371
     14 H1          3.9419   43.6799    9.7680 H         1 4BY         0.2250
     15 H2          5.4300   44.5838   13.6045 H         1 4BY         0.0348
     16 H3          5.7029   41.8662   14.4929 H         1 4BY         0.0468
     17 H4          4.0048   40.8431    9.9487 H         1 4BY         0.0537
     18 H5          4.5326   38.9888   11.5087 H         1 4BY         0.0498
     19 H6          5.8404   39.5816   15.0197 H         1 4BY         0.0370
     20 H7          6.2615   38.5274   13.6276 H         1 4BY         0.0370
     21 H8          4.5768   38.5630   14.2500 H         1 4BY         0.0370
@<TRIPOS>BOND
     1    1    2 1  
     2    1    3 2  
     3    1    6 1  
     4    2    5 1  
     5    3    4 1  
     6    4    5 ar 
     7    4    7 ar 
     8    5    9 ar 
     9    6    8 ar 
    10    6   10 ar 
    11    7   11 ar 
    12    9   12 ar 
    13   11   12 ar 
    14   11   13 1  
    15    2   14 1  
    16    3   15 1  
    17    7   16 1  
    18    9   17 1  
    19   12   18 1  
    20   13   19 1  
    21   13   20 1  
    22   13   21 1  
@<TRIPOS>SUBSTRUCTURE
     1 4BY         1

