### 
### Created by X-TOOL on Mon Sep 10 21:13:02 2018
### 

@<TRIPOS>MOLECULE
3kcf_ligand
   47    50     1     0     0
SMALL
GAST_HUCK


@<TRIPOS>ATOM
      1 C1         74.6250   34.2180   90.9430 C.3       1 JZO         0.0391
      2 O2         75.0070   33.0010   91.5870 O.3       1 JZO        -0.3707
      3 C3         75.3300   32.0130   90.6250 C.3       1 JZO         0.0796
      4 C4         75.7280   30.7270   91.2930 C.ar      1 JZO        -0.0252
      5 C5         76.3010   30.7230   92.6040 C.ar      1 JZO        -0.0651
      6 C6         76.6760   29.4940   93.2080 C.ar      1 JZO        -0.0755
      7 C7         76.4830   28.2690   92.5030 C.ar      1 JZO        -0.0714
      8 C8         75.9040   28.2670   91.1900 C.ar      1 JZO        -0.0374
      9 C9         75.5320   29.5060   90.5940 C.ar      1 JZO        -0.0617
     10 C10        75.7010   26.9840   90.4200 C.2       1 JZO         0.0671
     11 C11        75.1340   25.7990   90.8140 C.2       1 JZO         0.1084
     12 N12        75.1910   24.9110   89.7290 N.pl3     1 JZO        -0.1934
     13 C13        74.6920   23.5040   89.6830 C.3       1 JZO         0.0472
     14 N14        75.7980   25.5490   88.6580 N.am      1 JZO        -0.1751
     15 C15        76.0480   24.9490   87.3340 C.3       1 JZO         0.0471
     16 C16        76.1190   26.7830   89.0000 C.2       1 JZO         0.2053
     17 O17        76.6700   27.6170   88.2680 O.2       1 JZO        -0.4018
     18 C18        74.5430   25.4630   92.1520 C.ar      1 JZO         0.0327
     19 C19        73.5620   26.3090   92.7600 C.ar      1 JZO        -0.0355
     20 C20        73.0010   25.9650   94.0260 C.ar      1 JZO        -0.0274
     21 C21        73.4150   24.7750   94.6820 C.ar      1 JZO         0.0773
     22 N22        72.8980   24.4110   95.8780 N.ar      1 JZO        -0.2681
     23 C23        73.2800   23.2680   96.5200 C.ar      1 JZO         0.0439
     24 C24        74.2480   22.4370   95.9150 C.ar      1 JZO         0.0438
     25 N25        74.7770   22.7910   94.7150 N.ar      1 JZO        -0.2683
     26 C26        74.3970   23.9260   94.0770 C.ar      1 JZO         0.0796
     27 C27        74.9560   24.2720   92.8250 C.ar      1 JZO        -0.0139
     28 H1         74.3778   34.9733   91.7035 H         1 JZO         0.0526
     29 H2         73.7458   34.0363   90.3075 H         1 JZO         0.0526
     30 H3         75.4573   34.5813   90.3223 H         1 JZO         0.0526
     31 H4         76.1659   32.3717   90.0065 H         1 JZO         0.0722
     32 H5         74.4530   31.8312   89.9865 H         1 JZO         0.0722
     33 H6         76.4485   31.6564   93.1351 H         1 JZO         0.0501
     34 H7         77.1078   29.4866   94.2023 H         1 JZO         0.0582
     35 H8         76.7761   27.3321   92.9628 H         1 JZO         0.0501
     36 H9         75.0968   29.5173   89.6013 H         1 JZO         0.0489
     37 H10        74.2550   23.2379   90.6568 H         1 JZO         0.0519
     38 H11        75.5282   22.8255   89.4587 H         1 JZO         0.0519
     39 H12        73.9252   23.4123   88.8997 H         1 JZO         0.0519
     40 H13        76.5424   25.6865   86.6847 H         1 JZO         0.0508
     41 H14        75.0920   24.6456   86.8825 H         1 JZO         0.0508
     42 H15        76.6962   24.0675   87.4473 H         1 JZO         0.0508
     43 H16        73.2438   27.2148   92.2567 H         1 JZO         0.0712
     44 H17        72.2610   26.6099   94.4859 H         1 JZO         0.0677
     45 H18        72.8474   23.0031   97.4780 H         1 JZO         0.0952
     46 H19        74.5665   21.5237   96.4043 H         1 JZO         0.0950
     47 H20        75.7028   23.6295   92.3728 H         1 JZO         0.0729
@<TRIPOS>BOND
     1    1    2 1  
     2    2    3 1  
     3    3    4 1  
     4    4    5 ar 
     5    4    9 ar 
     6    5    6 ar 
     7    6    7 ar 
     8    7    8 ar 
     9    8    9 ar 
    10    8   10 1  
    11   10   11 2  
    12   10   16 1  
    13   11   12 1  
    14   11   18 1  
    15   12   13 1  
    16   12   14 1  
    17   14   15 1  
    18   14   16 am 
    19   16   17 2  
    20   18   19 ar 
    21   18   27 ar 
    22   19   20 ar 
    23   20   21 ar 
    24   21   22 ar 
    25   21   26 ar 
    26   22   23 ar 
    27   23   24 ar 
    28   24   25 ar 
    29   25   26 ar 
    30   26   27 ar 
    31    1   28 1  
    32    1   29 1  
    33    1   30 1  
    34    3   31 1  
    35    3   32 1  
    36    5   33 1  
    37    6   34 1  
    38    7   35 1  
    39    9   36 1  
    40   13   37 1  
    41   13   38 1  
    42   13   39 1  
    43   15   40 1  
    44   15   41 1  
    45   15   42 1  
    46   19   43 1  
    47   20   44 1  
    48   23   45 1  
    49   24   46 1  
    50   27   47 1  
@<TRIPOS>SUBSTRUCTURE
     1 JZO         1

