### 
### Created by X-TOOL on Mon Sep 10 21:13:04 2018
### 

@<TRIPOS>MOLECULE
3kdb_ligand
   86    90     1     0     0
SMALL
GAST_HUCK


@<TRIPOS>ATOM
      1 O8         16.1720   19.7610   18.2460 O.2       1 006        -0.3941
      2 C12        14.9720   19.9080   18.3080 C.2       1 006         0.2069
      3 C21        14.1210   18.7160   18.6630 C.3       1 006         0.1556
      4 O2         12.8480   19.0910   19.2010 O.3       1 006        -0.3054
      5 C45        11.9660   18.0460   19.3610 C.ar      1 006         0.0966
      6 C46        11.9330   17.2500   20.6250 C.ar      1 006        -0.0230
      7 C44        12.8260   17.5730   21.7930 C.3       1 006        -0.0348
      8 C47        11.0230   16.2040   20.7220 C.ar      1 006        -0.0759
      9 C40        10.1730   15.8850   19.6630 C.ar      1 006        -0.0862
     10 C41        10.1750   16.5910   18.4640 C.ar      1 006        -0.0759
     11 C42        11.0410   17.6600   18.2630 C.ar      1 006        -0.0230
     12 C43        11.0320   18.4150   16.9610 C.3       1 006        -0.0348
     13 N2         14.3550   21.0610   18.0380 N.am      1 006        -0.2750
     14 C13        15.1500   22.1960   17.5930 C.3       1 006         0.0945
     15 C15        14.5770   22.8430   16.3280 C.3       1 006         0.0086
     16 C22        14.3260   21.7680   15.2890 C.ar      1 006        -0.0406
     17 C23        15.3940   21.2690   14.5290 C.ar      1 006        -0.0603
     18 C24        15.1610   20.2750   13.5830 C.ar      1 006        -0.0686
     19 C25        13.8700   19.7640   13.3920 C.ar      1 006        -0.0687
     20 C26        12.8060   20.2570   14.1440 C.ar      1 006        -0.0686
     21 C27        13.0280   21.2600   15.0940 C.ar      1 006        -0.0603
     22 C14        15.2960   23.1430   18.7730 C.3       1 006         0.1683
     23 O1         14.1300   23.9720   18.8530 O.3       1 006        -0.3689
     24 C16        16.5830   23.9190   18.6370 C.2       1 006         0.2129
     25 O3         16.6550   24.9000   17.9030 O.2       1 006        -0.3938
     26 N3         17.6330   23.4390   19.3100 N.am      1 006        -0.2383
     27 C19        17.7160   22.1440   20.0110 C.3       1 006         0.0831
     28 S1         19.3760   21.9540   20.5290 S.3       1 006        -0.1252
     29 C18        19.7650   23.6750   20.5160 C.3       1 006         0.0532
     30 C30        21.2650   23.8740   20.3390 C.3       1 006        -0.0463
     31 C29        19.2720   24.3150   21.8220 C.3       1 006        -0.0463
     32 C17        18.8770   24.2240   19.3950 C.3       1 006         0.1486
     33 C20        19.5800   24.2790   18.0540 C.2       1 006         0.2053
     34 O4         19.5990   23.3000   17.3280 O.2       1 006        -0.3943
     35 N4         20.1530   25.4420   17.7460 N.am      1 006        -0.2691
     36 C31        21.0700   25.5670   16.6340 C.3       1 006         0.1007
     37 C32        20.4350   26.1520   15.4360 C.ar      1 006        -0.0133
     38 C33        19.1930   25.8790   14.8800 C.ar      1 006        -0.0646
     39 C34        18.8180   26.5860   13.7300 C.ar      1 006        -0.0754
     40 C38        19.6550   27.5570   13.1540 C.ar      1 006        -0.0755
     41 C37        20.9130   27.8650   13.6900 C.ar      1 006        -0.0667
     42 C36        21.3060   27.1690   14.8340 C.ar      1 006        -0.0361
     43 C39        22.5760   27.2890   15.6250 C.3       1 006         0.0085
     44 C35        22.1730   26.6000   16.9330 C.3       1 006         0.0951
     45 O7         21.6980   27.6060   17.8290 O.3       1 006        -0.3857
     46 H1         14.6554   18.1112   19.4105 H         1 006         0.0853
     47 H2         13.9574   18.1166   17.7553 H         1 006         0.0853
     48 H3         12.6330   16.8619   22.6097 H         1 006         0.0366
     49 H4         12.6192   18.5958   22.1409 H         1 006         0.0366
     50 H5         13.8784   17.4973   21.4820 H         1 006         0.0366
     51 H6         10.9729   15.6255   21.6374 H         1 006         0.0471
     52 H7          9.4847   15.0555   19.7785 H         1 006         0.0489
     53 H8          9.4906   16.3030   17.6742 H         1 006         0.0471
     54 H9         11.7829   19.2180   16.9976 H         1 006         0.0366
     55 H10        10.0358   18.8518   16.7973 H         1 006         0.0366
     56 H11        11.2708   17.7271   16.1365 H         1 006         0.0366
     57 H12        13.3636   21.1432   18.1398 H         1 006         0.1859
     58 H13        16.1542   21.8292   17.3340 H         1 006         0.0630
     59 H14        15.2947   23.5767   15.9324 H         1 006         0.0451
     60 H15        13.6308   23.3492   16.5697 H         1 006         0.0451
     61 H16        16.3958   21.6555   14.6776 H         1 006         0.0557
     62 H17        15.9840   19.8933   12.9897 H         1 006         0.0599
     63 H18        13.6993   18.9844   12.6584 H         1 006         0.0559
     64 H19        11.8071   19.8640   13.9933 H         1 006         0.0599
     65 H20        12.2010   21.6455   15.6793 H         1 006         0.0557
     66 H21        15.3551   22.5507   19.6980 H         1 006         0.0863
     67 H22        14.2154   24.5664   19.5891 H         1 006         0.2134
     68 H23        17.4360   21.3265   19.3304 H         1 006         0.0640
     69 H24        17.0449   22.1416   20.8826 H         1 006         0.0640
     70 H25        21.4939   24.9499   20.3326 H         1 006         0.0245
     71 H26        21.5846   23.4255   19.3868 H         1 006         0.0245
     72 H27        21.7996   23.3904   21.1698 H         1 006         0.0245
     73 H28        19.5126   25.3883   21.8180 H         1 006         0.0245
     74 H29        19.7671   23.8315   22.6770 H         1 006         0.0245
     75 H30        18.1831   24.1837   21.9065 H         1 006         0.0245
     76 H31        18.6068   25.2559   19.6636 H         1 006         0.0816
     77 H32        19.9437   26.2493   18.2978 H         1 006         0.1881
     78 H33        21.4990   24.5793   16.4094 H         1 006         0.0732
     79 H34        18.5332   25.1412   15.3220 H         1 006         0.0538
     80 H35        17.8573   26.3787   13.2726 H         1 006         0.0541
     81 H36        19.3176   28.0836   12.2686 H         1 006         0.0541
     82 H37        21.5534   28.6121   13.2352 H         1 006         0.0537
     83 H38        22.8506   28.3412   15.7908 H         1 006         0.0439
     84 H39        23.4091   26.7657   15.1330 H         1 006         0.0439
     85 H40        23.0422   26.0908   17.3749 H         1 006         0.0659
     86 H41        22.3889   28.2382   17.9885 H         1 006         0.2103
@<TRIPOS>BOND
     1    1    2 2  
     2    2    3 1  
     3    2   13 am 
     4    3    4 1  
     5    4    5 1  
     6    5    6 ar 
     7    5   11 ar 
     8    6    7 1  
     9    6    8 ar 
    10    8    9 ar 
    11    9   10 ar 
    12   10   11 ar 
    13   11   12 1  
    14   13   14 1  
    15   14   15 1  
    16   14   22 1  
    17   15   16 1  
    18   16   17 ar 
    19   16   21 ar 
    20   17   18 ar 
    21   18   19 ar 
    22   19   20 ar 
    23   20   21 ar 
    24   22   23 1  
    25   22   24 1  
    26   24   25 2  
    27   24   26 am 
    28   26   27 1  
    29   26   32 1  
    30   27   28 1  
    31   28   29 1  
    32   29   30 1  
    33   29   31 1  
    34   29   32 1  
    35   32   33 1  
    36   33   34 2  
    37   33   35 am 
    38   35   36 1  
    39   36   37 1  
    40   36   44 1  
    41   37   38 ar 
    42   37   42 ar 
    43   38   39 ar 
    44   39   40 ar 
    45   40   41 ar 
    46   41   42 ar 
    47   42   43 1  
    48   43   44 1  
    49   44   45 1  
    50    3   46 1  
    51    3   47 1  
    52    7   48 1  
    53    7   49 1  
    54    7   50 1  
    55    8   51 1  
    56    9   52 1  
    57   10   53 1  
    58   12   54 1  
    59   12   55 1  
    60   12   56 1  
    61   13   57 1  
    62   14   58 1  
    63   15   59 1  
    64   15   60 1  
    65   17   61 1  
    66   18   62 1  
    67   19   63 1  
    68   20   64 1  
    69   21   65 1  
    70   22   66 1  
    71   23   67 1  
    72   27   68 1  
    73   27   69 1  
    74   30   70 1  
    75   30   71 1  
    76   30   72 1  
    77   31   73 1  
    78   31   74 1  
    79   31   75 1  
    80   32   76 1  
    81   35   77 1  
    82   36   78 1  
    83   38   79 1  
    84   39   80 1  
    85   40   81 1  
    86   41   82 1  
    87   43   83 1  
    88   43   84 1  
    89   44   85 1  
    90   45   86 1  
@<TRIPOS>SUBSTRUCTURE
     1 006         1

