### 
### Created by X-TOOL on Mon Sep 10 21:13:02 2018
### 

@<TRIPOS>MOLECULE
3kdc_ligand
   80    84     1     0     0
SMALL
GAST_HUCK


@<TRIPOS>ATOM
      1 S1         19.0900   22.1470   20.4520 S.3       1 JZP        -0.1252
      2 CL1        12.3610   17.6690   21.3570 Cl        1 JZP        -0.0788
      3 N2         14.1570   21.2080   17.7710 N.am      1 JZP        -0.2749
      4 O2         12.5220   19.2220   18.6710 O.3       1 JZP        -0.2958
      5 CL2        10.9940   18.8880   16.0050 Cl        1 JZP        -0.0788
      6 N3         17.3870   23.6120   19.1520 N.am      1 JZP        -0.2383
      7 O3         16.3310   25.1970   17.9420 O.2       1 JZP        -0.3938
      8 N4         19.9230   25.5870   17.5570 N.am      1 JZP        -0.2691
      9 O4         19.3530   23.4370   17.1670 O.2       1 JZP        -0.3943
     10 O5         13.9170   24.2070   18.6240 O.3       1 JZP        -0.3689
     11 O7         21.6270   27.5140   17.8270 O.3       1 JZP        -0.3857
     12 O8         15.9660   19.9430   18.2290 O.2       1 JZP        -0.3941
     13 C12        14.7570   20.0670   18.1290 C.2       1 JZP         0.2076
     14 C13        14.9220   22.3780   17.3640 C.3       1 JZP         0.0945
     15 C14        15.0390   23.3230   18.5620 C.3       1 JZP         0.1683
     16 C15        14.3410   23.0380   16.1090 C.3       1 JZP         0.0086
     17 C16        16.3170   24.1220   18.5250 C.2       1 JZP         0.2129
     18 C17        18.6460   24.3770   19.2200 C.3       1 JZP         0.1486
     19 C18        19.5500   23.8300   20.3260 C.3       1 JZP         0.0532
     20 C19        17.4670   22.3010   19.8110 C.3       1 JZP         0.0831
     21 C20        19.3450   24.4260   17.8850 C.2       1 JZP         0.2053
     22 C21        13.8830   18.8690   18.4160 C.3       1 JZP         0.1594
     23 C22        13.9620   21.9860   15.0950 C.ar      1 JZP        -0.0406
     24 C23        14.9490   21.2490   14.4360 C.ar      1 JZP        -0.0603
     25 C24        14.5820   20.2760   13.5060 C.ar      1 JZP        -0.0686
     26 C25        13.2340   20.0370   13.2390 C.ar      1 JZP        -0.0687
     27 C26        12.2490   20.7750   13.8970 C.ar      1 JZP        -0.0686
     28 C27        12.6140   21.7490   14.8250 C.ar      1 JZP        -0.0603
     29 C29        21.0490   23.9300   20.0560 C.3       1 JZP        -0.0463
     30 C30        19.2370   24.5230   21.6310 C.3       1 JZP        -0.0463
     31 C31        20.7920   25.7330   16.4030 C.3       1 JZP         0.1007
     32 C32        20.0660   26.2750   15.2420 C.ar      1 JZP        -0.0133
     33 C33        18.8850   25.8130   14.6750 C.ar      1 JZP        -0.0646
     34 C34        18.3920   26.5040   13.5630 C.ar      1 JZP        -0.0754
     35 C35        21.9070   26.7660   16.6410 C.3       1 JZP         0.0951
     36 C36        20.7590   27.4370   14.6840 C.ar      1 JZP        -0.0361
     37 C37        20.2490   28.1080   13.5820 C.ar      1 JZP        -0.0667
     38 C38        19.0570   27.6210   13.0310 C.ar      1 JZP        -0.0755
     39 C39        22.0080   27.7460   15.4610 C.3       1 JZP         0.0085
     40 C40         9.7250   16.0700   18.6660 C.ar      1 JZP        -0.0718
     41 C41        10.4720   16.3220   19.8200 C.ar      1 JZP        -0.0564
     42 C42        11.4100   17.3510   19.8710 C.ar      1 JZP         0.0687
     43 C45        11.6040   18.2030   18.6760 C.ar      1 JZP         0.1230
     44 C46        10.7920   17.8950   17.4760 C.ar      1 JZP         0.0687
     45 C47         9.8770   16.8430   17.5100 C.ar      1 JZP        -0.0564
     46 H1         13.1583   21.2585   17.7833 H         1 JZP         0.1859
     47 H2         19.7493   26.3876   18.1305 H         1 JZP         0.1881
     48 H3         14.0103   24.7833   19.3735 H         1 JZP         0.2134
     49 H4         22.3181   28.1501   17.9694 H         1 JZP         0.2103
     50 H5         15.9377   22.0437   17.1061 H         1 JZP         0.0630
     51 H6         15.0462   22.7103   19.4755 H         1 JZP         0.0863
     52 H7         15.0930   23.7107   15.6709 H         1 JZP         0.0451
     53 H8         13.4468   23.6168   16.3836 H         1 JZP         0.0451
     54 H9         18.3884   25.4121   19.4887 H         1 JZP         0.0816
     55 H10        16.7316   22.2431   20.6270 H         1 JZP         0.0640
     56 H11        17.2709   21.4999   19.0831 H         1 JZP         0.0640
     57 H12        13.9140   18.1956   17.5468 H         1 JZP         0.0860
     58 H13        14.2816   18.3472   19.2985 H         1 JZP         0.0860
     59 H14        15.9964   21.4325   14.6465 H         1 JZP         0.0557
     60 H15        15.3455   19.7049   12.9902 H         1 JZP         0.0599
     61 H16        12.9511   19.2771   12.5195 H         1 JZP         0.0559
     62 H17        11.2016   20.5910   13.6867 H         1 JZP         0.0599
     63 H18        11.8500   22.3226   15.3372 H         1 JZP         0.0557
     64 H19        21.3375   24.9885   19.9769 H         1 JZP         0.0245
     65 H20        21.2872   23.4137   19.1144 H         1 JZP         0.0245
     66 H21        21.6026   23.4599   20.8822 H         1 JZP         0.0245
     67 H22        19.5232   25.5828   21.5612 H         1 JZP         0.0245
     68 H23        19.8007   24.0439   22.4450 H         1 JZP         0.0245
     69 H24        18.1592   24.4471   21.8372 H         1 JZP         0.0245
     70 H25        21.2257   24.7515   16.1612 H         1 JZP         0.0732
     71 H26        18.3659   24.9510   15.0783 H         1 JZP         0.0538
     72 H27        17.4716   26.1682   13.0992 H         1 JZP         0.0541
     73 H28        22.8651   26.2384   16.7574 H         1 JZP         0.0659
     74 H29        20.7520   28.9729   13.1649 H         1 JZP         0.0537
     75 H30        18.6346   28.1216   12.1673 H         1 JZP         0.0541
     76 H31        22.9092   27.5550   14.8599 H         1 JZP         0.0439
     77 H32        22.0135   28.7896   15.8086 H         1 JZP         0.0439
     78 H33         9.0100   15.2552   18.6667 H         1 JZP         0.0524
     79 H34        10.3180   15.7023   20.6960 H         1 JZP         0.0596
     80 H35         9.2786   16.6225   16.6334 H         1 JZP         0.0596
@<TRIPOS>BOND
     1    1   19 1  
     2   20    1 1  
     3   42    2 1  
     4   13    3 am 
     5    3   14 1  
     6    4   22 1  
     7   43    4 1  
     8   44    5 1  
     9   17    6 am 
    10    6   18 1  
    11    6   20 1  
    12   17    7 2  
    13   21    8 am 
    14    8   31 1  
    15   21    9 2  
    16   15   10 1  
    17   35   11 1  
    18   13   12 2  
    19   22   13 1  
    20   14   15 1  
    21   14   16 1  
    22   15   17 1  
    23   16   23 1  
    24   18   19 1  
    25   18   21 1  
    26   19   29 1  
    27   19   30 1  
    28   23   24 ar 
    29   23   28 ar 
    30   24   25 ar 
    31   25   26 ar 
    32   27   26 ar 
    33   28   27 ar 
    34   31   32 1  
    35   31   35 1  
    36   32   33 ar 
    37   32   36 ar 
    38   33   34 ar 
    39   34   38 ar 
    40   35   39 1  
    41   36   37 ar 
    42   39   36 1  
    43   37   38 ar 
    44   41   40 ar 
    45   40   45 ar 
    46   42   41 ar 
    47   43   42 ar 
    48   43   44 ar 
    49   44   45 ar 
    50    3   46 1  
    51    8   47 1  
    52   10   48 1  
    53   11   49 1  
    54   14   50 1  
    55   15   51 1  
    56   16   52 1  
    57   16   53 1  
    58   18   54 1  
    59   20   55 1  
    60   20   56 1  
    61   22   57 1  
    62   22   58 1  
    63   24   59 1  
    64   25   60 1  
    65   26   61 1  
    66   27   62 1  
    67   28   63 1  
    68   29   64 1  
    69   29   65 1  
    70   29   66 1  
    71   30   67 1  
    72   30   68 1  
    73   30   69 1  
    74   31   70 1  
    75   33   71 1  
    76   34   72 1  
    77   35   73 1  
    78   37   74 1  
    79   38   75 1  
    80   39   76 1  
    81   39   77 1  
    82   40   78 1  
    83   41   79 1  
    84   45   80 1  
@<TRIPOS>SUBSTRUCTURE
     1 JZP         1

