### 
### Created by X-TOOL on Mon Sep 10 21:13:03 2018
### 

@<TRIPOS>MOLECULE
3kdd_ligand
   80    84     1     0     0
SMALL
GAST_HUCK


@<TRIPOS>ATOM
      1 F1         20.9360   27.7840   13.9310 F         1 JZQ        -0.1914
      2 S1         14.4870   22.1630   14.0230 S.3       1 JZQ        -0.1252
      3 F2         21.8310   26.5760   18.4360 F         1 JZQ        -0.1914
      4 N2         18.3120   24.8540   17.3280 N.am      1 JZQ        -0.2750
      5 O2         20.1430   26.5120   16.2750 O.3       1 JZQ        -0.2973
      6 N3         14.5650   22.9520   16.4800 N.am      1 JZQ        -0.2383
      7 O3         14.3210   23.1510   18.7030 O.2       1 JZQ        -0.3938
      8 N4         12.7750   20.1510   17.7610 N.am      1 JZQ        -0.2691
      9 O4         14.8870   20.1430   16.9220 O.2       1 JZQ        -0.3943
     10 O5         15.5370   25.5580   18.6490 O.3       1 JZQ        -0.3689
     11 O7         10.3050   19.0900   18.0860 O.3       1 JZQ        -0.3857
     12 O8         18.5390   23.4190   15.6150 O.2       1 JZQ        -0.3941
     13 C12        18.8880   24.4270   16.2010 C.2       1 JZQ         0.2072
     14 C13        17.3440   24.0400   18.0450 C.3       1 JZQ         0.0945
     15 C14        15.9400   24.5570   17.7100 C.3       1 JZQ         0.1683
     16 C15        17.6560   24.0460   19.5430 C.3       1 JZQ         0.0086
     17 C16        14.8800   23.4820   17.6680 C.2       1 JZQ         0.2129
     18 C17        13.4670   21.9680   16.3660 C.3       1 JZQ         0.1486
     19 C18        13.0320   21.7570   14.9090 C.3       1 JZQ         0.0532
     20 C19        15.2200   23.2390   15.1980 C.3       1 JZQ         0.0831
     21 C20        13.7810   20.6630   17.0470 C.2       1 JZQ         0.2053
     22 C21        20.0300   25.2410   15.6370 C.3       1 JZQ         0.1572
     23 C22        19.0230   23.4480   19.7890 C.ar      1 JZQ        -0.0406
     24 C23        19.1960   22.0620   19.7970 C.ar      1 JZQ        -0.0603
     25 C24        20.4580   21.5220   20.0270 C.ar      1 JZQ        -0.0686
     26 C25        21.5480   22.3650   20.2370 C.ar      1 JZQ        -0.0687
     27 C26        21.3800   23.7500   20.2270 C.ar      1 JZQ        -0.0686
     28 C27        20.1130   24.2890   20.0070 C.ar      1 JZQ        -0.0603
     29 C29        11.9340   22.7570   14.5910 C.3       1 JZQ        -0.0463
     30 C30        12.5540   20.3490   14.5550 C.3       1 JZQ        -0.0463
     31 C31        12.7160   18.7520   18.1230 C.3       1 JZQ         0.1007
     32 C32        12.9200   18.5560   19.5700 C.ar      1 JZQ        -0.0133
     33 C33        13.8460   19.2030   20.3720 C.ar      1 JZQ        -0.0646
     34 C34        13.8510   18.8560   21.7200 C.ar      1 JZQ        -0.0754
     35 C35        11.3370   18.1130   17.9220 C.3       1 JZQ         0.0951
     36 C36        12.0610   17.6130   20.0750 C.ar      1 JZQ        -0.0361
     37 C37        12.0500   17.2580   21.4170 C.ar      1 JZQ        -0.0667
     38 C38        12.9700   17.9010   22.2350 C.ar      1 JZQ        -0.0755
     39 C39        11.1530   17.0670   19.0160 C.3       1 JZQ         0.0085
     40 C40        23.8070   28.4700   16.0460 C.ar      1 JZQ        -0.0765
     41 C41        22.9650   28.4430   14.9370 C.ar      1 JZQ        -0.0408
     42 C42        21.7370   27.7920   15.0110 C.ar      1 JZQ         0.1582
     43 C45        21.3510   27.1650   16.1920 C.ar      1 JZQ         0.1609
     44 C46        22.1970   27.1830   17.2930 C.ar      1 JZQ         0.1582
     45 C47        23.4240   27.8360   17.2230 C.ar      1 JZQ        -0.0408
     46 H1         18.5525   25.7557   17.6874 H         1 JZQ         0.1859
     47 H2         12.0360   20.7568   18.0559 H         1 JZQ         0.1881
     48 H3         14.6665   25.8668   18.4269 H         1 JZQ         0.2134
     49 H4          9.4581   18.6789   17.9585 H         1 JZQ         0.2103
     50 H5         17.4207   23.0017   17.6900 H         1 JZQ         0.0630
     51 H6         15.9898   25.0166   16.7119 H         1 JZQ         0.0863
     52 H7         16.8978   23.4529   20.0754 H         1 JZQ         0.0451
     53 H8         17.6391   25.0812   19.9145 H         1 JZQ         0.0451
     54 H9         12.6043   22.3989   16.8951 H         1 JZQ         0.0816
     55 H10        15.0533   24.2877   14.9109 H         1 JZQ         0.0640
     56 H11        16.3005   23.0458   15.2701 H         1 JZQ         0.0640
     57 H12        20.9683   24.6855   15.7821 H         1 JZQ         0.0856
     58 H13        19.8586   25.3968   14.5617 H         1 JZQ         0.0856
     59 H14        18.3489   21.4081   19.6244 H         1 JZQ         0.0557
     60 H15        20.5931   20.4466   20.0428 H         1 JZQ         0.0599
     61 H16        22.5313   21.9423   20.4090 H         1 JZQ         0.0559
     62 H17        22.2296   24.4033   20.3893 H         1 JZQ         0.0599
     63 H18        19.9754   25.3642   20.0055 H         1 JZQ         0.0557
     64 H19        11.0249   22.4939   15.1517 H         1 JZQ         0.0245
     65 H20        11.7189   22.7348   13.5125 H         1 JZQ         0.0245
     66 H21        12.2629   23.7665   14.8786 H         1 JZQ         0.0245
     67 H22        11.6408   20.1181   15.1232 H         1 JZQ         0.0245
     68 H23        13.3381   19.6207   14.8095 H         1 JZQ         0.0245
     69 H24        12.3390   20.2948   13.4776 H         1 JZQ         0.0245
     70 H25        13.4775   18.2105   17.5426 H         1 JZQ         0.0732
     71 H26        14.5310   19.9411   19.9706 H         1 JZQ         0.0538
     72 H27        14.5560   19.3386   22.3872 H         1 JZQ         0.0541
     73 H28        11.2718   17.6531   16.9249 H         1 JZQ         0.0659
     74 H29        11.3599   16.5181   21.8059 H         1 JZQ         0.0537
     75 H30        13.0054   17.6580   23.2908 H         1 JZQ         0.0541
     76 H31        11.4738   16.0694   18.6815 H         1 JZQ         0.0439
     77 H32        10.1096   17.0201   19.3611 H         1 JZQ         0.0439
     78 H33        24.7596   28.9845   15.9918 H         1 JZQ         0.0503
     79 H34        23.2661   28.9291   14.0160 H         1 JZQ         0.0541
     80 H35        24.0807   27.8504   18.0853 H         1 JZQ         0.0541
@<TRIPOS>BOND
     1   42    1 1  
     2    2   19 1  
     3   20    2 1  
     4   44    3 1  
     5   13    4 am 
     6    4   14 1  
     7    5   22 1  
     8   43    5 1  
     9   17    6 am 
    10    6   18 1  
    11    6   20 1  
    12   17    7 2  
    13   21    8 am 
    14    8   31 1  
    15   21    9 2  
    16   15   10 1  
    17   35   11 1  
    18   13   12 2  
    19   22   13 1  
    20   14   15 1  
    21   14   16 1  
    22   15   17 1  
    23   16   23 1  
    24   18   19 1  
    25   18   21 1  
    26   19   29 1  
    27   19   30 1  
    28   23   24 ar 
    29   23   28 ar 
    30   24   25 ar 
    31   25   26 ar 
    32   27   26 ar 
    33   28   27 ar 
    34   31   32 1  
    35   31   35 1  
    36   32   33 ar 
    37   32   36 ar 
    38   33   34 ar 
    39   34   38 ar 
    40   35   39 1  
    41   36   37 ar 
    42   39   36 1  
    43   37   38 ar 
    44   41   40 ar 
    45   40   45 ar 
    46   42   41 ar 
    47   43   42 ar 
    48   43   44 ar 
    49   44   45 ar 
    50    4   46 1  
    51    8   47 1  
    52   10   48 1  
    53   11   49 1  
    54   14   50 1  
    55   15   51 1  
    56   16   52 1  
    57   16   53 1  
    58   18   54 1  
    59   20   55 1  
    60   20   56 1  
    61   22   57 1  
    62   22   58 1  
    63   24   59 1  
    64   25   60 1  
    65   26   61 1  
    66   27   62 1  
    67   28   63 1  
    68   29   64 1  
    69   29   65 1  
    70   29   66 1  
    71   30   67 1  
    72   30   68 1  
    73   30   69 1  
    74   31   70 1  
    75   33   71 1  
    76   34   72 1  
    77   35   73 1  
    78   37   74 1  
    79   38   75 1  
    80   39   76 1  
    81   39   77 1  
    82   40   78 1  
    83   41   79 1  
    84   45   80 1  
@<TRIPOS>SUBSTRUCTURE
     1 JZQ         1

