### 
### Created by X-TOOL on Mon Sep 10 21:13:02 2018
### 

@<TRIPOS>MOLECULE
3kdm_ligand
   49    52     1     0     0
SMALL
GAST_HUCK


@<TRIPOS>ATOM
      1 C1         -2.3190   -0.7560   20.8670 C.3       1 TES        -0.0611
      2 C2         -3.5090   -1.5580   20.3430 C.3       1 TES         0.0243
      3 C3         -4.0150   -1.0440   19.0150 C.2       1 TES         0.1764
      4 O3         -5.1770   -1.2470   18.6760 O.2       1 TES        -0.3440
      5 C4         -3.0820   -0.3000   18.1300 C.2       1 TES         0.0476
      6 C5         -1.8460    0.0410   18.5040 C.2       1 TES        -0.0413
      7 C6         -1.0220    0.8260   17.5120 C.3       1 TES        -0.0169
      8 C7         -0.0510    1.8220   18.1370 C.3       1 TES        -0.0393
      9 C8          0.6210    1.3010   19.4000 C.3       1 TES        -0.0416
     10 C9         -0.4330    0.7950   20.3830 C.3       1 TES        -0.0619
     11 C10        -1.2620   -0.3770   19.8300 C.3       1 TES        -0.0378
     12 C11         0.1210    0.5260   21.7990 C.3       1 TES        -0.0583
     13 C12         0.8720    1.7450   22.3820 C.3       1 TES        -0.0456
     14 C13         1.9910    2.1080   21.4220 C.3       1 TES        -0.0031
     15 C14         1.4230    2.4250   20.0590 C.3       1 TES        -0.0309
     16 C15         2.6250    2.9640   19.2960 C.3       1 TES        -0.0470
     17 C16         3.4790    3.6420   20.3730 C.3       1 TES        -0.0261
     18 C17         2.7260    3.4240   21.6900 C.3       1 TES         0.0609
     19 O17         3.5840    3.3960   22.8450 O.3       1 TES        -0.3912
     20 C18         3.0190    0.9660   21.3550 C.3       1 TES        -0.0569
     21 C19        -0.3810   -1.6000   19.5890 C.3       1 TES        -0.0890
     22 H1         -1.8263   -1.3545   21.6474 H         1 TES         0.0172
     23 H2         -2.7071    0.1739   21.3083 H         1 TES         0.0172
     24 H3         -4.3252   -1.4988   21.0780 H         1 TES         0.0483
     25 H4         -3.2009   -2.6069   20.2208 H         1 TES         0.0483
     26 H5         -3.4205   -0.0206   17.1334 H         1 TES         0.1318
     27 H6         -1.7104    1.3824   16.8590 H         1 TES         0.0450
     28 H7         -0.4406    0.1129   16.9092 H         1 TES         0.0450
     29 H8         -0.6055    2.7378   18.3897 H         1 TES         0.0293
     30 H9          0.7296    2.0579   17.3988 H         1 TES         0.0293
     31 H10         1.2983    0.4756   19.1356 H         1 TES         0.0298
     32 H11        -1.1434    1.6264   20.5012 H         1 TES         0.0187
     33 H12         0.8153   -0.3258   21.7503 H         1 TES         0.0259
     34 H13        -0.7184    0.2773   22.4649 H         1 TES         0.0259
     35 H14         1.2922    1.4893   23.3659 H         1 TES         0.0271
     36 H15         0.1807    2.5940   22.4879 H         1 TES         0.0271
     37 H16         0.7097    3.2540   20.1773 H         1 TES         0.0309
     38 H17         2.3093    3.6910   18.5333 H         1 TES         0.0269
     39 H18         3.1809    2.1458   18.8149 H         1 TES         0.0269
     40 H19         3.5816    4.7167   20.1622 H         1 TES         0.0290
     41 H20         4.4765    3.1806   20.4196 H         1 TES         0.0290
     42 H21         1.9957    4.2326   21.8408 H         1 TES         0.0599
     43 H22         3.0591    3.2584   23.6248 H         1 TES         0.2098
     44 H23         2.4994    0.0158   21.1626 H         1 TES         0.0236
     45 H24         3.5585    0.9017   22.3114 H         1 TES         0.0236
     46 H25         3.7343    1.1637   20.5430 H         1 TES         0.0236
     47 H26        -0.9956   -2.4226   19.1946 H         1 TES         0.0112
     48 H27         0.0825   -1.9106   20.5370 H         1 TES         0.0112
     49 H28         0.4049   -1.3482   18.8617 H         1 TES         0.0112
@<TRIPOS>BOND
     1    1    2 1  
     2    1   11 1  
     3    2    3 1  
     4    3    4 2  
     5    3    5 1  
     6    5    6 2  
     7    6    7 1  
     8    6   11 1  
     9    7    8 1  
    10    8    9 1  
    11    9   10 1  
    12    9   15 1  
    13   10   11 1  
    14   10   12 1  
    15   11   21 1  
    16   12   13 1  
    17   13   14 1  
    18   14   15 1  
    19   14   18 1  
    20   14   20 1  
    21   15   16 1  
    22   16   17 1  
    23   17   18 1  
    24   18   19 1  
    25    1   22 1  
    26    1   23 1  
    27    2   24 1  
    28    2   25 1  
    29    5   26 1  
    30    7   27 1  
    31    7   28 1  
    32    8   29 1  
    33    8   30 1  
    34    9   31 1  
    35   10   32 1  
    36   12   33 1  
    37   12   34 1  
    38   13   35 1  
    39   13   36 1  
    40   15   37 1  
    41   16   38 1  
    42   16   39 1  
    43   17   40 1  
    44   17   41 1  
    45   18   42 1  
    46   19   43 1  
    47   20   44 1  
    48   20   45 1  
    49   20   46 1  
    50   21   47 1  
    51   21   48 1  
    52   21   49 1  
@<TRIPOS>SUBSTRUCTURE
     1 TES         1

