### 
### Created by X-TOOL on Mon Sep 10 21:13:04 2018
### 

@<TRIPOS>MOLECULE
3kdt_ligand
   51    53     1     0     0
SMALL
GAST_HUCK


@<TRIPOS>ATOM
      1 C1          0.7750   17.1400   -8.1040 C.3       1 7HA        -0.0014
      2 C2          1.9370   17.2450   -9.0650 C.2       1 7HA         0.1166
      3 C3          3.2110   16.6640   -8.9570 C.2       1 7HA         0.0433
      4 N4          3.8940   17.0490  -10.0430 N.2       1 7HA        -0.3103
      5 C5          3.0600   17.8140  -10.7780 C.2       1 7HA         0.1881
      6 O6          1.9200   17.9160  -10.1670 O.3       1 7HA        -0.2355
      7 C7          3.4880   18.4620  -12.0520 C.ar      1 7HA         0.0315
      8 C8          2.6210   18.8410  -13.0830 C.ar      1 7HA        -0.0492
      9 C9          3.1520   19.4660  -14.2120 C.ar      1 7HA        -0.0474
     10 C10         4.5300   19.7200  -14.2870 C.ar      1 7HA         0.0402
     11 C11         5.3840   19.3560  -13.2520 C.ar      1 7HA        -0.0474
     12 C12         4.8530   18.7370  -12.1390 C.ar      1 7HA        -0.0492
     13 CL13        5.2700   20.4970  -15.6560 Cl        1 7HA        -0.0705
     14 C14         3.7690   15.7740   -7.8760 C.3       1 7HA         0.0973
     15 O15         2.6810   15.1100   -7.1990 O.3       1 7HA        -0.3130
     16 C16         2.7930   13.9700   -6.5350 C.ar      1 7HA         0.0863
     17 C17         4.0260   13.6090   -5.9810 C.ar      1 7HA        -0.0399
     18 C18         4.1240   12.4110   -5.2980 C.ar      1 7HA        -0.0771
     19 C19         3.0210   11.5810   -5.1520 C.ar      1 7HA        -0.0695
     20 C20         1.7900   11.9430   -5.6830 C.ar      1 7HA        -0.0296
     21 C21         1.6850   13.1370   -6.3850 C.ar      1 7HA        -0.0302
     22 C22         0.6280   11.0050   -5.5240 C.3       1 7HA         0.0688
     23 N23         0.2710   10.5680   -6.8690 N.am      1 7HA        -0.2249
     24 C24         1.1580    9.7170   -7.6680 C.3       1 7HA         0.0902
     25 C25         0.9050    8.2530   -7.4100 C.2       1 7HA         0.0574
     26 O26         1.8000    7.4600   -7.6350 O.co2     1 7HA        -0.5669
     27 O27        -0.2670    7.8290   -6.9510 O.co2     1 7HA        -0.5669
     28 C28        -0.8670   11.0040   -7.4070 C.2       1 7HA         0.3253
     29 O29        -1.6470   11.6520   -6.7330 O.2       1 7HA        -0.3772
     30 O30        -1.1360   10.7410   -8.6810 O.3       1 7HA        -0.2669
     31 C31        -2.0690    9.6790   -9.0220 C.3       1 7HA         0.0663
     32 H           0.4865   16.0943   -7.9977 H         1 7HA         0.0409
     33 H           1.0711   17.5371   -7.1331 H         1 7HA         0.0409
     34 H          -0.0676   17.7132   -8.4907 H         1 7HA         0.0409
     35 H           1.5504   18.6515  -13.0056 H         1 7HA         0.0625
     36 H           2.4977   19.7563  -15.0340 H         1 7HA         0.0622
     37 H           6.4534   19.5560  -13.3186 H         1 7HA         0.0622
     38 H           5.5101   18.4586  -11.3151 H         1 7HA         0.0625
     39 H           4.3318   16.3750   -7.1617 H         1 7HA         0.0708
     40 H           4.4315   15.0309   -8.3199 H         1 7HA         0.0708
     41 H           4.8936   14.2605   -6.0860 H         1 7HA         0.0486
     42 H           5.0807   12.1141   -4.8682 H         1 7HA         0.0572
     43 H           3.1220   10.6372   -4.6161 H         1 7HA         0.0465
     44 H           0.7289   13.4250   -6.8220 H         1 7HA         0.0479
     45 H          -0.2118   11.4990   -5.0354 H         1 7HA         0.0685
     46 H           0.8912   10.1568   -4.8921 H         1 7HA         0.0685
     47 H           2.1888    9.9415   -7.3939 H         1 7HA         0.0693
     48 H           0.9695    9.9181   -8.7226 H         1 7HA         0.0693
     49 H          -1.6992    8.7321   -8.6288 H         1 7HA         0.0575
     50 H          -3.0434    9.8992   -8.5859 H         1 7HA         0.0575
     51 H          -2.1614    9.6125  -10.1060 H         1 7HA         0.0575
@<TRIPOS>BOND
     1    1    2 1  
     2    2    3 2  
     3    2    6 1  
     4    3    4 1  
     5    3   14 1  
     6    4    5 2  
     7    5    6 1  
     8    5    7 1  
     9    7    8 ar 
    10    7   12 ar 
    11    8    9 ar 
    12    9   10 ar 
    13   10   11 ar 
    14   10   13 1  
    15   11   12 ar 
    16   14   15 1  
    17   15   16 1  
    18   16   17 ar 
    19   16   21 ar 
    20   17   18 ar 
    21   18   19 ar 
    22   19   20 ar 
    23   20   21 ar 
    24   20   22 1  
    25   22   23 1  
    26   23   24 1  
    27   23   28 am 
    28   24   25 1  
    29   25   26 ar 
    30   25   27 ar 
    31   28   29 2  
    32   28   30 1  
    33   30   31 1  
    34    1   32 1  
    35    1   33 1  
    36    1   34 1  
    37    8   35 1  
    38    9   36 1  
    39   11   37 1  
    40   12   38 1  
    41   14   39 1  
    42   14   40 1  
    43   17   41 1  
    44   18   42 1  
    45   19   43 1  
    46   21   44 1  
    47   22   45 1  
    48   22   46 1  
    49   24   47 1  
    50   24   48 1  
    51   31   49 1  
    52   31   50 1  
    53   31   51 1  
@<TRIPOS>SUBSTRUCTURE
     1 7HA         1

