### 
### Created by X-TOOL on Mon Sep 10 21:13:02 2018
### 

@<TRIPOS>MOLECULE
3kdu_ligand
   61    64     1     0     0
SMALL
GAST_HUCK


@<TRIPOS>ATOM
      1 C1         27.6340   48.4050   16.6830 C.3       1 NKS        -0.0359
      2 C2         28.3160   47.2920   17.4400 C.ar      1 NKS        -0.0560
      3 C3         28.0440   45.9620   17.1270 C.ar      1 NKS        -0.0679
      4 C4         28.6780   44.9410   17.8390 C.ar      1 NKS        -0.0348
      5 C5         29.5960   45.2270   18.8560 C.ar      1 NKS         0.1163
      6 C6         29.8470   46.5680   19.1520 C.ar      1 NKS        -0.0348
      7 C7         29.2170   47.6020   18.4550 C.ar      1 NKS        -0.0679
      8 O8         30.2080   44.2640   19.5560 O.3       1 NKS        -0.2043
      9 C9         30.9210   43.2700   19.0120 C.2       1 NKS         0.3486
     10 O10        30.6620   42.8660   17.8900 O.2       1 NKS        -0.3723
     11 N11        31.9280   42.6760   19.6680 N.am      1 NKS        -0.2214
     12 C12        32.2230   43.0200   21.0660 C.3       1 NKS         0.0691
     13 C13        33.5290   43.7690   21.1140 C.ar      1 NKS        -0.0296
     14 C14        34.6960   43.1210   21.5160 C.ar      1 NKS        -0.0695
     15 C15        35.9020   43.8180   21.5310 C.ar      1 NKS        -0.0771
     16 C16        35.9270   45.1550   21.1510 C.ar      1 NKS        -0.0399
     17 C17        34.7570   45.8000   20.7450 C.ar      1 NKS         0.0863
     18 C18        33.5550   45.1060   20.7240 C.ar      1 NKS        -0.0302
     19 O19        34.7660   47.0780   20.3700 O.3       1 NKS        -0.3130
     20 C20        35.8380   47.5700   19.5370 C.3       1 NKS         0.0973
     21 C21        35.3840   48.6360   18.5690 C.2       1 NKS         0.0433
     22 C22        34.2630   49.4830   18.5980 C.2       1 NKS         0.1166
     23 O23        34.3290   50.2150   17.5370 O.3       1 NKS        -0.2355
     24 C24        35.3790   49.9150   16.8360 C.2       1 NKS         0.1881
     25 N25        36.0670   48.9370   17.4440 N.2       1 NKS        -0.3103
     26 C26        35.7530   50.5990   15.5770 C.ar      1 NKS         0.0315
     27 C27        36.9770   50.3440   14.9600 C.ar      1 NKS        -0.0492
     28 C28        37.2970   51.0300   13.7880 C.ar      1 NKS        -0.0474
     29 C29        36.3870   51.9490   13.2610 C.ar      1 NKS         0.0402
     30 C30        35.1700   52.2010   13.8870 C.ar      1 NKS        -0.0474
     31 C31        34.8520   51.5240   15.0560 C.ar      1 NKS        -0.0492
     32 CL32       36.7660   52.8120   11.8070 Cl        1 NKS        -0.0705
     33 C33        33.1360   49.5830   19.6090 C.3       1 NKS        -0.0014
     34 C34        32.7320   41.6720   18.9520 C.3       1 NKS         0.0904
     35 C35        32.3940   40.2470   19.3450 C.2       1 NKS         0.0574
     36 O36        33.2020   39.3410   19.1780 O.co2     1 NKS        -0.5669
     37 O37        31.2110   39.9470   19.8710 O.co2     1 NKS        -0.5669
     38 H1         26.9626   47.9752   15.9250 H         1 NKS         0.0371
     39 H2         28.3920   49.0306   16.1889 H         1 NKS         0.0371
     40 H3         27.0501   49.0206   17.3831 H         1 NKS         0.0371
     41 H4         27.3441   45.7207   16.3352 H         1 NKS         0.0532
     42 H5         28.4548   43.9077   17.5993 H         1 NKS         0.0536
     43 H6         30.5478   46.8130   19.9419 H         1 NKS         0.0536
     44 H7         29.4278   48.6362   18.7023 H         1 NKS         0.0532
     45 H8         32.3015   42.1006   21.6648 H         1 NKS         0.0685
     46 H9         31.4185   43.6527   21.4692 H         1 NKS         0.0685
     47 H10        34.6651   42.0797   21.8155 H         1 NKS         0.0465
     48 H11        36.8154   43.3209   21.8371 H         1 NKS         0.0572
     49 H12        36.8629   45.7016   21.1700 H         1 NKS         0.0486
     50 H13        32.6440   45.6005   20.4067 H         1 NKS         0.0479
     51 H14        36.2524   46.7278   18.9634 H         1 NKS         0.0708
     52 H15        36.6203   47.9931   20.1842 H         1 NKS         0.0708
     53 H16        37.6685   49.6248   15.3838 H         1 NKS         0.0625
     54 H17        38.2436   50.8513   13.2909 H         1 NKS         0.0622
     55 H18        34.4766   52.9196   13.4653 H         1 NKS         0.0622
     56 H19        33.9107   51.7136   15.5590 H         1 NKS         0.0625
     57 H20        32.4318   50.3682   19.2966 H         1 NKS         0.0409
     58 H21        33.5505   49.8340   20.5965 H         1 NKS         0.0409
     59 H22        32.6087   48.6194   19.6668 H         1 NKS         0.0409
     60 H23        33.7945   41.8529   19.1721 H         1 NKS         0.0693
     61 H24        32.5562   41.7882   17.8724 H         1 NKS         0.0693
@<TRIPOS>BOND
     1    1    2 1  
     2    2    3 ar 
     3    2    7 ar 
     4    3    4 ar 
     5    4    5 ar 
     6    5    6 ar 
     7    5    8 1  
     8    6    7 ar 
     9    8    9 1  
    10    9   10 2  
    11    9   11 am 
    12   11   12 1  
    13   11   34 1  
    14   12   13 1  
    15   13   14 ar 
    16   13   18 ar 
    17   14   15 ar 
    18   15   16 ar 
    19   16   17 ar 
    20   17   18 ar 
    21   17   19 1  
    22   19   20 1  
    23   20   21 1  
    24   21   22 2  
    25   21   25 1  
    26   22   23 1  
    27   22   33 1  
    28   23   24 1  
    29   24   25 2  
    30   24   26 1  
    31   26   27 ar 
    32   26   31 ar 
    33   27   28 ar 
    34   28   29 ar 
    35   29   30 ar 
    36   29   32 1  
    37   30   31 ar 
    38   34   35 1  
    39   35   36 ar 
    40   35   37 ar 
    41    1   38 1  
    42    1   39 1  
    43    1   40 1  
    44    3   41 1  
    45    4   42 1  
    46    6   43 1  
    47    7   44 1  
    48   12   45 1  
    49   12   46 1  
    50   14   47 1  
    51   15   48 1  
    52   16   49 1  
    53   18   50 1  
    54   20   51 1  
    55   20   52 1  
    56   27   53 1  
    57   28   54 1  
    58   30   55 1  
    59   31   56 1  
    60   33   57 1  
    61   33   58 1  
    62   33   59 1  
    63   34   60 1  
    64   34   61 1  
@<TRIPOS>SUBSTRUCTURE
     1 NKS         1

