### 
### Created by X-TOOL on Mon Sep 10 21:13:02 2018
### 

@<TRIPOS>MOLECULE
3kec_ligand
   53    56     1     0     0
SMALL
GAST_HUCK


@<TRIPOS>ATOM
      1 C3         82.0980    9.6500   35.7790 C.ar      1 3KE        -0.0479
      2 C22        82.7220   10.8580   36.0090 C.ar      1 3KE         0.0151
      3 C7         86.2950    9.9820   35.6580 C.2       1 3KE         0.2069
      4 N2         86.9950    8.9940   35.0160 N.am      1 3KE        -0.2743
      5 C11        88.4260    9.1780   34.9210 C.3       1 3KE         0.0653
      6 C9         89.7000   10.9030   31.2400 C.ar      1 3KE         0.0032
      7 C12        90.1860    9.6850   31.6570 C.ar      1 3KE        -0.0542
      8 C14        89.7650    9.1390   32.8490 C.ar      1 3KE        -0.0546
      9 C20        88.8550    9.8030   33.6370 C.ar      1 3KE        -0.0182
     10 C16        88.3670   11.0240   33.2210 C.ar      1 3KE        -0.0546
     11 C18        88.7870   11.5710   32.0270 C.ar      1 3KE        -0.0542
     12 C2         82.8550    8.5290   35.5030 C.ar      1 3KE        -0.0558
     13 C23        84.0950   10.9380   35.9650 C.ar      1 3KE        -0.0320
     14 C8         84.8380    9.8150   35.6910 C.ar      1 3KE         0.0506
     15 C6         84.2340    8.6000   35.4580 C.ar      1 3KE        -0.0421
     16 O3         86.7990   10.9750   36.1690 O.2       1 3KE        -0.3844
     17 C24        90.1690   11.4700   29.9610 C.2       1 3KE         0.0584
     18 O4         90.1810   12.7300   29.8510 O.co2     1 3KE        -0.5625
     19 O5         90.5280   10.6420   29.0800 O.co2     1 3KE        -0.5625
     20 N1         80.6850   12.2450   36.0680 N.2       1 3KE        -0.1391
     21 N5         80.5640   13.4890   36.5520 N.pl3     1 3KE        -0.0799
     22 N3         81.6710   14.0570   37.0550 N.2       1 3KE        -0.0474
     23 N4         82.6070   13.1310   36.9020 N.2       1 3KE        -0.1750
     24 C5         81.9900   12.0560   36.3110 C.2       1 3KE         0.1501
     25 C1         79.3030   14.1920   36.5280 C.3       1 3KE         0.1266
     26 C21        79.3940   17.4220   33.7590 C.ar      1 3KE         0.0837
     27 C15        78.5060   17.4310   34.8210 C.ar      1 3KE        -0.0395
     28 C10        78.4990   16.3730   35.7050 C.ar      1 3KE        -0.0658
     29 C4         79.3630   15.3110   35.5430 C.ar      1 3KE        -0.0183
     30 C19        80.2510   15.3110   34.4800 C.ar      1 3KE        -0.0658
     31 C17        80.2670   16.3680   33.5890 C.ar      1 3KE        -0.0395
     32 O1         79.4330   18.4670   32.8370 O.3       1 3KE        -0.3257
     33 C13        78.2980   19.3070   33.0240 C.3       1 3KE         0.0579
     34 H          81.0108    9.5805   35.8150 H         1 3KE         0.0658
     35 H          86.5315    8.1732   34.6263 H         1 3KE         0.1873
     36 H          88.8899    8.1934   34.9798 H         1 3KE         0.0689
     37 H          88.7273    9.8444   35.7292 H         1 3KE         0.0689
     38 H          90.9080    9.1496   31.0405 H         1 3KE         0.0634
     39 H          90.1560    8.1735   33.1700 H         1 3KE         0.0565
     40 H          87.6459   11.5591   33.8390 H         1 3KE         0.0565
     41 H          88.3953   12.5356   31.7043 H         1 3KE         0.0634
     42 H          82.3587    7.5763   35.3183 H         1 3KE         0.0628
     43 H          84.5924   11.8906   36.1472 H         1 3KE         0.0677
     44 H          84.8306    7.7136   35.2428 H         1 3KE         0.0667
     45 H          79.0985   14.5966   37.5192 H         1 3KE         0.0820
     46 H          78.5118   13.5005   36.2383 H         1 3KE         0.0820
     47 H          77.8191   18.2663   34.9570 H         1 3KE         0.0525
     48 H          77.8015   16.3763   36.5426 H         1 3KE         0.0531
     49 H          80.9386   14.4760   34.3457 H         1 3KE         0.0531
     50 H          80.9679   16.3683   32.7542 H         1 3KE         0.0525
     51 H          77.3884   18.7248   32.8763 H         1 3KE         0.0575
     52 H          78.3108   19.7131   34.0355 H         1 3KE         0.0575
     53 H          78.3293   20.1237   32.3028 H         1 3KE         0.0575
@<TRIPOS>BOND
     1    2    1 ar 
     2    1   12 ar 
     3    2   13 ar 
     4   24    2 1  
     5    3    4 am 
     6   14    3 1  
     7    3   16 2  
     8    4    5 1  
     9    5    9 1  
    10    7    6 ar 
    11   11    6 ar 
    12    6   17 1  
    13    8    7 ar 
    14    9    8 ar 
    15    9   10 ar 
    16   10   11 ar 
    17   12   15 ar 
    18   13   14 ar 
    19   14   15 ar 
    20   17   18 ar 
    21   17   19 ar 
    22   21   20 1  
    23   20   24 2  
    24   21   22 1  
    25   25   21 1  
    26   22   23 2  
    27   23   24 1  
    28   29   25 1  
    29   27   26 ar 
    30   26   31 ar 
    31   26   32 1  
    32   28   27 ar 
    33   28   29 ar 
    34   29   30 ar 
    35   30   31 ar 
    36   32   33 1  
    37    1   34 1  
    38    4   35 1  
    39    5   36 1  
    40    5   37 1  
    41    7   38 1  
    42    8   39 1  
    43   10   40 1  
    44   11   41 1  
    45   12   42 1  
    46   13   43 1  
    47   15   44 1  
    48   25   45 1  
    49   25   46 1  
    50   27   47 1  
    51   28   48 1  
    52   30   49 1  
    53   31   50 1  
    54   33   51 1  
    55   33   52 1  
    56   33   53 1  
@<TRIPOS>SUBSTRUCTURE
     1 3KE         1

