### 
### Created by X-TOOL on Mon Sep 10 21:13:02 2018
### 

@<TRIPOS>MOLECULE
3ked_ligand
   19    18     1     0     0
SMALL
GAST_HUCK


@<TRIPOS>ATOM
      1 N         -49.0580   48.2760    6.2950 N.4       1 DAB         0.2328
      2 CA        -48.7580   47.4260    7.5100 C.3       1 DAB         0.0332
      3 C         -47.9490   46.1570    7.0720 C.2       1 DAB         0.0846
      4 O         -48.2970   45.6630    6.0220 O.co2     1 DAB        -0.5643
      5 CB        -50.0730   47.0430    8.2630 C.3       1 DAB         0.0423
      6 CG        -49.6910   46.3910    9.6420 C.3       1 DAB        -0.0285
      7 ND        -49.2280   44.9620    9.6120 N.4       1 DAB         0.2188
      8 OXT       -47.0020   45.7480    7.7210 O.co2     1 DAB        -0.5643
      9 H1        -49.5783   49.0923    6.5762 H         1 DAB         0.2010
     10 H2        -49.6024   47.7409    5.6367 H         1 DAB         0.2010
     11 H3        -48.1933   48.5612    5.8626 H         1 DAB         0.2010
     12 H4        -48.1320   48.0128    8.1983 H         1 DAB         0.1026
     13 H5        -50.6490   46.3250    7.6608 H         1 DAB         0.0391
     14 H6        -50.6777   47.9456    8.4350 H         1 DAB         0.0391
     15 H7        -50.5786   46.4394   10.2899 H         1 DAB         0.0816
     16 H8        -48.8825   46.9933   10.0820 H         1 DAB         0.0816
     17 H9        -49.0140   44.6584   10.5491 H         1 DAB         0.1994
     18 H10       -48.4026   44.8882    9.0382 H         1 DAB         0.1994
     19 H11       -49.9568   44.3806    9.2287 H         1 DAB         0.1994
@<TRIPOS>BOND
     1    1    2 1  
     2    2    3 1  
     3    2    5 1  
     4    3    4 ar 
     5    3    8 ar 
     6    5    6 1  
     7    6    7 1  
     8    1    9 1  
     9    1   10 1  
    10    1   11 1  
    11    2   12 1  
    12    5   13 1  
    13    5   14 1  
    14    6   15 1  
    15    6   16 1  
    16    7   17 1  
    17    7   18 1  
    18    7   19 1  
@<TRIPOS>SUBSTRUCTURE
     1 DAB         1

