### 
### Created by X-TOOL on Mon Sep 10 21:13:03 2018
### 

@<TRIPOS>MOLECULE
3kej_ligand
   48    51     1     0     0
SMALL
GAST_HUCK


@<TRIPOS>ATOM
      1 C1         47.1460   18.4200   15.4830 C.ar      1 3EJ        -0.0542
      2 C2         46.9490   17.2380   14.7990 C.ar      1 3EJ         0.0032
      3 C3         46.1510   16.2590   15.3470 C.ar      1 3EJ        -0.0542
      4 C4         45.5600   16.4650   16.5730 C.ar      1 3EJ        -0.0536
      5 C5         45.7480   17.6420   17.2630 C.ar      1 3EJ        -0.0045
      6 C6         46.5440   18.6230   16.7080 C.ar      1 3EJ        -0.0536
      7 C7         47.5670   16.9880   13.4820 C.2       1 3EJ         0.0584
      8 O8         48.7320   17.4180   13.3040 O.co2     1 3EJ        -0.5625
      9 O9         46.8670   16.3570   12.6410 O.co2     1 3EJ        -0.5625
     10 C10        45.0650   17.7820   18.5860 C.3       1 3EJ         0.1336
     11 N11        45.0940   19.1470   19.0680 N.pl3     1 3EJ        -0.0748
     12 N12        46.1170   19.5550   19.8200 N.2       1 3EJ        -0.0453
     13 N13        45.8280   20.8230   20.0620 N.2       1 3EJ        -0.1717
     14 C14        44.6470   21.1040   19.4310 C.2       1 3EJ         0.1605
     15 N15        44.1450   20.0540   18.7740 N.2       1 3EJ        -0.1323
     16 C16        44.0850   22.4290   19.4450 C.ar      1 3EJ         0.0337
     17 C17        44.9110   23.4960   19.7330 C.ar      1 3EJ        -0.0054
     18 C18        44.3890   24.7710   19.6930 C.ar      1 3EJ         0.1212
     19 N19        43.1210   25.0560   19.3700 N.ar      1 3EJ        -0.2789
     20 C20        42.3490   23.9920   19.1020 C.ar      1 3EJ         0.0152
     21 C21        42.7680   22.6790   19.1250 C.ar      1 3EJ        -0.0215
     22 C22        45.3010   25.9020   19.9820 C.2       1 3EJ         0.2252
     23 N23        44.7740   27.1290   19.6830 N.am      1 3EJ        -0.2729
     24 C24        45.5380   28.3470   19.8460 C.3       1 3EJ         0.0633
     25 C25        46.6090   28.5590   18.8320 C.ar      1 3EJ        -0.0229
     26 O26        46.4390   25.7070   20.3870 O.2       1 3EJ        -0.3789
     27 C27        46.9120   27.6180   17.8620 C.ar      1 3EJ        -0.0624
     28 C28        47.9120   27.8440   16.9420 C.ar      1 3EJ        -0.0703
     29 C29        48.6330   29.0190   16.9700 C.ar      1 3EJ        -0.0352
     30 C30        48.3190   29.9470   17.9380 C.ar      1 3EJ         0.1259
     31 C31        47.3210   29.7360   18.8620 C.ar      1 3EJ        -0.0251
     32 F32        48.9940   31.0980   17.9850 F         1 3EJ        -0.1853
     33 H          47.7796   19.1964   15.0541 H         1 3EJ         0.0634
     34 H          45.9877   15.3237   14.8117 H         1 3EJ         0.0634
     35 H          44.9334   15.6844   17.0045 H         1 3EJ         0.0565
     36 H          46.6979   19.5622   17.2394 H         1 3EJ         0.0565
     37 H          45.5870   17.1539   19.3079 H         1 3EJ         0.0850
     38 H          44.0233   17.4845   18.4656 H         1 3EJ         0.0850
     39 H          45.9583   23.3334   19.9878 H         1 3EJ         0.0766
     40 H          41.3066   24.1810   18.8454 H         1 3EJ         0.0833
     41 H          42.0800   21.8648   18.8975 H         1 3EJ         0.0742
     42 H          43.8166   27.1865   19.3358 H         1 3EJ         0.1875
     43 H          46.0313   28.2816   20.8158 H         1 3EJ         0.0683
     44 H          44.8367   29.1748   19.7408 H         1 3EJ         0.0683
     45 H          46.3506   26.6844   17.8260 H         1 3EJ         0.0523
     46 H          48.1346   27.0896   16.1874 H         1 3EJ         0.0589
     47 H          49.4274   29.2077   16.2479 H         1 3EJ         0.0546
     48 H          47.0965   30.4951   19.6114 H         1 3EJ         0.0542
@<TRIPOS>BOND
     1    1    2 ar 
     2    1    6 ar 
     3    2    3 ar 
     4    2    7 1  
     5    3    4 ar 
     6    4    5 ar 
     7    5    6 ar 
     8    5   10 1  
     9    7    8 ar 
    10    7    9 ar 
    11   10   11 1  
    12   11   12 1  
    13   11   15 1  
    14   12   13 2  
    15   13   14 1  
    16   14   15 2  
    17   14   16 1  
    18   16   17 ar 
    19   16   21 ar 
    20   17   18 ar 
    21   18   19 ar 
    22   18   22 1  
    23   19   20 ar 
    24   20   21 ar 
    25   22   23 am 
    26   22   26 2  
    27   23   24 1  
    28   24   25 1  
    29   25   27 ar 
    30   25   31 ar 
    31   27   28 ar 
    32   28   29 ar 
    33   29   30 ar 
    34   30   31 ar 
    35   30   32 1  
    36    1   33 1  
    37    3   34 1  
    38    4   35 1  
    39    6   36 1  
    40   10   37 1  
    41   10   38 1  
    42   17   39 1  
    43   20   40 1  
    44   21   41 1  
    45   23   42 1  
    46   24   43 1  
    47   24   44 1  
    48   27   45 1  
    49   28   46 1  
    50   29   47 1  
    51   31   48 1  
@<TRIPOS>SUBSTRUCTURE
     1 3EJ         1

