### 
### Created by X-TOOL on Mon Sep 10 21:13:02 2018
### 

@<TRIPOS>MOLECULE
3kek_ligand
   58    61     1     0     0
SMALL
GAST_HUCK


@<TRIPOS>ATOM
      1 C1         45.7610   16.9670   16.8730 C.3       1 3EK        -0.0104
      2 C2         46.1890   15.5530   16.5290 C.3       1 3EK        -0.0457
      3 C3         46.5830   15.4360   15.0660 C.3       1 3EK        -0.0383
      4 C4         47.7560   16.3670   14.8590 C.3       1 3EK         0.0118
      5 C5         47.3790   17.8150   15.0840 C.3       1 3EK        -0.0383
      6 C6         46.8100   18.0060   16.4880 C.3       1 3EK        -0.0457
      7 C7         45.3010   17.0310   18.3230 C.3       1 3EK         0.0804
      8 N8         45.4300   18.3580   18.8920 N.pl3     1 3EK        -0.1732
      9 N9         44.5840   19.3570   18.5920 N.2       1 3EK        -0.1748
     10 C10        45.1080   20.3520   19.3110 C.2       1 3EK         0.1138
     11 N11        46.2310   20.0110   20.0190 N.2       1 3EK        -0.2765
     12 C12        46.4220   18.7520   19.7360 C.2       1 3EK         0.1309
     13 C13        44.5610   21.6850   19.2910 C.ar      1 3EK         0.0191
     14 C14        43.2650   21.8830   18.8570 C.ar      1 3EK        -0.0215
     15 C15        42.7790   23.1710   18.7800 C.ar      1 3EK         0.0283
     16 N16        43.4850   24.2570   19.1070 N.ar      1 3EK        -0.2811
     17 C17        44.7350   24.0290   19.5410 C.ar      1 3EK         0.1125
     18 C18        45.3210   22.7810   19.6430 C.ar      1 3EK        -0.0134
     19 C19        41.3840   23.3900   18.3110 C.3       1 3EK        -0.0151
     20 C20        45.5260   25.2270   19.8950 C.2       1 3EK         0.2230
     21 O21        46.6710   25.1310   20.3160 O.2       1 3EK        -0.3790
     22 N22        44.8650   26.4080   19.6710 N.am      1 3EK        -0.2736
     23 C23        45.5080   27.7020   19.7770 C.3       1 3EK         0.0624
     24 C24        46.5950   27.9880   18.7870 C.ar      1 3EK        -0.0249
     25 C25        47.3330   29.1440   18.9480 C.ar      1 3EK        -0.0601
     26 C26        48.3450   29.4490   18.0630 C.ar      1 3EK        -0.0348
     27 C27        48.6110   28.6020   17.0120 C.ar      1 3EK         0.1248
     28 C28        47.8800   27.4480   16.8300 C.ar      1 3EK        -0.0348
     29 C29        46.8710   27.1470   17.7250 C.ar      1 3EK        -0.0601
     30 C30        48.1550   16.2680   13.3900 C.2       1 3EK         0.0379
     31 O31        49.3930   16.1030   13.2450 O.co2     1 3EK        -0.5687
     32 F32        49.5970   28.9210   16.1560 F         1 3EK        -0.1893
     33 O33        47.2580   16.3480   12.5040 O.co2     1 3EK        -0.5687
     34 H1         44.8771   17.1903   16.2575 H         1 3EK         0.0330
     35 H2         45.3536   14.8665   16.7311 H         1 3EK         0.0270
     36 H3         47.0502   15.2769   17.1552 H         1 3EK         0.0270
     37 H4         45.7431   15.7347   14.4216 H         1 3EK         0.0286
     38 H5         46.8741   14.4012   14.8329 H         1 3EK         0.0286
     39 H6         48.5870   16.0805   15.5204 H         1 3EK         0.0466
     40 H7         46.6221   18.1116   14.3430 H         1 3EK         0.0286
     41 H8         48.2733   18.4446   14.9669 H         1 3EK         0.0286
     42 H9         47.6385   17.9464   17.2092 H         1 3EK         0.0270
     43 H10        46.3476   19.0026   16.5423 H         1 3EK         0.0270
     44 H11        45.9095   16.3328   18.9165 H         1 3EK         0.0650
     45 H12        44.2445   16.7287   18.3709 H         1 3EK         0.0650
     46 H13        47.2319   18.1269   20.1091 H         1 3EK         0.1376
     47 H14        42.6408   21.0406   18.5817 H         1 3EK         0.0678
     48 H15        46.3425   22.6677   19.9877 H         1 3EK         0.0709
     49 H16        41.1622   24.4674   18.3108 H         1 3EK         0.0419
     50 H17        40.6852   22.8720   18.9843 H         1 3EK         0.0419
     51 H18        41.2733   22.9927   17.2913 H         1 3EK         0.0419
     52 H19        43.8967   26.3743   19.4236 H         1 3EK         0.1874
     53 H20        45.9440   27.7777   20.7840 H         1 3EK         0.0675
     54 H21        44.7324   28.4723   19.6544 H         1 3EK         0.0675
     55 H22        47.1160   29.8134   19.7725 H         1 3EK         0.0548
     56 H23        48.9289   30.3527   18.1947 H         1 3EK         0.0587
     57 H24        48.0931   26.7868   15.9979 H         1 3EK         0.0587
     58 H25        46.2896   26.2417   17.5929 H         1 3EK         0.0548
@<TRIPOS>BOND
     1    1    2 1  
     2    1    6 1  
     3    1    7 1  
     4    2    3 1  
     5    3    4 1  
     6    4    5 1  
     7    4   30 1  
     8    5    6 1  
     9    7    8 1  
    10    8    9 1  
    11    8   12 1  
    12    9   10 2  
    13   10   11 1  
    14   10   13 1  
    15   11   12 2  
    16   13   14 ar 
    17   13   18 ar 
    18   14   15 ar 
    19   15   16 ar 
    20   15   19 1  
    21   16   17 ar 
    22   17   18 ar 
    23   17   20 1  
    24   20   21 2  
    25   20   22 am 
    26   22   23 1  
    27   23   24 1  
    28   24   25 ar 
    29   24   29 ar 
    30   25   26 ar 
    31   26   27 ar 
    32   27   28 ar 
    33   27   32 1  
    34   28   29 ar 
    35   30   31 ar 
    36   30   33 ar 
    37    1   34 1  
    38    2   35 1  
    39    2   36 1  
    40    3   37 1  
    41    3   38 1  
    42    4   39 1  
    43    5   40 1  
    44    5   41 1  
    45    6   42 1  
    46    6   43 1  
    47    7   44 1  
    48    7   45 1  
    49   12   46 1  
    50   14   47 1  
    51   18   48 1  
    52   19   49 1  
    53   19   50 1  
    54   19   51 1  
    55   22   52 1  
    56   23   53 1  
    57   23   54 1  
    58   25   55 1  
    59   26   56 1  
    60   28   57 1  
    61   29   58 1  
@<TRIPOS>SUBSTRUCTURE
     1 3EK         1

