### 
### Created by X-TOOL on Mon Sep 10 21:13:04 2018
### 

@<TRIPOS>MOLECULE
3ken_ligand
   47    49     1     0     0
SMALL
GAST_HUCK


@<TRIPOS>ATOM
      1 N         -20.1060  -10.7830   70.4830 N.4       1 ZZD         0.2332
      2 CA        -20.3150  -10.8790   71.9350 C.3       1 ZZD         0.0361
      3 CB        -21.4080  -11.9120   72.2260 C.3       1 ZZD         0.0338
      4 C         -19.0050  -11.2760   72.6200 C.2       1 ZZD         0.0852
      5 O         -19.0220  -11.3950   73.8650 O.co2     1 ZZD        -0.5642
      6 OXT       -18.0060  -11.4420   71.8880 O.co2     1 ZZD        -0.5642
      7 SG        -23.0380  -11.4490   71.5300 S.3       1 ZZD        -0.2198
      8 CAM       -25.1310  -13.2220   74.5770 C.ar      1 ZZD        -0.0555
      9 CAG       -25.3720  -12.8930   75.9110 C.ar      1 ZZD        -0.0435
     10 CAD       -24.8850  -11.7010   76.4270 C.ar      1 ZZD        -0.0437
     11 CAH       -24.1570  -10.8350   75.6130 C.ar      1 ZZD        -0.0435
     12 CAN       -23.9230  -11.1720   74.2860 C.ar      1 ZZD        -0.0555
     13 CAV       -24.4060  -12.3680   73.7540 C.ar      1 ZZD        -0.0722
     14 CAZ       -24.2030  -12.6650   72.2580 C.3       1 ZZD         0.0185
     15 CAX       -23.6290  -14.0590   71.9630 C.ar      1 ZZD        -0.0722
     16 CAQ       -23.6270  -14.5440   70.6550 C.ar      1 ZZD        -0.0555
     17 CAK       -23.0470  -15.7710   70.3490 C.ar      1 ZZD        -0.0435
     18 CAF       -22.4590  -16.5320   71.3550 C.ar      1 ZZD        -0.0437
     19 CAL       -22.4530  -16.0590   72.6630 C.ar      1 ZZD        -0.0435
     20 CAR       -23.0360  -14.8310   72.9600 C.ar      1 ZZD        -0.0555
     21 CAW       -25.5690  -12.4590   71.5860 C.ar      1 ZZD        -0.0722
     22 CAO       -26.5600  -13.4410   71.6280 C.ar      1 ZZD        -0.0555
     23 CAI       -27.8170  -13.2070   71.0850 C.ar      1 ZZD        -0.0435
     24 CAE       -28.1020  -11.9820   70.4850 C.ar      1 ZZD        -0.0437
     25 CAJ       -27.1220  -11.0000   70.4340 C.ar      1 ZZD        -0.0435
     26 CAP       -25.8630  -11.2410   70.9820 C.ar      1 ZZD        -0.0555
     27 H         -20.9815  -10.5183   70.0315 H         1 ZZD         0.2010
     28 H         -19.3952  -10.0777   70.2889 H         1 ZZD         0.2010
     29 H         -19.7969  -11.6866   70.1247 H         1 ZZD         0.2010
     30 H         -20.6318   -9.9117   72.3250 H         1 ZZD         0.1032
     31 H         -21.5178  -11.9821   73.3082 H         1 ZZD         0.0436
     32 H         -21.1061  -12.8524   71.7650 H         1 ZZD         0.0436
     33 H         -25.5156  -14.1595   74.1754 H         1 ZZD         0.0760
     34 H         -25.9417  -13.5710   76.5465 H         1 ZZD         0.0669
     35 H         -25.0717  -11.4416   77.4691 H         1 ZZD         0.0772
     36 H         -23.7731   -9.8977   76.0158 H         1 ZZD         0.0669
     37 H         -23.3541  -10.4926   73.6513 H         1 ZZD         0.0760
     38 H         -24.0861  -13.9536   69.8620 H         1 ZZD         0.0760
     39 H         -23.0531  -16.1361   69.3220 H         1 ZZD         0.0669
     40 H         -22.0052  -17.4945   71.1189 H         1 ZZD         0.0772
     41 H         -21.9920  -16.6497   73.4546 H         1 ZZD         0.0669
     42 H         -23.0287  -14.4676   73.9876 H         1 ZZD         0.0760
     43 H         -26.3449  -14.4033   72.0926 H         1 ZZD         0.0760
     44 H         -28.5815  -13.9827   71.1283 H         1 ZZD         0.0669
     45 H         -29.0877  -11.7961   70.0586 H         1 ZZD         0.0772
     46 H         -27.3371  -10.0398   69.9651 H         1 ZZD         0.0669
     47 H         -25.0990  -10.4649   70.9366 H         1 ZZD         0.0760
@<TRIPOS>BOND
     1    2    1 1  
     2    3    2 1  
     3    2    4 1  
     4    7    3 1  
     5    4    5 ar 
     6    4    6 ar 
     7   14    7 1  
     8    8    9 ar 
     9   13    8 ar 
    10    9   10 ar 
    11   11   10 ar 
    12   12   11 ar 
    13   13   12 ar 
    14   13   14 1  
    15   14   15 1  
    16   14   21 1  
    17   15   16 ar 
    18   15   20 ar 
    19   16   17 ar 
    20   17   18 ar 
    21   18   19 ar 
    22   19   20 ar 
    23   21   22 ar 
    24   21   26 ar 
    25   22   23 ar 
    26   23   24 ar 
    27   24   25 ar 
    28   25   26 ar 
    29    1   27 1  
    30    1   28 1  
    31    1   29 1  
    32    2   30 1  
    33    3   31 1  
    34    3   32 1  
    35    8   33 1  
    36    9   34 1  
    37   10   35 1  
    38   11   36 1  
    39   12   37 1  
    40   16   38 1  
    41   17   39 1  
    42   18   40 1  
    43   19   41 1  
    44   20   42 1  
    45   22   43 1  
    46   23   44 1  
    47   24   45 1  
    48   25   46 1  
    49   26   47 1  
@<TRIPOS>SUBSTRUCTURE
     1 ZZD         1

