### 
### Created by X-TOOL on Mon Sep 10 21:13:00 2018
### 

@<TRIPOS>MOLECULE
3kf4_ligand
   54    58     1     0     0
SMALL
GAST_HUCK


@<TRIPOS>ATOM
      1 N1         34.2750   -7.8030  -17.4230 N.pl3     1 B90        -0.2461
      2 C2         34.6230   -8.2210  -18.6310 C.2       1 B90         0.1049
      3 C3         35.0800   -9.5950  -18.4450 C.ar      1 B90         0.0261
      4 C4         34.9610   -9.9030  -17.0400 C.ar      1 B90        -0.0262
      5 N5         34.4640   -8.7540  -16.5000 N.2       1 B90        -0.3394
      6 C6         35.5730  -10.5790  -19.3290 C.ar      1 B90        -0.0218
      7 C7         35.9430  -11.8760  -18.8160 C.ar      1 B90        -0.0433
      8 C8         35.8120  -12.1370  -17.4220 C.ar      1 B90        -0.0646
      9 C9         35.3190  -11.1430  -16.5450 C.ar      1 B90        -0.0704
     10 C10        36.4690  -12.9690  -19.7130 C.3       1 B90        -0.0320
     11 C14        35.7100  -10.2770  -20.7860 C.2       1 B90        -0.0385
     12 C15        34.6530  -10.0660  -21.5910 C.2       1 B90         0.0667
     13 N16        34.7920   -9.9020  -23.0510 N.pl3     1 B90        -0.1800
     14 C17        34.0260  -10.5100  -23.9910 C.2       1 B90         0.1283
     15 N18        34.3870  -10.1680  -25.2330 N.2       1 B90        -0.2907
     16 C19        35.4560   -9.2820  -25.0910 C.ar      1 B90         0.1140
     17 C20        35.7130   -9.1000  -23.7070 C.ar      1 B90         0.1795
     18 C21        36.2650   -8.5690  -25.9620 C.ar      1 B90         0.1550
     19 N22        37.2640   -7.7440  -25.4940 N.ar      1 B90        -0.2647
     20 C23        37.4390   -7.6350  -24.1440 C.ar      1 B90         0.0561
     21 N24        36.7000   -8.2890  -23.2350 N.ar      1 B90        -0.2663
     22 N25        36.0390   -8.7250  -27.2980 N.pl3     1 B90        -0.2490
     23 C26        36.7240   -8.1820  -28.3700 C.ar      1 B90         0.0733
     24 C27        36.1840   -8.4100  -29.6670 C.ar      1 B90        -0.0280
     25 C28        36.8140   -7.8760  -30.8100 C.ar      1 B90        -0.0436
     26 C29        37.9860   -7.1120  -30.6780 C.ar      1 B90         0.0341
     27 C30        38.5470   -6.8800  -29.3980 C.ar      1 B90        -0.0436
     28 C31        37.9220   -7.4110  -28.2470 C.ar      1 B90        -0.0280
     29 P36        38.7440   -6.4260  -32.1840 P.3       1 B90         0.0339
     30 C37        40.4190   -5.7360  -31.7720 C.3       1 B90         0.0131
     31 C41        37.8000   -4.9630  -32.8030 C.3       1 B90         0.0131
     32 O45        38.8470   -7.4690  -33.2170 O.2       1 B90        -0.5092
     33 H1         33.9052   -6.8635  -17.2194 H         1 B90         0.2934
     34 H2         34.5778   -7.6598  -19.5632 H         1 B90         0.1359
     35 H3         36.0930  -13.1075  -17.0292 H         1 B90         0.0541
     36 H4         35.2220  -11.3533  -15.4860 H         1 B90         0.0560
     37 H5         36.5071  -12.6053  -20.7504 H         1 B90         0.0389
     38 H6         35.8035  -13.8429  -19.6551 H         1 B90         0.0389
     39 H7         37.4799  -13.2557  -19.3876 H         1 B90         0.0389
     40 H8         36.7096  -10.2254  -21.2151 H         1 B90         0.0430
     41 H9         33.6589  -10.0144  -21.1493 H         1 B90         0.1090
     42 H10        33.2122  -11.1963  -23.7615 H         1 B90         0.1368
     43 H11        38.2238   -6.9793  -23.7845 H         1 B90         0.1000
     44 H12        35.2453   -9.3338  -27.5436 H         1 B90         0.2201
     45 H13        35.2808   -8.9992  -29.7771 H         1 B90         0.0560
     46 H14        36.3932   -8.0553  -31.7928 H         1 B90         0.0676
     47 H15        39.4549   -6.2957  -29.3015 H         1 B90         0.0676
     48 H16        38.3521   -7.2333  -27.2680 H         1 B90         0.0560
     49 H17        40.8784   -5.3210  -32.6813 H         1 B90         0.0458
     50 H18        41.0574   -6.5374  -31.3717 H         1 B90         0.0458
     51 H19        40.3131   -4.9410  -31.0192 H         1 B90         0.0458
     52 H20        36.7808   -5.2733  -33.0766 H         1 B90         0.0458
     53 H21        38.3062   -4.5471  -33.6866 H         1 B90         0.0458
     54 H22        37.7510   -4.1978  -32.0143 H         1 B90         0.0458
@<TRIPOS>BOND
     1    1    2 1  
     2    1    5 1  
     3    2    3 2  
     4    3    4 ar 
     5    3    6 ar 
     6    4    5 2  
     7    4    9 ar 
     8    6    7 ar 
     9    6   11 1  
    10    7    8 ar 
    11    7   10 1  
    12    8    9 ar 
    13   11   12 2  
    14   12   13 1  
    15   13   14 1  
    16   13   17 1  
    17   14   15 2  
    18   15   16 1  
    19   16   17 ar 
    20   16   18 ar 
    21   17   21 ar 
    22   18   19 ar 
    23   18   22 1  
    24   19   20 ar 
    25   20   21 ar 
    26   22   23 1  
    27   23   24 ar 
    28   23   28 ar 
    29   24   25 ar 
    30   25   26 ar 
    31   26   27 ar 
    32   26   29 1  
    33   27   28 ar 
    34   29   30 1  
    35   29   31 1  
    36   29   32 2  
    37    1   33 1  
    38    2   34 1  
    39    8   35 1  
    40    9   36 1  
    41   10   37 1  
    42   10   38 1  
    43   10   39 1  
    44   11   40 1  
    45   12   41 1  
    46   14   42 1  
    47   20   43 1  
    48   22   44 1  
    49   24   45 1  
    50   25   46 1  
    51   27   47 1  
    52   28   48 1  
    53   30   49 1  
    54   30   50 1  
    55   30   51 1  
    56   31   52 1  
    57   31   53 1  
    58   31   54 1  
@<TRIPOS>SUBSTRUCTURE
     1 B90         1

