### 
### Created by X-TOOL on Mon Sep 10 21:13:02 2018
### 

@<TRIPOS>MOLECULE
3kf7_ligand
   47    50     1     0     0
SMALL
GAST_HUCK


@<TRIPOS>ATOM
      1 C1         35.0480   39.4460   19.7000 C.2       1 L9G        -0.0118
      2 C2         34.7890   39.7550   21.1720 C.2       1 L9G         0.1505
      3 N3         34.6380   38.7990   22.0790 N.pl3     1 L9G        -0.1776
      4 C4         34.7200   37.3760   21.7200 C.2       1 L9G         0.0887
      5 C5         34.9520   37.0970   20.3870 C.2       1 L9G        -0.0006
      6 C6         35.0990   38.0870   19.4320 C.2       1 L9G        -0.0498
      7 C7         34.4230   39.3940   23.3060 C.2       1 L9G         0.1716
      8 N8         34.6670   40.9230   21.7970 N.2       1 L9G        -0.2801
      9 N9         34.4320   40.6640   23.1190 N.2       1 L9G        -0.2661
     10 C10        35.0330   35.6420   20.0030 C.3       1 L9G        -0.0107
     11 C11        36.4500   35.1530   19.7320 C.3       1 L9G        -0.0122
     12 C12        37.0580   35.7980   18.5220 C.ar      1 L9G        -0.0115
     13 C13        38.2210   36.5360   18.6370 C.ar      1 L9G         0.1317
     14 C14        38.8080   37.1310   17.5570 C.ar      1 L9G        -0.0015
     15 C15        38.2190   36.9920   16.3270 C.ar      1 L9G         0.1231
     16 C16        37.0600   36.2650   16.1730 C.ar      1 L9G        -0.0389
     17 C17        36.4830   35.6550   17.2710 C.ar      1 L9G        -0.0635
     18 F18        38.8320   36.6900   19.8110 F         1 L9G        -0.1900
     19 F19        38.8070   37.5970   15.2980 F         1 L9G        -0.1903
     20 C20        34.1820   38.8190   24.6610 C.ar      1 L9G         0.0365
     21 C21        35.0790   39.1970   25.6360 C.ar      1 L9G        -0.0363
     22 C22        34.8940   38.7980   26.9410 C.ar      1 L9G         0.0430
     23 C23        33.8240   38.0130   27.3040 C.ar      1 L9G        -0.0489
     24 C24        32.9300   37.6150   26.3140 C.ar      1 L9G        -0.0539
     25 C25        33.1000   38.0240   24.9990 C.ar      1 L9G        -0.0283
     26 C26        35.9200   39.2670   27.9010 C.2       1 L9G         0.1976
     27 N27        35.8070   38.7430   29.1580 N.am      1 L9G        -0.3010
     28 O28        36.7690   40.0650   27.5170 O.2       1 L9G        -0.3879
     29 C29        32.0820   37.6070   23.9750 C.3       1 L9G        -0.0275
     30 H1         35.1792   40.2138   18.9390 H         1 L9G         0.0598
     31 H2         34.6045   36.5872   22.4619 H         1 L9G         0.1137
     32 H3         35.2659   37.7781   18.4011 H         1 L9G         0.0661
     33 H4         34.4343   35.4902   19.0928 H         1 L9G         0.0419
     34 H5         34.6111   35.0432   20.8236 H         1 L9G         0.0419
     35 H6         36.4239   34.0644   19.5760 H         1 L9G         0.0429
     36 H7         37.0761   35.3832   20.6067 H         1 L9G         0.0429
     37 H8         39.7223   37.7023   17.6702 H         1 L9G         0.0572
     38 H9         36.6020   36.1714   15.1950 H         1 L9G         0.0552
     39 H10        35.5812   35.0653   17.1525 H         1 L9G         0.0536
     40 H11        35.9335   39.8107   25.3749 H         1 L9G         0.0656
     41 H12        33.6807   37.7119   28.3354 H         1 L9G         0.0647
     42 H13        32.0917   36.9785   26.5732 H         1 L9G         0.0567
     43 H14        36.4587   39.0056   29.8696 H         1 L9G         0.1806
     44 H15        35.0726   38.0970   29.3662 H         1 L9G         0.1806
     45 H16        32.3639   38.0118   22.9918 H         1 L9G         0.0407
     46 H17        31.0934   37.9951   24.2615 H         1 L9G         0.0407
     47 H18        32.0436   36.5090   23.9221 H         1 L9G         0.0407
@<TRIPOS>BOND
     1    1    2 1  
     2    1    6 2  
     3    2    3 1  
     4    2    8 2  
     5    3    4 1  
     6    3    7 1  
     7    4    5 2  
     8    5    6 1  
     9    5   10 1  
    10    7    9 2  
    11    7   20 1  
    12    8    9 1  
    13   10   11 1  
    14   11   12 1  
    15   12   13 ar 
    16   12   17 ar 
    17   13   14 ar 
    18   13   18 1  
    19   14   15 ar 
    20   15   16 ar 
    21   15   19 1  
    22   16   17 ar 
    23   20   21 ar 
    24   20   25 ar 
    25   21   22 ar 
    26   22   23 ar 
    27   22   26 1  
    28   23   24 ar 
    29   24   25 ar 
    30   25   29 1  
    31   26   27 am 
    32   26   28 2  
    33    1   30 1  
    34    4   31 1  
    35    6   32 1  
    36   10   33 1  
    37   10   34 1  
    38   11   35 1  
    39   11   36 1  
    40   14   37 1  
    41   16   38 1  
    42   17   39 1  
    43   21   40 1  
    44   23   41 1  
    45   24   42 1  
    46   27   43 1  
    47   27   44 1  
    48   29   45 1  
    49   29   46 1  
    50   29   47 1  
@<TRIPOS>SUBSTRUCTURE
     1 L9G         1

