### 
### Created by X-TOOL on Mon Sep 10 21:13:00 2018
### 

@<TRIPOS>MOLECULE
3kfa_ligand
   66    71     1     0     0
SMALL
GAST_HUCK


@<TRIPOS>ATOM
      1 C1         18.3370   -9.3260    9.5910 C.ar      1 B91         0.1780
      2 F1         12.5540   -4.6400   18.5400 F         1 B91        -0.2213
      3 N1         17.3090   -9.9130   10.2840 N.pl3     1 B91        -0.1804
      4 O1         15.5850   -7.6620   16.2180 O.2       1 B91        -0.3761
      5 C2         19.0160   -8.4720    3.6040 C.3       1 B91        -0.0274
      6 F2         11.5440   -6.4890   18.4420 F         1 B91        -0.2213
      7 N2         16.2160   -8.5610   18.2140 N.am      1 B91        -0.2297
      8 C3         17.1530  -10.1670   11.7090 C.2       1 B91         0.0667
      9 F3         11.5280   -5.3580   20.2760 F         1 B91        -0.2213
     10 N3         15.7310   -6.9880   22.6820 N.pl3     1 B91        -0.2156
     11 C4         18.1240  -10.1410   12.5790 C.2       1 B91        -0.0384
     12 N4         15.8040   -7.1560   24.8800 N.2       1 B91        -0.3221
     13 C5         17.8880  -10.3490   14.0070 C.ar      1 B91        -0.0309
     14 N5         16.6760   -9.9370    8.1730 N.2       1 B91        -0.2916
     15 C6         18.3440  -11.5240   14.6490 C.ar      1 B91        -0.0397
     16 N6         19.5060   -8.8290   10.0310 N.ar      1 B91        -0.2677
     17 C7         18.1290  -11.7160   16.0400 C.ar      1 B91        -0.0588
     18 N7         19.9620   -8.2670    7.7600 N.ar      1 B91        -0.2689
     19 C8         17.4380  -10.7280   16.7830 C.ar      1 B91        -0.0528
     20 N8         18.4280   -8.7350    6.0170 N.pl3     1 B91        -0.2980
     21 C9         16.9650   -9.5530   16.1430 C.ar      1 B91         0.0442
     22 C10        17.1960   -9.3610   14.7560 C.ar      1 B91        -0.0477
     23 C11        19.0520  -12.5990   13.8860 C.3       1 B91        -0.0298
     24 C12        16.2190   -8.5150   16.8550 C.2       1 B91         0.2266
     25 C13        15.4590   -7.8040   19.0800 C.ar      1 B91         0.0913
     26 C14        15.9110   -7.7140   20.3770 C.ar      1 B91         0.0236
     27 C15        15.2170   -6.9790   21.3740 C.ar      1 B91         0.1136
     28 C16        14.0220   -6.3230   21.0000 C.ar      1 B91        -0.0109
     29 C17        13.5240   -6.3960   19.6660 C.ar      1 B91         0.0293
     30 C18        14.2550   -7.1460   18.7190 C.ar      1 B91        -0.0185
     31 C19        12.2520   -5.7120   19.2270 C.3       1 B91         0.3708
     32 C22        17.0550   -6.9300   23.0430 C.2       1 B91         0.0460
     33 C23        14.9670   -7.1280   23.8220 C.2       1 B91         0.1083
     34 C24        19.3030   -8.0120    5.0290 C.3       1 B91         0.0410
     35 C25        17.0650   -7.0390   24.4280 C.2       1 B91        -0.0066
     36 C26        16.3040  -10.2880    9.4400 C.2       1 B91         0.1280
     37 C27        18.2180   -7.0480   25.3310 C.3       1 B91        -0.0375
     38 C28        20.2890   -8.9560    4.3150 C.3       1 B91        -0.0274
     39 C29        17.9100   -9.3430    8.2460 C.ar      1 B91         0.1093
     40 C30        18.7780   -8.7780    7.3300 C.ar      1 B91         0.1335
     41 C33        20.3100   -8.2980    9.0650 C.ar      1 B91         0.0544
     42 H1         19.0906   -7.7574    2.7711 H         1 B91         0.0289
     43 H2         18.1942   -9.1769    3.4099 H         1 B91         0.0289
     44 H3         16.8369   -9.2228   18.6342 H         1 B91         0.2251
     45 H4         16.1530  -10.3952   12.0749 H         1 B91         0.1090
     46 H5         19.1401   -9.9591   12.2320 H         1 B91         0.0430
     47 H6         18.4914  -12.6127   16.5295 H         1 B91         0.0554
     48 H7         17.2698  -10.8698   17.8444 H         1 B91         0.0611
     49 H8         17.5643   -9.1971    5.6986 H         1 B91         0.1859
     50 H9         16.8439   -8.4594   14.2680 H         1 B91         0.0608
     51 H10        19.1397  -12.3023   12.8304 H         1 B91         0.0399
     52 H11        18.4806  -13.5363   13.9572 H         1 B91         0.0399
     53 H12        20.0561  -12.7486   14.3094 H         1 B91         0.0399
     54 H13        16.8296   -8.2224   20.6469 H         1 B91         0.0728
     55 H14        13.4737   -5.7535   21.7417 H         1 B91         0.0700
     56 H15        13.8908   -7.2202   17.7007 H         1 B91         0.0664
     57 H16        17.9147   -6.8216   22.3834 H         1 B91         0.0743
     58 H17        13.8813   -7.2027   23.8611 H         1 B91         0.1223
     59 H18        19.5429   -6.9753    5.3076 H         1 B91         0.0561
     60 H19        15.3742  -10.7781    9.7248 H         1 B91         0.1365
     61 H20        19.1430   -6.9398   24.7456 H         1 B91         0.0340
     62 H21        18.2432   -7.9985   25.8841 H         1 B91         0.0340
     63 H22        18.1339   -6.2124   26.0415 H         1 B91         0.0340
     64 H23        21.2741   -8.5854    3.9954 H         1 B91         0.0289
     65 H24        20.3777  -10.0049    4.6342 H         1 B91         0.0289
     66 H25        21.2682   -7.8836    9.3569 H         1 B91         0.0997
@<TRIPOS>BOND
     1    3    1 1  
     2    1   16 ar 
     3    1   39 ar 
     4   31    2 1  
     5    8    3 1  
     6    3   36 1  
     7   24    4 2  
     8   34    5 1  
     9    5   38 1  
    10   31    6 1  
    11    7   24 am 
    12   25    7 1  
    13   11    8 2  
    14   31    9 1  
    15   27   10 1  
    16   10   32 1  
    17   10   33 1  
    18   13   11 1  
    19   33   12 2  
    20   12   35 1  
    21   13   15 ar 
    22   22   13 ar 
    23   36   14 2  
    24   14   39 1  
    25   17   15 ar 
    26   15   23 1  
    27   16   41 ar 
    28   19   17 ar 
    29   18   40 ar 
    30   41   18 ar 
    31   21   19 ar 
    32   20   34 1  
    33   40   20 1  
    34   21   22 ar 
    35   24   21 1  
    36   25   26 ar 
    37   30   25 ar 
    38   27   26 ar 
    39   28   27 ar 
    40   29   28 ar 
    41   29   30 ar 
    42   29   31 1  
    43   32   35 2  
    44   34   38 1  
    45   35   37 1  
    46   39   40 ar 
    47    5   42 1  
    48    5   43 1  
    49    7   44 1  
    50    8   45 1  
    51   11   46 1  
    52   17   47 1  
    53   19   48 1  
    54   20   49 1  
    55   22   50 1  
    56   23   51 1  
    57   23   52 1  
    58   23   53 1  
    59   26   54 1  
    60   28   55 1  
    61   30   56 1  
    62   32   57 1  
    63   33   58 1  
    64   34   59 1  
    65   36   60 1  
    66   37   61 1  
    67   37   62 1  
    68   37   63 1  
    69   38   64 1  
    70   38   65 1  
    71   41   66 1  
@<TRIPOS>SUBSTRUCTURE
     1 B91         1

