### 
### Created by X-TOOL on Mon Sep 10 21:13:02 2018
### 

@<TRIPOS>MOLECULE
3kfc_ligand
   47    50     1     0     0
SMALL
GAST_HUCK


@<TRIPOS>ATOM
      1 C1          9.6880   53.0900   26.6470 C.3       1 61X         0.0594
      2 F1         21.5380   55.7430   32.9380 F         1 61X        -0.2392
      3 N1         20.2940   53.6580   31.1030 N.ar      1 61X        -0.2842
      4 O1          8.5040   51.5720   28.3740 O.2       1 61X        -0.1698
      5 S1          9.1410   51.4690   27.0770 S.o2      1 61X        -0.0081
      6 C2         10.6160   50.5420   27.3990 C.ar      1 61X         0.0803
      7 F2         22.5060   55.2920   31.0580 F         1 61X        -0.2392
      8 O2          8.4520   50.8740   25.9550 O.2       1 61X        -0.1698
      9 C3         10.7880   49.2290   26.9480 C.ar      1 61X        -0.0475
     10 F3         22.1750   57.2980   31.6490 F         1 61X        -0.2392
     11 O3         13.7070   51.1700   29.2170 O.3       1 61X        -0.2569
     12 C4         11.9830   48.5490   27.2480 C.ar      1 61X        -0.0679
     13 C5         12.9980   49.1640   28.0060 C.ar      1 61X        -0.0284
     14 C6         12.7940   50.4780   28.4560 C.ar      1 61X         0.1179
     15 C7         11.6140   51.1610   28.1620 C.ar      1 61X        -0.0037
     16 C8         14.5770   52.0710   28.6390 C.ar      1 61X         0.1208
     17 C9         14.3530   52.7280   27.4160 C.ar      1 61X        -0.0240
     18 C10        15.3100   53.6090   26.9150 C.ar      1 61X        -0.0640
     19 C11        16.4810   53.8430   27.6420 C.ar      1 61X        -0.0574
     20 C12        16.6980   53.2030   28.8840 C.ar      1 61X        -0.0076
     21 C13        15.7440   52.2990   29.3670 C.ar      1 61X        -0.0144
     22 C14        17.9350   53.4330   29.6480 C.ar      1 61X         0.0199
     23 C15        18.5710   52.2880   30.1570 C.ar      1 61X        -0.0166
     24 C16        19.7350   52.4510   30.8710 C.ar      1 61X         0.0183
     25 C17        19.7150   54.7850   30.6210 C.ar      1 61X         0.0673
     26 C18        18.5130   54.7300   29.8660 C.ar      1 61X         0.0453
     27 C19        17.9620   55.9540   29.4010 C.ar      1 61X        -0.0091
     28 C20        18.5610   57.1890   29.6540 C.ar      1 61X        -0.0150
     29 C21        19.7400   57.2370   30.3860 C.ar      1 61X        -0.0212
     30 C22        20.3060   56.0430   30.8720 C.ar      1 61X         0.0553
     31 C23        21.5920   56.0930   31.6390 C.3       1 61X         0.3601
     32 H1         10.1809   53.0619   25.6640 H         1 61X         0.0468
     33 H2         10.4003   53.4495   27.4042 H         1 61X         0.0468
     34 H3          8.8239   53.7694   26.6046 H         1 61X         0.0468
     35 H4         10.0092   48.7406   26.3736 H         1 61X         0.0547
     36 H5         12.1244   47.5357   26.8899 H         1 61X         0.0591
     37 H6         13.9156   48.6350   28.2367 H         1 61X         0.0552
     38 H7         11.4692   52.1723   28.5246 H         1 61X         0.0571
     39 H8         13.4375   52.5496   26.8637 H         1 61X         0.0590
     40 H9         15.1472   54.1097   25.9674 H         1 61X         0.0603
     41 H10        17.2298   54.5216   27.2497 H         1 61X         0.0575
     42 H11        15.9121   51.7786   30.3030 H         1 61X         0.0590
     43 H12        18.1546   51.3010   29.9910 H         1 61X         0.0721
     44 H13        20.2267   51.5693   31.2660 H         1 61X         0.0917
     45 H14        17.0420   55.9279   28.8283 H         1 61X         0.0990
     46 H15        18.1101   58.1021   29.2826 H         1 61X         0.0752
     47 H16        20.2217   58.1881   30.5821 H         1 61X         0.0982
@<TRIPOS>BOND
     1    5    1 1  
     2   31    2 1  
     3    3   24 ar 
     4   25    3 ar 
     5    5    4 2  
     6    6    5 1  
     7    5    8 2  
     8    6    9 ar 
     9   15    6 ar 
    10   31    7 1  
    11   12    9 ar 
    12   31   10 1  
    13   11   14 1  
    14   16   11 1  
    15   13   12 ar 
    16   14   13 ar 
    17   14   15 ar 
    18   16   17 ar 
    19   21   16 ar 
    20   18   17 ar 
    21   19   18 ar 
    22   20   19 ar 
    23   20   21 ar 
    24   22   20 1  
    25   22   23 ar 
    26   26   22 ar 
    27   24   23 ar 
    28   25   26 ar 
    29   30   25 ar 
    30   26   27 ar 
    31   28   27 ar 
    32   29   28 ar 
    33   30   29 ar 
    34   30   31 1  
    35    1   32 1  
    36    1   33 1  
    37    1   34 1  
    38    9   35 1  
    39   12   36 1  
    40   13   37 1  
    41   15   38 1  
    42   17   39 1  
    43   18   40 1  
    44   19   41 1  
    45   21   42 1  
    46   23   43 1  
    47   24   44 1  
    48   27   45 1  
    49   28   46 1  
    50   29   47 1  
@<TRIPOS>SUBSTRUCTURE
     1 61X         1

