### 
### Created by X-TOOL on Mon Sep 10 21:13:03 2018
### 

@<TRIPOS>MOLECULE
3kga_ligand
   53    58     1     0     0
SMALL
GAST_HUCK


@<TRIPOS>ATOM
      1 N1         37.3020    5.2110   13.6380 N.pl3     1 LX9        -0.1735
      2 N2         38.3930    5.6610   12.9880 N.2       1 LX9        -0.2020
      3 C3         39.2390    6.1800   13.7920 C.2       1 LX9         0.0994
      4 C4         38.6350    6.0300   15.1240 C.2       1 LX9         0.0282
      5 C5         37.4420    5.4620   14.9130 C.2       1 LX9         0.0753
      6 C7         39.1090    6.4930   16.4850 C.ar      1 LX9        -0.0381
      7 C8         38.8350    5.7750   17.6370 C.ar      1 LX9        -0.0571
      8 C10        39.2430    6.2550   18.8740 C.ar      1 LX9        -0.0274
      9 C11        39.9260    7.4800   18.9690 C.ar      1 LX9         0.0447
     10 C12        40.1840    8.2140   17.8200 C.ar      1 LX9        -0.0547
     11 C14        39.7700    7.7200   16.5860 C.ar      1 LX9        -0.0649
     12 C16        40.3390    8.0110   20.3300 C.2       1 LX9         0.1955
     13 N17        39.7980    7.4320   21.4300 N.am      1 LX9        -0.2862
     14 C19        38.8600    6.3110   21.3990 C.3       1 LX9         0.0403
     15 C22        38.9490    5.4270   20.1340 C.3       1 LX9         0.0031
     16 O25        41.0820    8.9890   20.4180 O.2       1 LX9        -0.3916
     17 N26        40.3860    6.7030   13.4510 N.pl3     1 LX9        -0.3334
     18 C29        36.2140    4.6480   13.0980 C.ar      1 LX9         0.1067
     19 C30        35.7960    5.1160   11.8480 C.ar      1 LX9        -0.0209
     20 C32        34.6450    4.5980   11.2450 C.ar      1 LX9        -0.0293
     21 C33        33.9030    3.6240   11.9160 C.ar      1 LX9        -0.0632
     22 C35        34.3160    3.1550   13.1670 C.ar      1 LX9        -0.0666
     23 C37        35.4630    3.6740   13.7680 C.ar      1 LX9        -0.0271
     24 C39        34.1920    5.1060    9.9190 C.ar      1 LX9        -0.0337
     25 C40        34.5230    6.4170    9.5420 C.ar      1 LX9        -0.0351
     26 C42        34.0570    6.8620    8.3050 C.ar      1 LX9         0.0648
     27 N43        34.2510    8.0570    7.7130 N.pl3     1 LX9        -0.2792
     28 C45        33.6660    8.1000    6.5420 C.2       1 LX9         0.0223
     29 C47        33.0380    6.9340    6.2740 C.2       1 LX9        -0.0628
     30 C49        33.2930    6.0500    7.4700 C.ar      1 LX9        -0.0269
     31 C50        32.9380    4.7460    7.8200 C.ar      1 LX9        -0.0739
     32 C52        33.3980    4.2980    9.0710 C.ar      1 LX9        -0.0708
     33 H          36.7029    5.2430   15.6836 H         1 LX9         0.1048
     34 H          38.2969    4.8293   17.5722 H         1 LX9         0.0510
     35 H          40.7061    9.1687   17.8830 H         1 LX9         0.0635
     36 H          39.9647    8.2999   15.6838 H         1 LX9         0.0522
     37 H          40.0636    7.8040   22.3418 H         1 LX9         0.1841
     38 H          37.8568    6.7369   21.4178 H         1 LX9         0.0543
     39 H          39.1011    5.6727   22.2490 H         1 LX9         0.0543
     40 H          39.7627    4.7150   20.2719 H         1 LX9         0.0457
     41 H          37.9894    4.9281   19.9982 H         1 LX9         0.0457
     42 H          40.6682    6.7185   12.4709 H         1 LX9         0.1703
     43 H          40.9997    7.0959   14.1647 H         1 LX9         0.1703
     44 H          36.3713    5.8900   11.3400 H         1 LX9         0.0576
     45 H          32.9955    3.2264   11.4616 H         1 LX9         0.0553
     46 H          33.7397    2.3812   13.6743 H         1 LX9         0.0597
     47 H          35.7727    3.3238   14.7526 H         1 LX9         0.0576
     48 H          35.1193    7.0604   10.1890 H         1 LX9         0.0553
     49 H          34.7825    8.8254    8.1223 H         1 LX9         0.2270
     50 H          33.6834    8.9607    5.8735 H         1 LX9         0.0940
     51 H          32.4664    6.6841    5.3802 H         1 LX9         0.0291
     52 H          32.3405    4.1135    7.1634 H         1 LX9         0.0539
     53 H          33.1336    3.2928    9.3991 H         1 LX9         0.0524
@<TRIPOS>BOND
     1    1    2 1  
     2    1    5 1  
     3    1   18 1  
     4    2    3 2  
     5    3    4 1  
     6    3   17 1  
     7    4    5 2  
     8    4    6 1  
     9    6    7 ar 
    10    6   11 ar 
    11    7    8 ar 
    12    8    9 ar 
    13    8   15 1  
    14    9   10 ar 
    15    9   12 1  
    16   10   11 ar 
    17   12   13 am 
    18   12   16 2  
    19   13   14 1  
    20   14   15 1  
    21   18   19 ar 
    22   18   23 ar 
    23   19   20 ar 
    24   20   21 ar 
    25   20   24 1  
    26   21   22 ar 
    27   22   23 ar 
    28   24   25 ar 
    29   24   32 ar 
    30   25   26 ar 
    31   26   27 1  
    32   26   30 ar 
    33   27   28 1  
    34   28   29 2  
    35   29   30 1  
    36   30   31 ar 
    37   31   32 ar 
    38    5   33 1  
    39    7   34 1  
    40   10   35 1  
    41   11   36 1  
    42   13   37 1  
    43   14   38 1  
    44   14   39 1  
    45   15   40 1  
    46   15   41 1  
    47   17   42 1  
    48   17   43 1  
    49   19   44 1  
    50   21   45 1  
    51   22   46 1  
    52   23   47 1  
    53   25   48 1  
    54   27   49 1  
    55   28   50 1  
    56   29   51 1  
    57   31   52 1  
    58   32   53 1  
@<TRIPOS>SUBSTRUCTURE
     1 LX9         1

