### 
### Created by X-TOOL on Mon Sep 10 21:13:00 2018
### 

@<TRIPOS>MOLECULE
3kgp_ligand
   20    20     1     0     0
SMALL
GAST_HUCK


@<TRIPOS>ATOM
      1 C         -26.8620   86.4380  -12.0030 C.2       1 4AZ         0.0584
      2 O         -26.0450   85.9370  -11.2960 O.co2     1 4AZ        -0.5625
      3 C1        -27.9970   86.9950  -11.5950 C.ar      1 4AZ         0.0032
      4 N1        -32.0180   89.9830  -10.9120 N.4       1 4AZ         0.2312
      5 C2        -28.2980   86.9990  -10.1870 C.ar      1 4AZ        -0.0541
      6 C3        -29.4900   87.5790   -9.7190 C.ar      1 4AZ        -0.0515
      7 C4        -30.3970   88.1590  -10.6310 C.ar      1 4AZ         0.0041
      8 C5        -30.1070   88.1560  -12.0110 C.ar      1 4AZ        -0.0515
      9 C6        -28.9210   87.5800  -12.4910 C.ar      1 4AZ        -0.0541
     10 C7        -31.6800   88.7790  -10.1280 C.3       1 4AZ        -0.0004
     11 OXT       -26.3340   86.3040  -13.1500 O.co2     1 4AZ        -0.5625
     12 H1        -32.8752   90.3819  -10.5624 H         1 4AZ         0.2008
     13 H2        -32.1353   89.7311  -11.8809 H         1 4AZ         0.2008
     14 H3        -31.2744   90.6584  -10.8280 H         1 4AZ         0.2008
     15 H4        -27.6027   86.5530   -9.4850 H         1 4AZ         0.0634
     16 H5        -29.7122   87.5806   -8.6580 H         1 4AZ         0.0566
     17 H6        -30.8070   88.6029  -12.7076 H         1 4AZ         0.0566
     18 H7        -28.7121   87.5836  -13.5547 H         1 4AZ         0.0634
     19 H8        -32.4957   88.0468  -10.2204 H         1 4AZ         0.0985
     20 H9        -31.5562   89.0587   -9.0714 H         1 4AZ         0.0985
@<TRIPOS>BOND
     1    1    2 ar 
     2    3    1 1  
     3    1   11 ar 
     4    5    3 ar 
     5    3    9 ar 
     6   10    4 1  
     7    6    5 ar 
     8    7    6 ar 
     9    7    8 ar 
    10    7   10 1  
    11    8    9 ar 
    12    4   12 1  
    13    4   13 1  
    14    4   14 1  
    15    5   15 1  
    16    6   16 1  
    17    8   17 1  
    18    9   18 1  
    19   10   19 1  
    20   10   20 1  
@<TRIPOS>SUBSTRUCTURE
     1 4AZ         1

