### 
### Created by X-TOOL on Mon Sep 10 21:13:03 2018
### 

@<TRIPOS>MOLECULE
3kgt_ligand
   30    32     1     0     0
SMALL
GAST_HUCK


@<TRIPOS>ATOM
      1 C1         22.4240   43.0910   34.7660 C.ar      1 GEN        -0.0021
      2 C2         21.5470   42.4820   33.9050 C.ar      1 GEN         0.0780
      3 O2         21.7170   42.6070   32.5550 O.3       1 GEN        -0.3349
      4 C3         20.4680   41.7390   34.3690 C.ar      1 GEN        -0.0082
      5 C4         20.2770   41.6050   35.7370 C.ar      1 GEN         0.0942
      6 O4         19.2250   40.8720   36.1970 O.3       1 GEN        -0.3324
      7 C5         21.1630   42.2170   36.6210 C.ar      1 GEN         0.0811
      8 C6         20.9920   42.0920   37.9940 C.2       1 GEN         0.1145
      9 O6         20.0550   41.4500   38.4620 O.2       1 GEN        -0.4182
     10 C7         21.9050   42.6970   38.8370 C.2       1 GEN         0.0480
     11 C8         22.9490   43.4200   38.2900 C.2       1 GEN         0.1185
     12 O9         23.1280   43.5710   36.9490 O.3       1 GEN        -0.2397
     13 C10        22.2350   42.9560   36.1300 C.ar      1 GEN         0.1339
     14 C11        21.7980   42.6130   40.2200 C.ar      1 GEN        -0.0380
     15 C12        21.8070   41.3820   40.8630 C.ar      1 GEN        -0.0703
     16 C13        21.7050   41.3300   42.2470 C.ar      1 GEN        -0.0379
     17 C14        21.6040   42.4930   42.9980 C.ar      1 GEN         0.0833
     18 O14        21.5060   42.4340   44.3550 O.3       1 GEN        -0.3358
     19 C15        21.6020   43.7180   42.3480 C.ar      1 GEN        -0.0379
     20 C16        21.6990   43.7810   40.9660 C.ar      1 GEN        -0.0703
     21 H1         23.2554   43.6712   34.3824 H         1 GEN         0.0405
     22 H2         21.0303   42.1291   32.1049 H         1 GEN         0.2494
     23 H3         19.7841   41.2699   33.6709 H         1 GEN         0.0405
     24 H4         19.2299   40.8747   37.1470 H         1 GEN         0.2504
     25 H5         23.6624   43.8913   38.9644 H         1 GEN         0.1311
     26 H6         21.8931   40.4672   40.2879 H         1 GEN         0.0543
     27 H7         21.7042   40.3684   42.7475 H         1 GEN         0.0533
     28 H8         21.4456   43.3148   44.7056 H         1 GEN         0.2470
     29 H9         21.5241   44.6328   42.9242 H         1 GEN         0.0533
     30 H10        21.6976   44.7433   40.4669 H         1 GEN         0.0543
@<TRIPOS>BOND
     1    1    2 ar 
     2    1   13 ar 
     3    2    3 1  
     4    2    4 ar 
     5    4    5 ar 
     6    5    6 1  
     7    5    7 ar 
     8    7    8 1  
     9    7   13 ar 
    10    8    9 2  
    11    8   10 1  
    12   10   11 2  
    13   10   14 1  
    14   11   12 1  
    15   12   13 1  
    16   14   15 ar 
    17   14   20 ar 
    18   15   16 ar 
    19   16   17 ar 
    20   17   18 1  
    21   17   19 ar 
    22   19   20 ar 
    23    1   21 1  
    24    3   22 1  
    25    4   23 1  
    26    6   24 1  
    27   11   25 1  
    28   15   26 1  
    29   16   27 1  
    30   18   28 1  
    31   19   29 1  
    32   20   30 1  
@<TRIPOS>SUBSTRUCTURE
     1 GEN         1

