### 
### Created by X-TOOL on Mon Sep 10 21:13:03 2018
### 

@<TRIPOS>MOLECULE
3kgu_ligand
   30    32     1     0     0
SMALL
GAST_HUCK


@<TRIPOS>ATOM
      1 C1         -0.8920    0.4980   -2.5460 C.ar      1 GEN        -0.0021
      2 C2          0.0280   -0.0750   -1.6780 C.ar      1 GEN         0.0780
      3 O2         -0.1520    0.0340   -0.3340 O.3       1 GEN        -0.3349
      4 C3          1.1220   -0.7650   -2.1840 C.ar      1 GEN        -0.0082
      5 C4          1.3000   -0.8730   -3.5580 C.ar      1 GEN         0.0942
      6 O4          2.3770   -1.5490   -4.0480 O.3       1 GEN        -0.3324
      7 C5          0.3760   -0.2970   -4.4240 C.ar      1 GEN         0.0811
      8 C6          0.5490   -0.4020   -5.7940 C.2       1 GEN         0.1145
      9 O6          1.5170   -0.9970   -6.2650 O.2       1 GEN        -0.4182
     10 C7         -0.3770    0.1900   -6.6300 C.2       1 GEN         0.0480
     11 C8         -1.4620    0.8580   -6.0810 C.2       1 GEN         0.1185
     12 O9         -1.6540    0.9730   -4.7330 O.3       1 GEN        -0.2397
     13 C10        -0.7230    0.3920   -3.9200 C.ar      1 GEN         0.1339
     14 C11        -0.2280    0.1090   -8.0100 C.ar      1 GEN        -0.0380
     15 C12        -0.1090    1.2690   -8.7670 C.ar      1 GEN        -0.0703
     16 C13         0.0380    1.1870  -10.1450 C.ar      1 GEN        -0.0379
     17 C14         0.0710   -0.0560  -10.7680 C.ar      1 GEN         0.0833
     18 O14         0.2180   -0.1400  -12.1220 O.3       1 GEN        -0.3358
     19 C15        -0.0450   -1.2160  -10.0100 C.ar      1 GEN        -0.0379
     20 C16        -0.1970   -1.1330   -8.6320 C.ar      1 GEN        -0.0703
     21 H1         -1.7477    1.0315   -2.1483 H         1 GEN         0.0405
     22 H2         -0.1604    0.9522   -0.0902 H         1 GEN         0.2494
     23 H3          1.8368   -1.2192   -1.5074 H         1 GEN         0.0405
     24 H4          2.3547   -1.5323   -4.9976 H         1 GEN         0.2504
     25 H5         -2.1910    1.3095   -6.7523 H         1 GEN         0.1311
     26 H6         -0.1310    2.2378   -8.2811 H         1 GEN         0.0543
     27 H7          0.1271    2.0917  -10.7354 H         1 GEN         0.0533
     28 H8          0.2205   -1.0534  -12.3831 H         1 GEN         0.2470
     29 H9         -0.0168   -2.1852  -10.4947 H         1 GEN         0.0533
     30 H10        -0.2915   -2.0373   -8.0417 H         1 GEN         0.0543
@<TRIPOS>BOND
     1    1    2 ar 
     2    1   13 ar 
     3    2    3 1  
     4    2    4 ar 
     5    4    5 ar 
     6    5    6 1  
     7    5    7 ar 
     8    7    8 1  
     9    7   13 ar 
    10    8    9 2  
    11    8   10 1  
    12   10   11 2  
    13   10   14 1  
    14   11   12 1  
    15   12   13 1  
    16   14   15 ar 
    17   14   20 ar 
    18   15   16 ar 
    19   16   17 ar 
    20   17   18 1  
    21   17   19 ar 
    22   19   20 ar 
    23    1   21 1  
    24    3   22 1  
    25    4   23 1  
    26    6   24 1  
    27   11   25 1  
    28   15   26 1  
    29   16   27 1  
    30   18   28 1  
    31   19   29 1  
    32   20   30 1  
@<TRIPOS>SUBSTRUCTURE
     1 GEN         1

