### 
### Created by X-TOOL on Mon Sep 10 21:13:04 2018
### 

@<TRIPOS>MOLECULE
3khj_ligand
   38    41     1     0     0
SMALL
GAST_HUCK


@<TRIPOS>ATOM
      1 O          20.8530   26.4870   10.0030 O.2       1 C64        -0.3814
      2 S          23.3100   21.8680    9.9980 S.3       1 C64         0.0056
      3 BR         17.9080   28.3200    4.0630 Br        1 C64        -0.0638
      4 C1         21.3100   26.5700   13.6660 C.ar      1 C64        -0.0373
      5 N1         21.1950   24.6940   11.9940 N.pl3     1 C64        -0.2117
      6 C2         19.6120   27.1520    7.6640 C.ar      1 C64        -0.0384
      7 N2         20.7360   22.3090   10.2210 N.2       1 C64        -0.2970
      8 C3         22.1510   27.1500   14.6180 C.ar      1 C64        -0.0730
      9 N3         23.2780   23.8540   12.3960 N.2       1 C64        -0.2938
     10 C4         18.7100   26.2030    8.1530 C.ar      1 C64         0.0694
     11 N4         18.8940   25.5550    9.3360 N.am      1 C64        -0.2299
     12 C5         19.3750   27.7840    6.4450 C.ar      1 C64        -0.0662
     13 C6         22.1230   23.7680   11.7040 C.2       1 C64         0.1840
     14 C7         22.1850   20.9460    9.0370 C.2       1 C64         0.0183
     15 C8         21.9440   22.6930   10.6760 C.2       1 C64         0.1663
     16 C9         23.9110   25.5280   14.1740 C.ar      1 C64        -0.0586
     17 C10        21.7460   25.4580   12.9470 C.ar      1 C64         0.0899
     18 C11        23.1080   24.9140   13.2150 C.ar      1 C64         0.0393
     19 C12        17.5720   25.8930    7.4120 C.ar      1 C64        -0.0384
     20 C13        19.9190   25.7190   10.1770 C.2       1 C64         0.2341
     21 C14        23.4270   26.6380   14.8690 C.ar      1 C64        -0.0746
     22 C15        20.8710   21.3220    9.2950 C.2       1 C64        -0.0052
     23 C16        17.3310   26.5220    6.1940 C.ar      1 C64        -0.0662
     24 C17        19.8580   24.8650   11.4210 C.3       1 C64         0.1506
     25 C18        18.2340   27.4660    5.7140 C.ar      1 C64        -0.0035
     26 H          20.3181   26.9844   13.4860 H         1 C64         0.0550
     27 H          20.5047   27.3988    8.2387 H         1 C64         0.0509
     28 H          21.8053   28.0197   15.1767 H         1 C64         0.0556
     29 H          18.1800   24.8787    9.6065 H         1 C64         0.2270
     30 H          20.0798   28.5239    6.0657 H         1 C64         0.0603
     31 H          22.4745   20.1733    8.3247 H         1 C64         0.0811
     32 H          24.9102   25.1444   14.3802 H         1 C64         0.0563
     33 H          16.8657   25.1531    7.7884 H         1 C64         0.0509
     34 H          24.0559   27.1141   15.6213 H         1 C64         0.0529
     35 H          20.0181   20.8627    8.7953 H         1 C64         0.0610
     36 H          16.4386   26.2762    5.6184 H         1 C64         0.0603
     37 H          19.2188   25.3552   12.1553 H         1 C64         0.0852
     38 H          19.4582   23.8856   11.1582 H         1 C64         0.0852
@<TRIPOS>BOND
     1   20    1 2  
     2    2   14 1  
     3   15    2 1  
     4   25    3 1  
     5    4    8 ar 
     6   17    4 ar 
     7    5   13 1  
     8    5   17 1  
     9   24    5 1  
    10   10    6 ar 
    11    6   12 ar 
    12   15    7 2  
    13    7   22 1  
    14    8   21 ar 
    15   13    9 2  
    16   18    9 1  
    17   11   10 1  
    18   10   19 ar 
    19   20   11 am 
    20   12   25 ar 
    21   13   15 1  
    22   22   14 2  
    23   18   16 ar 
    24   16   21 ar 
    25   17   18 ar 
    26   19   23 ar 
    27   20   24 1  
    28   23   25 ar 
    29    4   26 1  
    30    6   27 1  
    31    8   28 1  
    32   11   29 1  
    33   12   30 1  
    34   14   31 1  
    35   16   32 1  
    36   19   33 1  
    37   21   34 1  
    38   22   35 1  
    39   23   36 1  
    40   24   37 1  
    41   24   38 1  
@<TRIPOS>SUBSTRUCTURE
     1 C64         1

