### 
### Created by X-TOOL on Mon Sep 10 21:13:01 2018
### 

@<TRIPOS>MOLECULE
3khv_ligand
   22    22     1     0     0
SMALL
GAST_HUCK


@<TRIPOS>ATOM
      1 C         -31.8330   89.8330  -10.8480 C.3       1 4AL         0.0751
      2 N         -27.0910   85.9170  -12.6690 N.4       1 4AL         0.2299
      3 O         -31.8060   90.4570  -11.9290 O.3       1 4AL        -0.3836
      4 C1        -30.7840   88.9910  -11.1730 C.ar      1 4AL        -0.0245
      5 C2        -30.0510   88.5180  -10.1830 C.ar      1 4AL        -0.0645
      6 C3        -29.0160   87.7450  -10.2350 C.ar      1 4AL        -0.0617
      7 C4        -28.6230   87.4110  -11.4140 C.ar      1 4AL        -0.0054
      8 C5        -29.3270   87.8610  -12.4710 C.ar      1 4AL        -0.0617
      9 C6        -30.3950   88.6880  -12.4000 C.ar      1 4AL        -0.0645
     10 C7        -27.4590   86.4960  -11.4890 C.3       1 4AL        -0.0046
     11 H1        -32.7795   89.2969  -10.6848 H         1 4AL         0.0708
     12 H2        -31.6182   90.4710   -9.9781 H         1 4AL         0.0708
     13 H3        -26.2834   85.3328  -12.5191 H         1 4AL         0.2007
     14 H4        -26.8664   86.6349  -13.3399 H         1 4AL         0.2007
     15 H5        -27.8514   85.3557  -13.0194 H         1 4AL         0.2007
     16 H6        -32.4825   91.1240  -11.9253 H         1 4AL         0.2124
     17 H7        -30.3593   88.8193   -9.1884 H         1 4AL         0.0540
     18 H8        -28.5104   87.3995   -9.3406 H         1 4AL         0.0542
     19 H9        -29.0128   87.5346  -13.4558 H         1 4AL         0.0542
     20 H10       -30.8941   89.0731  -13.2819 H         1 4AL         0.0540
     21 H11       -26.5884   87.0693  -11.1378 H         1 4AL         0.0965
     22 H12       -27.6633   85.6733  -10.7880 H         1 4AL         0.0965
@<TRIPOS>BOND
     1    1    3 1  
     2    4    1 1  
     3   10    2 1  
     4    5    4 ar 
     5    4    9 ar 
     6    6    5 ar 
     7    7    6 ar 
     8    7    8 ar 
     9    7   10 1  
    10    8    9 ar 
    11    1   11 1  
    12    1   12 1  
    13    2   13 1  
    14    2   14 1  
    15    2   15 1  
    16    3   16 1  
    17    5   17 1  
    18    6   18 1  
    19    8   19 1  
    20    9   20 1  
    21   10   21 1  
    22   10   22 1  
@<TRIPOS>SUBSTRUCTURE
     1 4AL         1

