### 
### Created by X-TOOL on Mon Sep 10 21:13:01 2018
### 

@<TRIPOS>MOLECULE
3kid_ligand
   25    26     1     0     0
SMALL
GAST_HUCK


@<TRIPOS>ATOM
      1 C1         -0.6840  -30.6190  -12.3300 C.2       1 2BS         0.2553
      2 S1         -0.8810  -34.3990   -8.7520 S.3       1 2BS         0.0308
      3 C2         -0.1700  -28.9330  -10.5130 C.3       1 2BS         0.0727
      4 N2         -0.9760  -36.1120  -10.7520 N.2       1 2BS        -0.3034
      5 O2         -1.1110  -29.6180  -11.3350 O.3       1 2BS        -0.2791
      6 C3         -0.7250  -28.8460   -9.1220 C.3       1 2BS        -0.0373
      7 C4         -0.7650  -32.0800  -11.9900 C.ar      1 2BS         0.0486
      8 C5         -0.7800  -32.4530  -10.6270 C.ar      1 2BS        -0.0318
      9 C6         -0.8550  -33.8050  -10.3000 C.ar      1 2BS         0.0555
     10 C7         -0.9620  -36.0120   -9.3870 C.2       1 2BS         0.1850
     11 C8         -0.9150  -34.8820  -11.3580 C.ar      1 2BS         0.0153
     12 C9         -0.9000  -34.4690  -12.7180 C.ar      1 2BS        -0.0577
     13 O01        -0.2760  -30.2490  -13.4280 O.2       1 2BS        -0.3612
     14 N02        -1.0030  -37.1030   -8.5830 N.pl3     1 2BS        -0.2923
     15 C10        -0.8260  -33.0750  -13.0260 C.ar      1 2BS        -0.0548
     16 H           0.0066  -27.9317  -10.9057 H         1 2BS         0.0608
     17 H           0.7765  -29.4735  -10.5021 H         1 2BS         0.0608
     18 H          -1.6682  -28.3001   -9.1420 H         1 2BS         0.0255
     19 H          -0.8937  -29.8513   -8.7360 H         1 2BS         0.0255
     20 H          -0.0149  -28.3236   -8.4809 H         1 2BS         0.0255
     21 H          -0.7337  -31.6954   -9.8447 H         1 2BS         0.0614
     22 H          -0.9445  -35.2079  -13.5181 H         1 2BS         0.0548
     23 H          -1.0459  -38.0365   -8.9918 H         1 2BS         0.1902
     24 H          -0.9910  -36.9902   -7.5693 H         1 2BS         0.1902
     25 H          -0.8156  -32.7595  -14.0693 H         1 2BS         0.0596
@<TRIPOS>BOND
     1    1    5 1  
     2    7    1 1  
     3    1   13 2  
     4    9    2 1  
     5    2   10 1  
     6    5    3 1  
     7    3    6 1  
     8   10    4 2  
     9    4   11 1  
    10    8    7 ar 
    11    7   15 ar 
    12    8    9 ar 
    13    9   11 ar 
    14   10   14 1  
    15   11   12 ar 
    16   12   15 ar 
    17    3   16 1  
    18    3   17 1  
    19    6   18 1  
    20    6   19 1  
    21    6   20 1  
    22    8   21 1  
    23   12   22 1  
    24   14   23 1  
    25   14   24 1  
    26   15   25 1  
@<TRIPOS>SUBSTRUCTURE
     1 2BS         1

