### 
### Created by X-TOOL on Mon Sep 10 21:13:02 2018
### 

@<TRIPOS>MOLECULE
3kig_ligand
   19    19     1     0     0
SMALL
GAST_HUCK


@<TRIPOS>ATOM
      1 N1         15.8080    1.4990   16.2230 N.am      1 DA4        -0.2609
      2 S2         15.2820    2.9280   16.8670 S.o2      1 DA4         0.0659
      3 O3         15.8590    3.0520   18.1970 O.2       1 DA4        -0.1505
      4 O4         13.8550    3.0030   16.7950 O.2       1 DA4        -0.1505
      5 C5         15.9590    4.2240   15.8500 C.ar      1 DA4         0.1091
      6 C6         15.1460    5.1790   15.2430 C.ar      1 DA4        -0.0197
      7 C7         15.7450    6.1760   14.4620 C.ar      1 DA4         0.0265
      8 C8         17.1350    6.1760   14.3050 C.ar      1 DA4        -0.0462
      9 C9         17.9370    5.2070   14.9250 C.ar      1 DA4        -0.0587
     10 C10        17.3450    4.2040   15.6990 C.ar      1 DA4        -0.0350
     11 C11        14.9940    7.2200   13.7900 C.1       1 DA4        -0.0696
     12 C12        14.7920    8.1910   13.0770 C.1       1 DA4        -0.1139
     13 H1         16.7860    1.2918   16.1978 H         1 DA4         0.1635
     14 H2         15.1482    0.8418   15.8587 H         1 DA4         0.1635
     15 H3         14.0701    5.1511   15.3726 H         1 DA4         0.0649
     16 H4         17.6010    6.9394   13.6925 H         1 DA4         0.0630
     17 H5         19.0139    5.2354   14.8045 H         1 DA4         0.0619
     18 H6         17.9461    3.4334   16.1679 H         1 DA4         0.0637
     19 H7         14.6174    9.0305   12.4606 H         1 DA4         0.1232
@<TRIPOS>BOND
     1    1    2 am 
     2    2    3 2  
     3    2    4 2  
     4    2    5 1  
     5    5    6 ar 
     6    5   10 ar 
     7    6    7 ar 
     8    7    8 ar 
     9    7   11 1  
    10    8    9 ar 
    11    9   10 ar 
    12   11   12 3  
    13    1   13 1  
    14    1   14 1  
    15    6   15 1  
    16    8   16 1  
    17    9   17 1  
    18   10   18 1  
    19   12   19 1  
@<TRIPOS>SUBSTRUCTURE
     1 DA4         1

