### 
### Created by X-TOOL on Mon Sep 10 21:12:47 2018
### 

@<TRIPOS>MOLECULE
3kiv_ligand
   22    21     1     0     0
SMALL
GAST_HUCK


@<TRIPOS>ATOM
      1 C1          8.2050   11.9810    4.0400 C.2       1 ACA         0.0348
      2 O1          7.7650   12.6130    3.0210 O.co2     1 ACA        -0.5690
      3 O2          8.2330   10.7450    4.2470 O.co2     1 ACA        -0.5690
      4 C2          8.8920   12.9020    5.0800 C.3       1 ACA         0.0002
      5 C3          9.5420   14.0690    4.2640 C.3       1 ACA        -0.0413
      6 C4         10.0720   15.1500    5.2410 C.3       1 ACA        -0.0467
      7 C5         10.7850   14.5700    6.4320 C.3       1 ACA        -0.0125
      8 C6         10.9690   15.2760    7.6940 C.3       1 ACA        -0.0354
      9 N6         12.0190   14.7800    8.6560 N.4       1 ACA         0.2185
     10 H1          9.6641   12.3456    5.6316 H         1 ACA         0.0430
     11 H2          8.1495   13.2987    5.7881 H         1 ACA         0.0430
     12 H3          8.7887   14.5146    3.5978 H         1 ACA         0.0283
     13 H4         10.3761   13.6766    3.6638 H         1 ACA         0.0283
     14 H5          9.2199   15.7462    5.5993 H         1 ACA         0.0268
     15 H6         10.7720   15.8010    4.6967 H         1 ACA         0.0268
     16 H7         11.7965   14.3182    6.0808 H         1 ACA         0.0317
     17 H8         10.2435   13.6461    6.6832 H         1 ACA         0.0317
     18 H9         10.0055   15.2478    8.2240 H         1 ACA         0.0813
     19 H10        11.2219   16.3179    7.4480 H         1 ACA         0.0813
     20 H11        12.0268   15.3659    9.4762 H         1 ACA         0.1994
     21 H12        12.9234   14.8116    8.2119 H         1 ACA         0.1994
     22 H13        11.8087   13.8310    8.9230 H         1 ACA         0.1994
@<TRIPOS>BOND
     1    1    4 1  
     2    1    3 ar 
     3    1    2 ar 
     4    4    5 1  
     5    5    6 1  
     6    6    7 1  
     7    7    8 1  
     8    8    9 1  
     9    4   10 1  
    10    4   11 1  
    11    5   12 1  
    12    5   13 1  
    13    6   14 1  
    14    6   15 1  
    15    7   16 1  
    16    7   17 1  
    17    8   18 1  
    18    8   19 1  
    19    9   20 1  
    20    9   21 1  
    21    9   22 1  
@<TRIPOS>SUBSTRUCTURE
     1 ACA         1

