### 
### Created by X-TOOL on Mon Sep 10 21:13:00 2018
### 

@<TRIPOS>MOLECULE
3kjd_ligand
   35    37     1     0     0
SMALL
GAST_HUCK


@<TRIPOS>ATOM
      1 C4         -4.5300   34.2590   39.6100 C.ar      1 78P         0.1298
      2 C5         -4.6280   33.8220   40.9280 C.ar      1 78P         0.0890
      3 C6         -5.8530   33.3540   41.4120 C.ar      1 78P        -0.0389
      4 C8         -4.0360   34.9800   37.6590 C.2       1 78P         0.1617
      5 C10        -3.4220   33.8050   41.8730 C.2       1 78P         0.2002
      6 C13        -3.2780   35.6020   36.4930 C.3       1 78P         0.0219
      7 C15        -1.8020   37.1720   37.5010 C.3       1 78P        -0.0383
      8 C17        -3.8660   36.9730   36.2380 C.3       1 78P        -0.0214
      9 C1         -6.9920   33.3350   40.6080 C.ar      1 78P        -0.0533
     10 C2         -6.8770   33.7760   39.3110 C.ar      1 78P        -0.0314
     11 C3         -5.6620   34.2220   38.8080 C.ar      1 78P         0.0965
     12 N7         -5.3070   34.6570   37.6020 N.2       1 78P        -0.2404
     13 N9         -3.5280   34.7750   38.8550 N.pl3     1 78P        -0.2383
     14 N11        -2.2780   34.2350   41.3790 N.am      1 78P        -0.3015
     15 O12        -3.5000   33.3150   42.9960 O.2       1 78P        -0.3899
     16 N14        -1.8660   35.8350   36.8740 N.4       1 78P         0.1868
     17 C16        -3.1210   37.8940   37.1790 C.3       1 78P        -0.0148
     18 C18        -3.4370   34.7970   35.2110 C.3       1 78P        -0.0379
     19 H1         -5.9189   32.9984   42.4339 H         1 78P         0.0722
     20 H2         -0.9532   37.7392   37.0915 H         1 78P         0.0814
     21 H3         -1.6845   37.0714   38.5901 H         1 78P         0.0814
     22 H4         -4.9432   36.9802   36.4608 H         1 78P         0.0224
     23 H5         -3.7057   37.2751   35.1925 H         1 78P         0.0224
     24 H6         -7.9413   32.9825   40.9947 H         1 78P         0.0592
     25 H7         -7.7507   33.7756   38.6693 H         1 78P         0.0707
     26 H8         -2.5625   34.9677   39.1577 H         1 78P         0.2366
     27 H9         -1.4585   34.2457   41.9519 H         1 78P         0.1804
     28 H10        -2.2297   34.5505   40.4313 H         1 78P         0.1804
     29 H11        -1.2778   35.8080   36.0559 H         1 78P         0.1975
     30 H12        -1.5635   35.1309   37.5288 H         1 78P         0.1975
     31 H13        -2.9217   38.8606   36.6933 H         1 78P         0.0311
     32 H14        -3.7036   38.0584   38.0975 H         1 78P         0.0311
     33 H15        -4.5067   34.6641   34.9918 H         1 78P         0.0186
     34 H16        -2.9631   33.8121   35.3353 H         1 78P         0.0186
     35 H17        -2.9562   35.3330   34.3794 H         1 78P         0.0186
@<TRIPOS>BOND
     1    1    2 ar 
     2    1   11 ar 
     3   13    1 1  
     4    2    3 ar 
     5    2    5 1  
     6    3    9 ar 
     7    4    6 1  
     8    4   12 2  
     9    4   13 1  
    10    5   14 am 
    11    5   15 2  
    12    6    8 1  
    13    6   16 1  
    14    6   18 1  
    15   16    7 1  
    16    7   17 1  
    17    8   17 1  
    18    9   10 ar 
    19   10   11 ar 
    20   11   12 1  
    21    3   19 1  
    22    7   20 1  
    23    7   21 1  
    24    8   22 1  
    25    8   23 1  
    26    9   24 1  
    27   10   25 1  
    28   13   26 1  
    29   14   27 1  
    30   14   28 1  
    31   16   29 1  
    32   16   30 1  
    33   17   31 1  
    34   17   32 1  
    35   18   33 1  
    36   18   34 1  
    37   18   35 1  
@<TRIPOS>SUBSTRUCTURE
     1 78P         1

