### 
### Created by X-TOOL on Mon Sep 10 21:13:03 2018
### 

@<TRIPOS>MOLECULE
3kjf_ligand
   76    79     1     0     0
SMALL
GAST_HUCK


@<TRIPOS>ATOM
      1 C1         16.3620   -2.2790   13.8230 C.3       1 B92         0.0119
      2 C2         16.7590   -1.1030   12.9950 C.2       1 B92         0.1289
      3 O3         16.1610   -0.0430   13.1380 O.2       1 B92        -0.3893
      4 C4         17.8880   -1.2770   12.0160 C.3       1 B92         0.1260
      5 C5         17.5010   -0.5610   10.7350 C.3       1 B92         0.0395
      6 C6         18.7050   -0.1190    9.9500 C.2       1 B92         0.0393
      7 O7         18.7170    0.1340    8.7520 O.co2     1 B92        -0.5688
      8 O8         19.8100    0.0230   10.7200 O.co2     1 B92        -0.5688
      9 N9         18.0240   -2.7010   11.7840 N.am      1 B92        -0.2624
     10 C10        19.1030   -3.4090   12.2490 C.2       1 B92         0.2103
     11 O11        19.9330   -2.8350   12.9420 O.2       1 B92        -0.3928
     12 C12        19.1830   -4.8870   11.8260 C.3       1 B92         0.1662
     13 C13        18.6450   -5.7200   12.9280 C.2       1 B92        -0.0604
     14 C14        19.3910   -6.2080   13.9250 C.2       1 B92        -0.0488
     15 C15        18.8070   -7.0660   14.9980 C.3       1 B92        -0.0254
     16 C16        19.3220   -6.6300   16.3600 C.3       1 B92        -0.0442
     17 C17        20.8220   -6.3920   16.3680 C.3       1 B92        -0.0474
     18 C18        21.1810   -5.3010   15.3730 C.3       1 B92        -0.0187
     19 C19        20.8570   -5.9440   14.0480 C.3       1 B92         0.0966
     20 N20        21.4000   -5.3880   12.8290 N.am      1 B92        -0.1303
     21 N21        20.6200   -5.0000   11.7650 N.am      1 B92        -0.1188
     22 C22        21.4240   -4.6010   10.7360 C.2       1 B92         0.3184
     23 O23        21.0550   -4.1660    9.6580 O.2       1 B92        -0.3902
     24 N24        22.7080   -4.8060   11.1980 N.am      1 B92        -0.1511
     25 C25        23.9070   -4.5290   10.4410 C.3       1 B92         0.0829
     26 C26        24.6330   -5.8140   10.0780 C.3       1 B92         0.0679
     27 C27        25.7930   -5.5130    9.1430 C.3       1 B92        -0.0161
     28 C28        26.8320   -6.6180    9.1690 C.3       1 B92         0.0024
     29 C29        27.5120   -6.7480    7.8340 C.2       1 B92         0.0349
     30 O30        27.3430   -6.0480    6.8470 O.co2     1 B92        -0.5690
     31 O31        28.3790   -7.7910    7.8360 O.co2     1 B92        -0.5690
     32 N32        23.6940   -6.7530    9.4930 N.am      1 B92        -0.2799
     33 C33        23.3290   -7.9120   10.1440 C.2       1 B92         0.1878
     34 O34        23.4890   -8.1170   11.3400 O.2       1 B92        -0.3941
     35 C35        22.6820   -8.9560    9.2730 C.3       1 B92         0.0703
     36 C36        22.9760   -8.7860    7.8220 C.ar      1 B92        -0.0243
     37 C37        22.0360   -8.2080    7.0020 C.ar      1 B92        -0.0580
     38 C38        22.3050   -8.0360    5.6610 C.ar      1 B92        -0.0681
     39 C39        23.5090   -8.4460    5.1360 C.ar      1 B92        -0.0684
     40 C40        24.4510   -9.0350    5.9540 C.ar      1 B92        -0.0681
     41 C41        24.1800   -9.2010    7.2960 C.ar      1 B92        -0.0580
     42 C42        22.7190   -5.3070   12.4810 C.2       1 B92         0.3170
     43 O43        23.6870   -5.6030   13.1710 O.2       1 B92        -0.3902
     44 H          16.4853   -2.0368   14.8786 H         1 B92         0.0459
     45 H          15.3189   -2.5257   13.6249 H         1 B92         0.0459
     46 H          16.9928   -3.1307   13.5683 H         1 B92         0.0459
     47 H          18.8302   -0.8685   12.3813 H         1 B92         0.0810
     48 H          16.9239    0.3246   11.0009 H         1 B92         0.0479
     49 H          16.9274   -1.2528   10.1181 H         1 B92         0.0479
     50 H          17.2977   -3.1901   11.2608 H         1 B92         0.1886
     51 H          18.6462   -5.1825   10.9246 H         1 B92         0.0894
     52 H          17.5791   -5.9481   12.9255 H         1 B92         0.0286
     53 H          19.0968   -8.1020   14.8227 H         1 B92         0.0414
     54 H          17.7215   -6.9691   14.9801 H         1 B92         0.0414
     55 H          19.1048   -7.4266   17.0716 H         1 B92         0.0287
     56 H          18.8320   -5.6916   16.6194 H         1 B92         0.0287
     57 H          21.3326   -7.3137   16.0890 H         1 B92         0.0269
     58 H          21.1304   -6.0821   17.3665 H         1 B92         0.0269
     59 H          22.2202   -4.9810   15.4483 H         1 B92         0.0310
     60 H          20.6335   -4.3737   15.5417 H         1 B92         0.0310
     61 H          21.4271   -6.8705   14.1164 H         1 B92         0.0730
     62 H          24.5697   -3.9136   11.0495 H         1 B92         0.0595
     63 H          23.6283   -4.0139    9.5217 H         1 B92         0.0595
     64 H          25.0495   -6.2706   10.9758 H         1 B92         0.0580
     65 H          26.2667   -4.5870    9.4688 H         1 B92         0.0306
     66 H          25.4046   -5.4292    8.1280 H         1 B92         0.0306
     67 H          26.3357   -7.5600    9.4024 H         1 B92         0.0431
     68 H          27.5820   -6.3758    9.9219 H         1 B92         0.0431
     69 H          23.2939   -6.5503    8.5769 H         1 B92         0.1856
     70 H          21.6033   -8.8665    9.4011 H         1 B92         0.0659
     71 H          23.0773   -9.9256    9.5757 H         1 B92         0.0659
     72 H          21.0787   -7.8860    7.4119 H         1 B92         0.0561
     73 H          21.5604   -7.5730    5.0134 H         1 B92         0.0600
     74 H          23.7182   -8.3057    4.0755 H         1 B92         0.0561
     75 H          25.4039   -9.3672    5.5420 H         1 B92         0.0600
     76 H          24.9234   -9.6637    7.9451 H         1 B92         0.0561
@<TRIPOS>BOND
     1    1    2 1  
     2    2    3 2  
     3    2    4 1  
     4    4    5 1  
     5    4    9 1  
     6    5    6 1  
     7    6    7 ar 
     8    6    8 ar 
     9    9   10 am 
    10   10   11 2  
    11   10   12 1  
    12   12   13 1  
    13   12   21 1  
    14   13   14 2  
    15   14   15 1  
    16   14   19 1  
    17   15   16 1  
    18   16   17 1  
    19   17   18 1  
    20   18   19 1  
    21   19   20 1  
    22   20   21 1  
    23   20   42 am 
    24   21   22 am 
    25   22   23 2  
    26   22   24 am 
    27   24   25 1  
    28   24   42 am 
    29   25   26 1  
    30   26   27 1  
    31   26   32 1  
    32   27   28 1  
    33   28   29 1  
    34   29   30 ar 
    35   29   31 ar 
    36   32   33 am 
    37   33   34 2  
    38   33   35 1  
    39   35   36 1  
    40   36   37 ar 
    41   36   41 ar 
    42   37   38 ar 
    43   38   39 ar 
    44   39   40 ar 
    45   40   41 ar 
    46   42   43 2  
    47    1   44 1  
    48    1   45 1  
    49    1   46 1  
    50    4   47 1  
    51    5   48 1  
    52    5   49 1  
    53    9   50 1  
    54   12   51 1  
    55   13   52 1  
    56   15   53 1  
    57   15   54 1  
    58   16   55 1  
    59   16   56 1  
    60   17   57 1  
    61   17   58 1  
    62   18   59 1  
    63   18   60 1  
    64   19   61 1  
    65   25   62 1  
    66   25   63 1  
    67   26   64 1  
    68   27   65 1  
    69   27   66 1  
    70   28   67 1  
    71   28   68 1  
    72   32   69 1  
    73   35   70 1  
    74   35   71 1  
    75   37   72 1  
    76   38   73 1  
    77   39   74 1  
    78   40   75 1  
    79   41   76 1  
@<TRIPOS>SUBSTRUCTURE
     1 B92         1

