### 
### Created by X-TOOL on Mon Sep 10 21:13:02 2018
### 

@<TRIPOS>MOLECULE
3kjn_ligand
   77    81     1     0     0
SMALL
GAST_HUCK


@<TRIPOS>ATOM
      1 C1        -11.9170   36.5420   37.4590 C.3       1 B93         0.0119
      2 C2        -10.5460   36.4140   36.8770 C.2       1 B93         0.1289
      3 O3        -10.3370   36.7860   35.7320 O.2       1 B93        -0.3893
      4 C4         -9.4430   35.8270   37.7260 C.3       1 B93         0.1260
      5 C5         -8.5360   34.9850   36.8460 C.3       1 B93         0.0395
      6 C6         -7.1950   34.9010   37.5170 C.2       1 B93         0.0393
      7 O7         -6.7570   35.6990   38.3290 O.co2     1 B93        -0.5688
      8 O8         -6.5030   33.8220   37.1070 O.co2     1 B93        -0.5688
      9 N9        -10.0810   34.9930   38.7270 N.am      1 B93        -0.2624
     10 C10       -10.0830   35.3600   40.0540 C.2       1 B93         0.2103
     11 O11        -9.5280   36.3510   40.5110 O.2       1 B93        -0.3928
     12 C12       -10.8620   34.3830   40.8940 C.3       1 B93         0.1662
     13 C13       -12.3080   34.7500   40.8120 C.2       1 B93        -0.0607
     14 C14       -12.9880   35.3620   41.7890 C.2       1 B93        -0.0515
     15 C15       -14.4440   35.6580   41.6070 C.3       1 B93        -0.0228
     16 C16       -14.8610   37.1110   41.5230 C.3       1 B93        -0.0324
     17 C17       -14.0590   37.9030   40.5070 C.3       1 B93        -0.0485
     18 C18       -14.5270   39.3440   40.4890 C.3       1 B93        -0.0527
     19 C19       -16.0020   39.4070   40.1270 C.3       1 B93        -0.0530
     20 C20       -16.8270   38.5960   41.1060 C.3       1 B93        -0.0527
     21 C21       -16.3360   37.1650   41.1610 C.3       1 B93        -0.0485
     22 C22       -12.3340   35.7270   43.0830 C.3       1 B93         0.0857
     23 N23       -10.8930   35.6480   42.9430 N.am      1 B93        -0.1334
     24 N24       -10.4320   34.5240   42.2740 N.am      1 B93        -0.1191
     25 C25        -9.1620   34.2400   42.7120 C.2       1 B93         0.3184
     26 O26        -8.3420   33.5020   42.1870 O.2       1 B93        -0.3902
     27 N27        -8.9740   35.0420   43.8090 N.am      1 B93        -0.1514
     28 C28        -7.6680   35.2530   44.3960 C.3       1 B93         0.0799
     29 C29        -7.5530   34.5310   45.7230 C.3       1 B93         0.0547
     30 N30        -7.5990   33.0930   45.5650 N.am      1 B93        -0.2849
     31 C31        -7.6910   32.2690   46.6720 C.2       1 B93         0.1986
     32 O32        -7.8640   32.6460   47.8250 O.2       1 B93        -0.3875
     33 C33        -7.5460   30.8320   46.3790 C.ar      1 B93         0.0372
     34 C34        -7.9750   30.3540   45.1600 C.ar      1 B93        -0.0568
     35 C35        -7.8690   29.0240   44.8090 C.ar      1 B93        -0.0563
     36 C36        -7.3030   28.2230   45.7740 C.ar      1 B93         0.0376
     37 N37        -7.0420   26.8830   45.7820 N.2       1 B93        -0.3029
     38 C38        -6.4700   26.5700   46.9790 C.2       1 B93         0.1053
     39 N39        -6.3540   27.6400   47.7360 N.pl3     1 B93        -0.2488
     40 C40        -6.8680   28.6770   47.0020 C.ar      1 B93         0.0894
     41 C41        -6.9790   30.0190   47.3390 C.ar      1 B93        -0.0188
     42 C42       -10.0330   35.8960   43.9900 C.2       1 B93         0.3167
     43 O43       -10.1840   36.7070   44.8950 O.2       1 B93        -0.3903
     44 H         -12.2131   37.5910   37.4608 H         1 B93         0.0459
     45 H         -12.6206   35.9656   36.8583 H         1 B93         0.0459
     46 H         -11.9135   36.1624   38.4808 H         1 B93         0.0459
     47 H          -8.8425   36.6038   38.1995 H         1 B93         0.0810
     48 H          -8.4380   35.4386   35.8597 H         1 B93         0.0479
     49 H          -8.9562   33.9880   36.7136 H         1 B93         0.0479
     50 H         -10.5338   34.1239   38.4442 H         1 B93         0.1886
     51 H         -10.7031   33.3621   40.5466 H         1 B93         0.0894
     52 H         -12.8446   34.5030   39.8960 H         1 B93         0.0286
     53 H         -14.9353   35.2643   42.4968 H         1 B93         0.0416
     54 H         -14.7127   35.2212   40.6452 H         1 B93         0.0416
     55 H         -14.6712   37.5692   42.4937 H         1 B93         0.0322
     56 H         -14.2013   37.4668   39.5183 H         1 B93         0.0269
     57 H         -13.0039   37.8715   40.7789 H         1 B93         0.0269
     58 H         -13.9518   39.8987   39.7477 H         1 B93         0.0265
     59 H         -14.3812   39.7808   41.4770 H         1 B93         0.0265
     60 H         -16.1378   38.9968   39.1263 H         1 B93         0.0265
     61 H         -16.3306   40.4456   40.1640 H         1 B93         0.0265
     62 H         -17.8668   38.5998   40.7790 H         1 B93         0.0265
     63 H         -16.7341   39.0392   42.0975 H         1 B93         0.0265
     64 H         -16.9034   36.6288   41.9217 H         1 B93         0.0269
     65 H         -16.4730   36.7096   40.1802 H         1 B93         0.0269
     66 H         -12.6596   35.0350   43.8597 H         1 B93         0.0694
     67 H         -12.6149   36.7445   43.3549 H         1 B93         0.0694
     68 H          -7.5254   36.3207   44.5627 H         1 B93         0.0592
     69 H          -6.9097   34.8636   43.7166 H         1 B93         0.0592
     70 H          -8.3937   34.8318   46.3482 H         1 B93         0.0543
     71 H          -6.5949   34.7937   46.1715 H         1 B93         0.0543
     72 H          -7.5633   32.6846   44.6310 H         1 B93         0.1844
     73 H          -8.4140   31.0520   44.4471 H         1 B93         0.0568
     74 H          -8.2059   28.6394   43.8464 H         1 B93         0.0565
     75 H          -6.1518   25.5689   47.2698 H         1 B93         0.1366
     76 H          -5.9619   27.6879   48.6764 H         1 B93         0.2348
     77 H          -6.6401   30.4057   48.3001 H         1 B93         0.0609
@<TRIPOS>BOND
     1    1    2 1  
     2    2    3 2  
     3    2    4 1  
     4    4    5 1  
     5    4    9 1  
     6    5    6 1  
     7    6    7 ar 
     8    6    8 ar 
     9    9   10 am 
    10   10   11 2  
    11   10   12 1  
    12   12   13 1  
    13   12   24 1  
    14   13   14 2  
    15   14   15 1  
    16   14   22 1  
    17   15   16 1  
    18   16   17 1  
    19   16   21 1  
    20   17   18 1  
    21   18   19 1  
    22   19   20 1  
    23   20   21 1  
    24   22   23 1  
    25   23   24 1  
    26   23   42 am 
    27   24   25 am 
    28   25   26 2  
    29   25   27 am 
    30   27   28 1  
    31   27   42 am 
    32   28   29 1  
    33   29   30 1  
    34   30   31 am 
    35   31   32 2  
    36   31   33 1  
    37   33   34 ar 
    38   33   41 ar 
    39   34   35 ar 
    40   35   36 ar 
    41   36   37 1  
    42   36   40 ar 
    43   37   38 2  
    44   38   39 1  
    45   39   40 1  
    46   40   41 ar 
    47   42   43 2  
    48    1   44 1  
    49    1   45 1  
    50    1   46 1  
    51    4   47 1  
    52    5   48 1  
    53    5   49 1  
    54    9   50 1  
    55   12   51 1  
    56   13   52 1  
    57   15   53 1  
    58   15   54 1  
    59   16   55 1  
    60   17   56 1  
    61   17   57 1  
    62   18   58 1  
    63   18   59 1  
    64   19   60 1  
    65   19   61 1  
    66   20   62 1  
    67   20   63 1  
    68   21   64 1  
    69   21   65 1  
    70   22   66 1  
    71   22   67 1  
    72   28   68 1  
    73   28   69 1  
    74   29   70 1  
    75   29   71 1  
    76   30   72 1  
    77   34   73 1  
    78   35   74 1  
    79   38   75 1  
    80   39   76 1  
    81   41   77 1  
@<TRIPOS>SUBSTRUCTURE
     1 B93         1

