### 
### Created by X-TOOL on Mon Sep 10 21:13:03 2018
### 

@<TRIPOS>MOLECULE
3kjq_ligand
   49    50     1     0     0
SMALL
GAST_HUCK


@<TRIPOS>ATOM
      1 C1        -12.8510   37.4490   38.2830 C.3       1 B94         0.0119
      2 C2        -11.4490   37.3170   37.7640 C.2       1 B94         0.1289
      3 O3        -11.2020   37.7610   36.6490 O.2       1 B94        -0.3893
      4 C4        -10.4220   36.6220   38.6450 C.3       1 B94         0.1261
      5 C5         -9.5080   35.7430   37.8030 C.3       1 B94         0.0395
      6 C6         -8.1710   35.6880   38.4920 C.2       1 B94         0.0393
      7 O7         -7.7840   36.4950   39.3250 O.co2     1 B94        -0.5688
      8 O8         -7.4340   34.6420   38.0710 O.co2     1 B94        -0.5688
      9 N9        -11.1950   35.8210   39.5810 N.am      1 B94        -0.2619
     10 C10       -11.3330   36.1030   40.9230 C.2       1 B94         0.2144
     11 O11       -10.8090   37.0340   41.5210 O.2       1 B94        -0.3918
     12 C12       -12.2370   35.1050   41.5920 C.3       1 B94         0.1761
     13 C13       -13.6460   35.6000   41.4790 C.2       1 B94        -0.0504
     14 C14       -14.3820   36.0460   42.5040 C.2       1 B94        -0.0667
     15 C15       -13.9220   36.1300   43.9190 C.3       1 B94         0.0862
     16 C16       -14.6000   35.0490   44.7320 C.3       1 B94        -0.0327
     17 N29       -12.4730   36.0000   43.9450 N.am      1 B94        -0.1321
     18 N30       -11.8920   35.0850   42.9920 N.am      1 B94        -0.1151
     19 C31       -10.7200   34.5620   43.5400 C.2       1 B94         0.3188
     20 O32        -9.9350   33.8240   42.9690 O.2       1 B94        -0.3902
     21 N33       -10.6490   35.0530   44.8140 N.am      1 B94        -0.1532
     22 C34        -9.4740   34.8880   45.6420 C.3       1 B94         0.0614
     23 C35        -8.5830   36.1120   45.5790 C.3       1 B94        -0.0169
     24 C36        -7.4940   35.9260   46.6100 C.3       1 B94         0.0023
     25 C37        -6.6700   37.1630   46.7550 C.2       1 B94         0.0349
     26 O38        -6.3470   37.9320   45.8630 O.co2     1 B94        -0.5690
     27 O39        -6.3060   37.3100   48.0550 O.co2     1 B94        -0.5690
     28 C40       -11.6880   35.9140   45.0900 C.2       1 B94         0.3168
     29 O41       -11.9070   36.4890   46.1510 O.2       1 B94        -0.3903
     30 H         -13.1210   38.5039   38.3324 H         1 B94         0.0459
     31 H         -13.5355   36.9285   37.6132 H         1 B94         0.0459
     32 H         -12.9112   37.0102   39.2790 H         1 B94         0.0459
     33 H          -9.7793   37.3337   39.1632 H         1 B94         0.0810
     34 H          -9.4025   36.1547   36.7993 H         1 B94         0.0479
     35 H          -9.9273   34.7417   37.7048 H         1 B94         0.0479
     36 H         -11.6679   34.9929   39.2191 H         1 B94         0.1886
     37 H         -12.1361   34.1188   41.1389 H         1 B94         0.0944
     38 H         -14.1053   35.5968   40.4905 H         1 B94         0.0494
     39 H         -15.3985   36.3738   42.2866 H         1 B94         0.0485
     40 H         -14.1890   37.0907   44.3594 H         1 B94         0.0704
     41 H         -15.6802   35.1886   44.6906 H         1 B94         0.0272
     42 H         -14.3426   34.0724   44.3220 H         1 B94         0.0272
     43 H         -14.2639   35.1099   45.7671 H         1 B94         0.0272
     44 H          -8.9105   34.0284   45.2791 H         1 B94         0.0573
     45 H          -9.7932   34.7428   46.6740 H         1 B94         0.0573
     46 H          -9.1568   37.0154   45.7857 H         1 B94         0.0306
     47 H          -8.1537   36.2233   44.5833 H         1 B94         0.0306
     48 H          -6.8451   35.1118   46.2874 H         1 B94         0.0431
     49 H          -7.9588   35.7032   47.5704 H         1 B94         0.0431
@<TRIPOS>BOND
     1    1    2 1  
     2    2    3 2  
     3    2    4 1  
     4    4    5 1  
     5    4    9 1  
     6    5    6 1  
     7    6    7 ar 
     8    6    8 ar 
     9    9   10 am 
    10   10   11 2  
    11   10   12 1  
    12   12   13 1  
    13   12   18 1  
    14   13   14 2  
    15   14   15 1  
    16   15   16 1  
    17   15   17 1  
    18   17   18 1  
    19   17   28 am 
    20   18   19 am 
    21   19   20 2  
    22   19   21 am 
    23   21   22 1  
    24   21   28 am 
    25   22   23 1  
    26   23   24 1  
    27   24   25 1  
    28   25   26 ar 
    29   25   27 ar 
    30   28   29 2  
    31    1   30 1  
    32    1   31 1  
    33    1   32 1  
    34    4   33 1  
    35    5   34 1  
    36    5   35 1  
    37    9   36 1  
    38   12   37 1  
    39   13   38 1  
    40   14   39 1  
    41   15   40 1  
    42   16   41 1  
    43   16   42 1  
    44   16   43 1  
    45   22   44 1  
    46   22   45 1  
    47   23   46 1  
    48   23   47 1  
    49   24   48 1  
    50   24   49 1  
@<TRIPOS>SUBSTRUCTURE
     1 B94         1

