### 
### Created by X-TOOL on Mon Sep 10 21:13:02 2018
### 

@<TRIPOS>MOLECULE
3kku_ligand
   39    41     1     0     0
SMALL
GAST_HUCK


@<TRIPOS>ATOM
      1 OAA        -5.5420  -36.4310   -0.0900 O.2       1 B95        -0.3941
      2 BRAB       -0.1270  -36.6070    0.3810 Br        1 B95        -0.0580
      3 CAC        -0.6660  -39.3060    3.4620 C.ar      1 B95        -0.0700
      4 CAD        -1.8790  -38.8910    4.0080 C.ar      1 B95        -0.0678
      5 CAE        -5.1660  -39.1690    7.4190 C.ar      1 B95        -0.0766
      6 CAF        -5.8960  -38.2040    8.1000 C.ar      1 B95        -0.0786
      7 CAG        -0.1230  -38.5960    2.3990 C.ar      1 B95        -0.0611
      8 CAH        -2.5910  -37.8140    3.4980 C.ar      1 B95        -0.0300
      9 CAI        -5.2100  -39.2530    6.0340 C.ar      1 B95        -0.0422
     10 CAJ        -6.6940  -37.3010    7.4200 C.ar      1 B95        -0.0656
     11 CAK        -6.7890  -35.3970    2.1840 C.3       1 B95         0.0486
     12 CAL        -7.6110  -36.6110    2.5850 C.3       1 B95         0.0500
     13 CAM        -3.3610  -36.2330    0.6970 C.3       1 B95         0.1598
     14 NAN        -6.2260  -38.1870    4.0100 N.pl3     1 B95        -0.2464
     15 NAO        -5.3620  -35.6640    2.0160 N.am      1 B95        -0.2819
     16 NAP        -7.3660  -36.6420    5.0990 N.2       1 B95        -0.3180
     17 OAQ        -2.7200  -36.0360    1.9270 O.3       1 B95        -0.2955
     18 CAR        -4.8420  -36.1010    0.8560 C.2       1 B95         0.2073
     19 CAS        -0.8350  -37.5090    1.8830 C.ar      1 B95         0.0407
     20 CAT        -7.0670  -37.1420    3.8720 C.2       1 B95         0.1225
     21 CAU        -2.0520  -37.1190    2.4370 C.ar      1 B95         0.1044
     22 CAV        -6.0000  -38.3500    5.3360 C.ar      1 B95         0.0783
     23 CAW        -6.7200  -37.3780    6.0280 C.ar      1 B95         0.0207
     24 H1         -0.1523  -40.1726    3.8621 H         1 B95         0.0530
     25 H2         -2.2803  -39.4275    4.8601 H         1 B95         0.0613
     26 H3         -4.5526  -39.8671    7.9771 H         1 B95         0.0528
     27 H4         -5.8399  -38.1573    9.1815 H         1 B95         0.0516
     28 H5          0.8347  -38.8792    1.9774 H         1 B95         0.0616
     29 H6         -3.5460  -37.5271    3.9232 H         1 B95         0.0550
     30 H7         -4.6385  -40.0091    5.5079 H         1 B95         0.0541
     31 H8         -7.2790  -36.5590    7.9513 H         1 B95         0.0535
     32 H9         -6.9061  -34.6294    2.9631 H         1 B95         0.0552
     33 H10        -7.1822  -35.0147    1.2305 H         1 B95         0.0552
     34 H11        -7.5396  -37.3828    1.8045 H         1 B95         0.0553
     35 H12        -8.6635  -36.3201    2.7180 H         1 B95         0.0553
     36 H13        -3.1248  -37.2397    0.3219 H         1 B95         0.0861
     37 H14        -3.0049  -35.4808   -0.0223 H         1 B95         0.0861
     38 H15        -5.8290  -38.7558    3.2486 H         1 B95         0.2322
     39 H16        -4.7498  -35.5161    2.7927 H         1 B95         0.1854
@<TRIPOS>BOND
     1   18    1 2  
     2   19    2 1  
     3    4    3 ar 
     4    3    7 ar 
     5    8    4 ar 
     6    6    5 ar 
     7    9    5 ar 
     8   10    6 ar 
     9    7   19 ar 
    10   21    8 ar 
    11   22    9 ar 
    12   23   10 ar 
    13   11   12 1  
    14   15   11 1  
    15   12   20 1  
    16   17   13 1  
    17   13   18 1  
    18   20   14 1  
    19   14   22 1  
    20   18   15 am 
    21   20   16 2  
    22   16   23 1  
    23   17   21 1  
    24   19   21 ar 
    25   22   23 ar 
    26    3   24 1  
    27    4   25 1  
    28    5   26 1  
    29    6   27 1  
    30    7   28 1  
    31    8   29 1  
    32    9   30 1  
    33   10   31 1  
    34   11   32 1  
    35   11   33 1  
    36   12   34 1  
    37   12   35 1  
    38   13   36 1  
    39   13   37 1  
    40   14   38 1  
    41   15   39 1  
@<TRIPOS>SUBSTRUCTURE
     1 B95         1

