### 
### Created by X-TOOL on Mon Sep 10 21:13:00 2018
### 

@<TRIPOS>MOLECULE
3kl6_ligand
   58    61     1     0     0
SMALL
GAST_HUCK


@<TRIPOS>ATOM
      1 C4          1.8430   -9.1500  -16.5290 C.3       1 443         0.1139
      2 C8          4.4350   -8.0650  -16.3690 C.ar      1 443         0.0890
      3 C10         6.1080   -7.5760  -14.7230 C.ar      1 443        -0.0522
      4 C13         6.3900   -3.9080  -14.3980 C.ar      1 443         0.0411
      5 C15         5.4380   -3.4900  -15.3520 C.ar      1 443        -0.0473
      6 C17         4.9240   -5.7800  -15.8780 C.ar      1 443        -0.0160
      7 C22        -1.4730  -10.5620  -13.1870 C.3       1 443         0.0360
      8 C24        -0.6470  -10.9160  -10.8590 C.3       1 443         0.0490
      9 C26         0.9450  -11.1940  -12.7730 C.3       1 443         0.0360
     10 C28         0.0020   -9.4580   -8.8660 C.3       1 443         0.0363
     11 O1          2.4780   -9.0860  -14.1740 O.3       1 443        -0.3697
     12 C2          1.7620   -9.8460  -15.1700 C.3       1 443         0.1633
     13 S5          3.4910   -9.2420  -17.2640 S.o2      1 443         0.0015
     14 O6          4.0900  -10.5140  -16.9920 O.2       1 443        -0.1691
     15 O7          3.3890   -8.7440  -18.5940 O.2       1 443        -0.1691
     16 C9          5.3910   -8.4820  -15.4340 C.ar      1 443        -0.0363
     17 C11         5.8930   -6.2020  -14.9260 C.ar      1 443        -0.0173
     18 C12         6.6140   -5.2410  -14.2010 C.ar      1 443        -0.0401
     19 CL14        7.2870   -2.7420  -13.4710 Cl        1 443        -0.0704
     20 C16         4.7170   -4.3970  -16.0770 C.ar      1 443        -0.0536
     21 C18         4.2010   -6.7420  -16.6030 C.ar      1 443        -0.0291
     22 C19         0.3040   -9.9030  -14.7670 C.2       1 443         0.2090
     23 O20        -0.5350   -9.3670  -15.4730 O.2       1 443        -0.3940
     24 N21        -0.0590  -10.5200  -13.6180 N.am      1 443        -0.2709
     25 C23        -1.5500  -10.0320  -11.7370 C.3       1 443        -0.0093
     26 C25         0.8120  -10.7620  -11.3100 C.3       1 443        -0.0093
     27 N27        -0.7190  -10.6220   -9.4150 N.am      1 443        -0.2563
     28 C29        -0.6430   -8.9470   -7.5730 C.3       1 443        -0.0127
     29 C30        -0.8380  -10.1060   -6.5880 C.3       1 443         0.0330
     30 N31        -1.4890  -11.2330   -7.2580 N.am      1 443        -0.2730
     31 C32        -1.4060  -11.4380   -8.5860 C.2       1 443         0.2601
     32 O33        -1.9810  -12.4010   -9.0530 O.2       1 443        -0.4007
     33 H1          1.5748   -8.0912  -16.3984 H         1 443         0.0556
     34 H2          1.1260   -9.6283  -17.2124 H         1 443         0.0556
     35 H3          6.8440   -7.9106  -14.0010 H         1 443         0.0624
     36 H4          5.2756   -2.4304  -15.5128 H         1 443         0.0623
     37 H5         -1.8438  -11.5969  -13.2257 H         1 443         0.0523
     38 H6         -2.0831   -9.9289  -13.8480 H         1 443         0.0523
     39 H7         -0.9574  -11.9609  -11.0067 H         1 443         0.0557
     40 H8          1.9512  -10.9349  -13.1342 H         1 443         0.0523
     41 H9          0.7999  -12.2823  -12.8410 H         1 443         0.0523
     42 H10        -0.0067   -8.6495   -9.6118 H         1 443         0.0520
     43 H11         1.0411   -9.7503   -8.6541 H         1 443         0.0520
     44 H12         2.0948   -8.2196  -14.1025 H         1 443         0.2134
     45 H13         2.1812  -10.8605  -15.2405 H         1 443         0.0854
     46 H14         5.5599   -9.5411  -15.2767 H         1 443         0.0637
     47 H15         7.3559   -5.5595  -13.4776 H         1 443         0.0630
     48 H16         3.9880   -4.0558  -16.8031 H         1 443         0.0623
     49 H17         3.4663   -6.4365  -17.3392 H         1 443         0.0642
     50 H18        -2.5876  -10.0831  -11.3754 H         1 443         0.0307
     51 H19        -1.2002   -8.9897  -11.7014 H         1 443         0.0307
     52 H20         1.4581  -11.3928  -10.6818 H         1 443         0.0307
     53 H21         1.1172   -9.7100  -11.2097 H         1 443         0.0307
     54 H22        -1.6203   -8.4993   -7.8061 H         1 443         0.0304
     55 H23         0.0088   -8.1875   -7.1167 H         1 443         0.0304
     56 H24        -1.4660   -9.7693   -5.7500 H         1 443         0.0517
     57 H25         0.1422  -10.4272   -6.2058 H         1 443         0.0517
     58 H26        -2.0177  -11.8778   -6.7060 H         1 443         0.1845
@<TRIPOS>BOND
     1   12    1 1  
     2    1   13 1  
     3   13    2 1  
     4    2   16 ar 
     5    2   21 ar 
     6   16    3 ar 
     7    3   17 ar 
     8    5    4 ar 
     9   18    4 ar 
    10    4   19 1  
    11   20    5 ar 
    12    6   17 ar 
    13    6   20 ar 
    14   21    6 ar 
    15   24    7 1  
    16    7   25 1  
    17   25    8 1  
    18   26    8 1  
    19    8   27 1  
    20   24    9 1  
    21    9   26 1  
    22   27   10 1  
    23   10   28 1  
    24   12   11 1  
    25   22   12 1  
    26   13   14 2  
    27   13   15 2  
    28   17   18 ar 
    29   22   23 2  
    30   22   24 am 
    31   27   31 am 
    32   28   29 1  
    33   29   30 1  
    34   30   31 am 
    35   31   32 2  
    36    1   33 1  
    37    1   34 1  
    38    3   35 1  
    39    5   36 1  
    40    7   37 1  
    41    7   38 1  
    42    8   39 1  
    43    9   40 1  
    44    9   41 1  
    45   10   42 1  
    46   10   43 1  
    47   11   44 1  
    48   12   45 1  
    49   16   46 1  
    50   18   47 1  
    51   20   48 1  
    52   21   49 1  
    53   25   50 1  
    54   25   51 1  
    55   26   52 1  
    56   26   53 1  
    57   28   54 1  
    58   28   55 1  
    59   29   56 1  
    60   29   57 1  
    61   30   58 1  
@<TRIPOS>SUBSTRUCTURE
     1 443         1

