### 
### Created by X-TOOL on Mon Sep 10 21:13:03 2018
### 

@<TRIPOS>MOLECULE
3km4_ligand
   82    84     1     0     0
SMALL
GAST_HUCK


@<TRIPOS>ATOM
      1 C1         28.6930   -7.8480  -14.3900 C.3       1 22X         0.0611
      2 N1         27.7630   -3.8300  -12.9020 N.am      1 22X        -0.2872
      3 O1         28.1280   -7.8550  -15.7090 O.3       1 22X        -0.4228
      4 CL1        33.4010   -9.2330  -12.5040 Cl        1 22X        -0.0626
      5 C2         30.1860   -8.0800  -14.5970 C.ar      1 22X        -0.0211
      6 N2         24.6580   -7.8770   -7.3670 N.4       1 22X         0.2264
      7 O2         25.8140  -10.9840  -10.6280 O.2       1 22X        -0.4007
      8 C3         30.7920   -7.8190  -15.8350 C.ar      1 22X        -0.0370
      9 N3         26.2720   -8.7660  -10.6730 N.am      1 22X        -0.2649
     10 O3         28.2170   -1.6900  -13.4900 O.2       1 22X        -0.3974
     11 C4         30.9840   -8.5220  -13.5650 C.ar      1 22X        -0.0230
     12 N4         26.1450   -9.9980  -12.5940 N.am      1 22X        -0.2599
     13 C5         32.1490   -8.0400  -16.1270 C.ar      1 22X        -0.0318
     14 C6         32.3640   -8.6870  -13.8460 C.ar      1 22X         0.0694
     15 C7         32.9720   -8.4880  -15.0890 C.ar      1 22X        -0.0199
     16 C8         28.3820   -6.5660  -13.6210 C.3       1 22X        -0.0455
     17 C9         29.3960   -5.4510  -13.5840 C.3       1 22X        -0.0375
     18 C10        29.1030   -4.3230  -12.5960 C.3       1 22X         0.0302
     19 C11        27.3940   -2.5930  -13.2740 C.2       1 22X         0.1729
     20 C12        25.9300   -2.4080  -13.4990 C.3       1 22X         0.0256
     21 C13        26.2270   -8.6060   -9.2100 C.3       1 22X         0.0822
     22 C14        24.7950   -8.2240   -8.7950 C.3       1 22X        -0.0106
     23 C15        27.3650   -7.6370   -8.8080 C.3       1 22X        -0.0223
     24 C16        28.7680   -8.0460   -9.2500 C.3       1 22X        -0.0388
     25 C17        29.7510   -6.9060   -9.0760 C.3       1 22X        -0.0501
     26 C18        31.1270   -7.4370   -9.4480 C.3       1 22X        -0.0528
     27 C19        31.5740   -8.5900   -8.5340 C.3       1 22X        -0.0530
     28 C20        29.2470   -9.2660   -8.4250 C.3       1 22X        -0.0501
     29 C21        30.6340   -9.7380   -8.8660 C.3       1 22X        -0.0528
     30 C22        26.0760   -9.9430  -11.2760 C.2       1 22X         0.2603
     31 C23        27.5230  -11.5740  -13.4270 C.3       1 22X        -0.0331
     32 C24        28.2460  -10.4420  -14.2590 C.3       1 22X        -0.0514
     33 C25        28.0430   -9.0360  -13.5950 C.3       1 22X        -0.0153
     34 C26        26.5080   -8.8920  -13.5100 C.3       1 22X         0.0323
     35 C27        26.0450  -11.2210  -13.3590 C.3       1 22X         0.0342
     36 C28        25.1310   -8.8900   -6.4150 C.3       1 22X        -0.0448
     37 H1         27.0245   -4.4998  -12.8246 H         1 22X         0.1850
     38 H2         27.1902   -7.7142  -15.6514 H         1 22X         0.1962
     39 H3         23.6813   -7.7105   -7.1815 H         1 22X         0.2011
     40 H4         25.1803   -7.0306   -7.2029 H         1 22X         0.2011
     41 H5         30.1676   -7.4172  -16.6248 H         1 22X         0.0852
     42 H6         26.4566   -7.9620  -11.2383 H         1 22X         0.1850
     43 H7         30.5759   -8.7339  -12.5834 H         1 22X         0.0857
     44 H8         32.5438   -7.8691  -17.1220 H         1 22X         0.0698
     45 H9         34.0295   -8.6719  -15.2407 H         1 22X         0.0862
     46 H10        28.1916   -6.8583  -12.5778 H         1 22X         0.0198
     47 H11        27.4635   -6.1471  -14.0579 H         1 22X         0.0198
     48 H12        29.4530   -5.0121  -14.5910 H         1 22X         0.0278
     49 H13        30.3699   -5.8882  -13.3189 H         1 22X         0.0278
     50 H14        29.1398   -4.7041  -11.5648 H         1 22X         0.0519
     51 H15        29.8399   -3.5150  -12.7148 H         1 22X         0.0519
     52 H16        25.7336   -1.3678  -13.7981 H         1 22X         0.0467
     53 H17        25.3851   -2.6314  -12.5700 H         1 22X         0.0467
     54 H18        25.5925   -3.0883  -14.2948 H         1 22X         0.0467
     55 H19        26.4474   -9.5760   -8.7404 H         1 22X         0.0606
     56 H20        24.4808   -7.3564   -9.3938 H         1 22X         0.0836
     57 H21        24.1335   -9.0763   -9.0092 H         1 22X         0.0836
     58 H22        27.3668   -7.5538   -7.7112 H         1 22X         0.0292
     59 H23        27.1443   -6.6542   -9.2499 H         1 22X         0.0292
     60 H24        28.7341   -8.3242  -10.3137 H         1 22X         0.0302
     61 H25        29.7494   -6.5633   -8.0308 H         1 22X         0.0268
     62 H26        29.4788   -6.0696   -9.7365 H         1 22X         0.0268
     63 H27        31.8564   -6.6177   -9.3663 H         1 22X         0.0265
     64 H28        31.0976   -7.7996  -10.4861 H         1 22X         0.0265
     65 H29        31.4782   -8.3048   -7.4760 H         1 22X         0.0265
     66 H30        32.6166   -8.8698   -8.7454 H         1 22X         0.0265
     67 H31        28.5308  -10.0901   -8.5587 H         1 22X         0.0268
     68 H32        29.2875   -8.9841   -7.3625 H         1 22X         0.0268
     69 H33        30.9249  -10.6452   -8.3162 H         1 22X         0.0265
     70 H34        30.6450   -9.9446   -9.9464 H         1 22X         0.0265
     71 H35        27.9446  -11.6210  -12.4121 H         1 22X         0.0284
     72 H36        27.6539  -12.5466  -13.9239 H         1 22X         0.0284
     73 H37        27.8289  -10.4222  -15.2767 H         1 22X         0.0262
     74 H38        29.3222  -10.6640  -14.3080 H         1 22X         0.0262
     75 H39        28.4762   -9.0429  -12.5839 H         1 22X         0.0253
     76 H40        26.2208   -7.9160  -13.0917 H         1 22X         0.0515
     77 H41        26.0394   -9.0203  -14.4969 H         1 22X         0.0515
     78 H42        25.6145  -11.0504  -14.3568 H         1 22X         0.0519
     79 H43        25.4600  -11.9904  -12.8338 H         1 22X         0.0519
     80 H44        24.9807   -8.5263   -5.3878 H         1 22X         0.0777
     81 H45        26.2012   -9.0803   -6.5836 H         1 22X         0.0777
     82 H46        24.5654   -9.8222   -6.5603 H         1 22X         0.0777
@<TRIPOS>BOND
     1    1    3 1  
     2    1    5 1  
     3    1   16 1  
     4   33    1 1  
     5   18    2 1  
     6    2   19 am 
     7   14    4 1  
     8    5    8 ar 
     9    5   11 ar 
    10   22    6 1  
    11    6   36 1  
    12   30    7 2  
    13    8   13 ar 
    14    9   21 1  
    15   30    9 am 
    16   19   10 2  
    17   11   14 ar 
    18   12   30 am 
    19   12   34 1  
    20   35   12 1  
    21   13   15 ar 
    22   14   15 ar 
    23   16   17 1  
    24   17   18 1  
    25   19   20 1  
    26   21   22 1  
    27   21   23 1  
    28   23   24 1  
    29   24   25 1  
    30   24   28 1  
    31   25   26 1  
    32   26   27 1  
    33   29   27 1  
    34   28   29 1  
    35   32   31 1  
    36   31   35 1  
    37   32   33 1  
    38   33   34 1  
    39    2   37 1  
    40    3   38 1  
    41    6   39 1  
    42    6   40 1  
    43    8   41 1  
    44    9   42 1  
    45   11   43 1  
    46   13   44 1  
    47   15   45 1  
    48   16   46 1  
    49   16   47 1  
    50   17   48 1  
    51   17   49 1  
    52   18   50 1  
    53   18   51 1  
    54   20   52 1  
    55   20   53 1  
    56   20   54 1  
    57   21   55 1  
    58   22   56 1  
    59   22   57 1  
    60   23   58 1  
    61   23   59 1  
    62   24   60 1  
    63   25   61 1  
    64   25   62 1  
    65   26   63 1  
    66   26   64 1  
    67   27   65 1  
    68   27   66 1  
    69   28   67 1  
    70   28   68 1  
    71   29   69 1  
    72   29   70 1  
    73   31   71 1  
    74   31   72 1  
    75   32   73 1  
    76   32   74 1  
    77   33   75 1  
    78   34   76 1  
    79   34   77 1  
    80   35   78 1  
    81   35   79 1  
    82   36   80 1  
    83   36   81 1  
    84   36   82 1  
@<TRIPOS>SUBSTRUCTURE
     1 22X         1

