### 
### Created by X-TOOL on Tue Oct 16 15:17:25 2018
### 

@<TRIPOS>MOLECULE
3kmc_ligand
   44    45     1     0     0
SMALL
GAST_HUCK


@<TRIPOS>ATOM
      1 C1         50.1700   35.0610   39.7340 C.3       1 MOL         0.1866
      2 C2         51.1230   35.3060   38.5120 C.2       1 MOL         0.2127
      3 C3         50.1750   33.5450   39.9650 C.3       1 MOL         0.1864
      4 N4         50.6320   34.8160   37.2750 N.am      1 MOL        -0.2607
      5 N5         49.8600   33.7040   34.7390 N.4       1 MOL         0.2298
      6 C6         49.0500   33.1380   40.9330 C.2       1 MOL         0.2101
      7 S8         51.1020   31.0630   43.9900 S.3       1 MOL        -0.0443
      8 C9         49.6020   31.4350   44.8280 C.2       1 MOL         0.0141
      9 O10        52.2700   35.8240   38.6690 O.2       1 MOL        -0.3938
     10 C11        49.1840   34.6830   36.9550 C.3       1 MOL         0.0740
     11 C12        51.3780   35.2310   36.0750 C.3       1 MOL         0.0740
     12 C13        51.2830   34.0440   35.0860 C.3       1 MOL        -0.0127
     13 C14        49.0190   33.4960   35.9580 C.3       1 MOL        -0.0127
     14 C15        51.9010   30.6680   45.5260 C.2       1 MOL        -0.0196
     15 O17        47.9020   33.0160   40.5410 O.2       1 MOL        -0.3940
     16 C18        49.7150   31.2670   46.2140 C.2       1 MOL        -0.0817
     17 C19        51.0220   30.8360   46.6020 C.2       1 MOL        -0.0932
     18 N20        49.4190   33.0310   42.2570 N.am      1 MOL        -0.2824
     19 O21        50.7290   35.7880   40.8420 O.3       1 MOL        -0.3667
     20 O22        51.4910   33.1930   40.3890 O.3       1 MOL        -0.3667
     21 C23        48.3640   31.8560   44.0590 C.3       1 MOL         0.0127
     22 C25        48.5080   33.1960   43.3710 C.3       1 MOL         0.0422
     23 H1         49.1486   35.4127   39.5267 H         1 MOL         0.0891
     24 H2         49.9804   33.0393   39.0077 H         1 MOL         0.0891
     25 H3         49.8522   32.8584   34.1904 H         1 MOL         0.2015
     26 H4         49.4678   34.4589   34.1984 H         1 MOL         0.2015
     27 H5         48.8165   35.6117   36.4940 H         1 MOL         0.0575
     28 H6         48.6154   34.4801   37.8745 H         1 MOL         0.0575
     29 H7         52.4288   35.4345   36.3288 H         1 MOL         0.0575
     30 H8         50.9257   36.1323   35.6357 H         1 MOL         0.0575
     31 H9         51.8188   34.3090   34.1626 H         1 MOL         0.0834
     32 H10        51.7558   33.1629   35.5443 H         1 MOL         0.0834
     33 H11        49.3271   32.5636   36.4536 H         1 MOL         0.0834
     34 H12        47.9631   33.4207   35.6589 H         1 MOL         0.0834
     35 H13        52.9352   30.3395   45.6182 H         1 MOL         0.0598
     36 H14        48.9010   31.4443   46.9154 H         1 MOL         0.0276
     37 H15        51.3067   30.6554   47.6375 H         1 MOL         0.0371
     38 H16        50.3763   32.8265   42.4613 H         1 MOL         0.1854
     39 H17        50.7044   36.7188   40.6533 H         1 MOL         0.2136
     40 H18        51.6788   33.6156   41.2188 H         1 MOL         0.2136
     41 H19        47.5203   31.9146   44.7623 H         1 MOL         0.0472
     42 H20        48.1524   31.0933   43.2951 H         1 MOL         0.0472
     43 H21        47.5277   33.5349   43.0047 H         1 MOL         0.0546
     44 H22        48.9117   33.9367   44.0770 H         1 MOL         0.0546
@<TRIPOS>BOND
     1    1    2 1  
     2    3    1 1  
     3    1   19 1  
     4    2    4 am 
     5    2    9 2  
     6    6    3 1  
     7    3   20 1  
     8    4   10 1  
     9    4   11 1  
    10   12    5 1  
    11   13    5 1  
    12    6   15 2  
    13   18    6 am 
    14    8    7 1  
    15    7   14 1  
    16    8   16 2  
    17   21    8 1  
    18   10   13 1  
    19   11   12 1  
    20   17   14 2  
    21   16   17 1  
    22   22   18 1  
    23   21   22 1  
    24    1   23 1  
    25    3   24 1  
    26    5   25 1  
    27    5   26 1  
    28   10   27 1  
    29   10   28 1  
    30   11   29 1  
    31   11   30 1  
    32   12   31 1  
    33   12   32 1  
    34   13   33 1  
    35   13   34 1  
    36   14   35 1  
    37   16   36 1  
    38   17   37 1  
    39   18   38 1  
    40   19   39 1  
    41   20   40 1  
    42   21   41 1  
    43   21   42 1  
    44   22   43 1  
    45   22   44 1  
@<TRIPOS>SUBSTRUCTURE
     1 MOL         1

