### 
### Created by X-TOOL on Sun Sep  9 21:51:03 2018
### 

@<TRIPOS>MOLECULE
3kme_ligand
   48    50     1     0     0
SMALL
GAST_HUCK


@<TRIPOS>ATOM
      1 C1         49.2760   35.4100   39.1660 C.2       1 NON         0.2145
      2 N2         48.7360   35.0380   37.9410 N.am      1 NON        -0.2566
      3 C3         48.2600   35.2390   40.3900 C.3       1 NON         0.1868
      4 C4         48.3490   33.7850   40.7930 C.3       1 NON         0.1866
      5 C5         49.5420   35.1190   36.7300 C.3       1 NON         0.0786
      6 C6         47.3090   33.2400   41.8350 C.2       1 NON         0.2120
      7 C7         50.5350   33.9550   36.7310 C.ar      1 NON        -0.0178
      8 N8         47.6880   33.1160   43.1780 N.am      1 NON        -0.2713
      9 S9         49.4690   31.3240   44.7290 S.3       1 NON        -0.0423
     10 C10        47.9650   31.9000   45.3960 C.2       1 NON         0.0343
     11 O11        50.4620   35.8550   39.3350 O.2       1 NON        -0.3936
     12 C12        51.8490   34.2020   36.0000 C.ar      1 NON        -0.0581
     13 C13        50.1490   30.8580   46.2890 C.2       1 NON        -0.0195
     14 O14        46.1730   32.9870   41.4160 O.2       1 NON        -0.3938
     15 C15        48.0000   31.7150   46.8420 C.2       1 NON        -0.0798
     16 C16        49.2260   31.1520   47.3310 C.2       1 NON        -0.0931
     17 O17        48.7700   36.0450   41.4540 O.3       1 NON        -0.3667
     18 C18        46.9200   32.5270   44.4000 C.3       1 NON         0.0760
     19 O19        49.7710   33.5310   41.0610 O.3       1 NON        -0.3667
     20 C20        47.3620   34.5670   37.6500 C.3       1 NON         0.0367
     21 C21        52.8070   33.1540   36.2370 C.ar      1 NON        -0.0685
     22 C23        48.5090   35.0740   35.5790 C.3       1 NON        -0.0178
     23 C24        50.2030   32.6480   37.2170 C.ar      1 NON        -0.0581
     24 C25        47.2950   34.3110   36.1440 C.3       1 NON        -0.0284
     25 C26        51.1680   31.5930   37.2190 C.ar      1 NON        -0.0685
     26 C27        52.4790   31.8550   36.7250 C.ar      1 NON        -0.0687
     27 H1         47.2324   35.5256   40.1217 H         1 NON         0.0891
     28 H2         48.1143   33.2147   39.8822 H         1 NON         0.0891
     29 H3         50.1008   36.0657   36.6913 H         1 NON         0.0722
     30 H4         48.6023   33.4626   43.3873 H         1 NON         0.1882
     31 H5         52.0401   35.0663   35.3743 H         1 NON         0.0557
     32 H6         51.1314   30.4108   46.4332 H         1 NON         0.0598
     33 H7         47.1688   31.9807   47.4935 H         1 NON         0.0277
     34 H8         49.4280   30.9695   48.3854 H         1 NON         0.0371
     35 H9         48.7177   36.9613   41.2087 H         1 NON         0.2136
     36 H10        46.2210   31.7493   44.0585 H         1 NON         0.0710
     37 H11        46.3598   33.3270   44.9061 H         1 NON         0.0710
     38 H12        50.2956   33.9071   40.3639 H         1 NON         0.2136
     39 H13        46.6291   35.3355   37.9368 H         1 NON         0.0524
     40 H14        47.1547   33.6384   38.2019 H         1 NON         0.0524
     41 H15        53.8496   33.3670   36.0302 H         1 NON         0.0599
     42 H16        48.9252   34.5441   34.7095 H         1 NON         0.0310
     43 H17        48.2187   36.0929   35.2830 H         1 NON         0.0310
     44 H18        49.2032   32.4562   37.5894 H         1 NON         0.0557
     45 H19        46.3573   34.7023   35.7227 H         1 NON         0.0287
     46 H20        47.3741   33.2356   35.9267 H         1 NON         0.0287
     47 H21        50.9065   30.6088   37.5906 H         1 NON         0.0599
     48 H22        53.2250   31.0685   36.7203 H         1 NON         0.0559
@<TRIPOS>BOND
     1    2    1 am 
     2    1    3 1  
     3    1   11 2  
     4    5    2 1  
     5    2   20 1  
     6    3    4 1  
     7    3   17 1  
     8    4    6 1  
     9    4   19 1  
    10    7    5 1  
    11    5   22 1  
    12    6    8 am 
    13    6   14 2  
    14   12    7 ar 
    15    7   23 ar 
    16    8   18 1  
    17   10    9 1  
    18    9   13 1  
    19   10   15 2  
    20   18   10 1  
    21   21   12 ar 
    22   16   13 2  
    23   15   16 1  
    24   20   24 1  
    25   26   21 ar 
    26   22   24 1  
    27   23   25 ar 
    28   25   26 ar 
    29    3   27 1  
    30    4   28 1  
    31    5   29 1  
    32    8   30 1  
    33   12   31 1  
    34   13   32 1  
    35   15   33 1  
    36   16   34 1  
    37   17   35 1  
    38   18   36 1  
    39   18   37 1  
    40   19   38 1  
    41   20   39 1  
    42   20   40 1  
    43   21   41 1  
    44   22   42 1  
    45   22   43 1  
    46   23   44 1  
    47   24   45 1  
    48   24   46 1  
    49   25   47 1  
    50   26   48 1  
@<TRIPOS>SUBSTRUCTURE
     1 NON         1

