### 
### Created by X-TOOL on Mon Sep 10 21:13:02 2018
### 

@<TRIPOS>MOLECULE
3kmm_ligand
   64    67     1     0     0
SMALL
GAST_HUCK


@<TRIPOS>ATOM
      1 N1         24.8710   35.3000   82.4700 N.ar      1 LHL        -0.2833
      2 C2         25.8730   35.9240   83.1370 C.ar      1 LHL         0.1806
      3 N2         27.1930   35.6420   82.6750 N.pl3     1 LHL        -0.2549
      4 N3         25.6860   36.7670   84.1810 N.ar      1 LHL        -0.2456
      5 C4         24.4200   36.9640   84.5600 C.ar      1 LHL         0.1509
      6 C5         25.2740   38.6480   86.1870 C.3       1 LHL         0.0505
      7 N5         24.1720   37.8440   85.6500 N.am      1 LHL        -0.1839
      8 C6         22.9020   37.9450   86.2640 C.2       1 LHL         0.3311
      9 O6         22.7200   38.6950   87.2330 O.2       1 LHL        -0.3766
     10 N7         21.8620   37.1490   85.7430 N.am      1 LHL        -0.1879
     11 C8         21.9420   36.5920   84.3710 C.3       1 LHL         0.0920
     12 C9         23.3570   36.3450   83.9290 C.ar      1 LHL         0.0439
     13 C10        23.6250   35.5260   82.8630 C.ar      1 LHL        -0.0000
     14 C21        28.3770   36.3620   83.1090 C.ar      1 LHL         0.0533
     15 C22        29.6040   35.9020   82.6210 C.ar      1 LHL        -0.0465
     16 C23        30.7690   36.5430   82.9870 C.ar      1 LHL        -0.0421
     17 C24        30.7060   37.6430   83.8320 C.ar      1 LHL         0.0798
     18 O24        31.8970   38.2750   84.1720 O.3       1 LHL        -0.3201
     19 C25        29.4840   38.1190   84.3330 C.ar      1 LHL        -0.0421
     20 C26        28.3000   37.4720   83.9650 C.ar      1 LHL        -0.0465
     21 C27        31.8770   38.8400   85.4830 C.3       1 LHL         0.1077
     22 C28        33.2140   38.5890   86.2130 C.3       1 LHL        -0.0038
     23 N28        34.2870   39.4590   85.6670 N.4       1 LHL         0.2367
     24 C29        34.9180   38.8420   84.4790 C.3       1 LHL        -0.0347
     25 C30        35.9220   39.8150   83.8420 C.3       1 LHL        -0.0245
     26 C31        35.3080   39.7540   86.6990 C.3       1 LHL        -0.0347
     27 C32        34.6840   40.5110   87.8810 C.3       1 LHL        -0.0245
     28 C71        20.5710   37.1540   86.4140 C.ar      1 LHL         0.1005
     29 C72        19.6660   38.2010   86.1740 C.ar      1 LHL         0.0602
     30 CL72       20.1010   39.5240   85.1140 Cl        1 LHL        -0.0831
     31 C73        18.4210   38.1990   86.8240 C.ar      1 LHL        -0.0615
     32 C74        18.0990   37.1650   87.7070 C.ar      1 LHL        -0.0761
     33 C75        18.9990   36.1250   87.9500 C.ar      1 LHL        -0.0615
     34 C76        20.2400   36.1160   87.3030 C.ar      1 LHL         0.0602
     35 CL76       21.3570   34.8210   87.5950 Cl        1 LHL        -0.0831
     36 H1         27.3136   34.8809   81.9916 H         1 LHL         0.2129
     37 H2         26.1862   38.4563   85.6030 H         1 LHL         0.0561
     38 H3         25.4479   38.3759   87.2385 H         1 LHL         0.0561
     39 H4         25.0148   39.7151   86.1224 H         1 LHL         0.0561
     40 H5         21.4744   37.3032   83.6742 H         1 LHL         0.0722
     41 H6         21.3935   35.6389   84.3452 H         1 LHL         0.0722
     42 H7         22.8050   35.0555   82.3327 H         1 LHL         0.0760
     43 H8         29.6394   35.0452   81.9578 H         1 LHL         0.0510
     44 H9         31.7256   36.1911   82.6182 H         1 LHL         0.0515
     45 H10        29.4585   38.9763   84.9960 H         1 LHL         0.0515
     46 H11        27.3420   37.8206   84.3334 H         1 LHL         0.0510
     47 H12        31.0604   38.3816   86.0600 H         1 LHL         0.0663
     48 H13        31.7075   39.9241   85.4052 H         1 LHL         0.0663
     49 H14        33.5032   37.5357   86.0830 H         1 LHL         0.0841
     50 H15        33.0857   38.8045   87.2840 H         1 LHL         0.0841
     51 H16        33.8674   40.3303   85.3826 H         1 LHL         0.2034
     52 H17        34.1393   38.5913   83.7436 H         1 LHL         0.0812
     53 H18        35.4443   37.9251   84.7828 H         1 LHL         0.0812
     54 H19        36.3821   39.3427   82.9615 H         1 LHL         0.0281
     55 H20        36.7039   40.0663   84.5738 H         1 LHL         0.0281
     56 H21        35.3989   40.7325   83.5346 H         1 LHL         0.0281
     57 H22        36.1027   40.3711   86.2544 H         1 LHL         0.0812
     58 H23        35.7376   38.8088   87.0622 H         1 LHL         0.0812
     59 H24        35.4590   40.7189   88.6334 H         1 LHL         0.0281
     60 H25        33.8906   39.8969   88.3320 H         1 LHL         0.0281
     61 H26        34.2557   41.4592   87.5241 H         1 LHL         0.0281
     62 H27        17.7114   38.9978   86.6411 H         1 LHL         0.0584
     63 H28        17.1386   37.1701   88.2097 H         1 LHL         0.0488
     64 H29        18.7374   35.3282   88.6368 H         1 LHL         0.0584
@<TRIPOS>BOND
     1    1    2 ar 
     2    1   13 ar 
     3    2    3 1  
     4    2    4 ar 
     5    3   14 1  
     6    4    5 ar 
     7    5    7 1  
     8    5   12 ar 
     9    7    6 1  
    10    7    8 am 
    11    8    9 2  
    12    8   10 am 
    13   10   11 1  
    14   10   28 1  
    15   11   12 1  
    16   12   13 ar 
    17   14   15 ar 
    18   14   20 ar 
    19   15   16 ar 
    20   16   17 ar 
    21   17   18 1  
    22   17   19 ar 
    23   18   21 1  
    24   19   20 ar 
    25   21   22 1  
    26   22   23 1  
    27   23   24 1  
    28   23   26 1  
    29   24   25 1  
    30   26   27 1  
    31   28   29 ar 
    32   28   34 ar 
    33   29   30 1  
    34   29   31 ar 
    35   31   32 ar 
    36   32   33 ar 
    37   33   34 ar 
    38   34   35 1  
    39    3   36 1  
    40    6   37 1  
    41    6   38 1  
    42    6   39 1  
    43   11   40 1  
    44   11   41 1  
    45   13   42 1  
    46   15   43 1  
    47   16   44 1  
    48   19   45 1  
    49   20   46 1  
    50   21   47 1  
    51   21   48 1  
    52   22   49 1  
    53   22   50 1  
    54   23   51 1  
    55   24   52 1  
    56   24   53 1  
    57   25   54 1  
    58   25   55 1  
    59   25   56 1  
    60   26   57 1  
    61   26   58 1  
    62   27   59 1  
    63   27   60 1  
    64   27   61 1  
    65   31   62 1  
    66   32   63 1  
    67   33   64 1  
@<TRIPOS>SUBSTRUCTURE
     1 LHL         1

