### 
### Created by X-TOOL on Mon Sep 10 21:13:03 2018
### 

@<TRIPOS>MOLECULE
3kmx_ligand
   35    35     1     0     0
SMALL
GAST_HUCK


@<TRIPOS>ATOM
      1 C1         24.4870   11.2810   20.2330 C.ar      1 G00         0.0984
      2 N1         22.4530    8.8070   24.6810 N.pl3     1 G00        -0.2667
      3 O1         25.6050   11.8530   19.6080 O.3       1 G00        -0.3215
      4 S1         20.4300   10.5390   23.6510 S.3       1 G00        -0.0749
      5 CL1        23.1830   13.4880   19.3380 Cl        1 G00        -0.0805
      6 C2         24.5610   10.0300   20.9290 C.ar      1 G00        -0.0388
      7 N2         21.8010   10.8630   25.7860 N.pl3     1 G00        -0.2667
      8 C3         23.4070    9.4880   21.5660 C.ar      1 G00        -0.0677
      9 C4         22.1650   10.1840   21.5110 C.ar      1 G00        -0.0436
     10 C5         22.0840   11.4300   20.8220 C.ar      1 G00        -0.0540
     11 C6         23.2400   11.9680   20.1880 C.ar      1 G00         0.0615
     12 C7         26.7140   10.9650   19.4430 C.3       1 G00         0.0691
     13 C8         27.8650   11.4180   20.3380 C.3       1 G00        -0.0255
     14 C9         28.6880   10.2350   20.8140 C.3       1 G00        -0.0535
     15 C10        29.5140   10.5600   22.0620 C.3       1 G00        -0.0652
     16 C11        20.9360    9.5880   22.1700 C.3       1 G00         0.0243
     17 C12        21.6760    9.9830   24.7750 C.cat     1 G00         0.2666
     18 H1         23.1526    8.5927   25.4059 H         1 G00         0.3186
     19 H2         22.3199    8.1639   23.8875 H         1 G00         0.3186
     20 H3         25.5014    9.4924   20.9711 H         1 G00         0.0526
     21 H4         21.2109   11.7069   25.8102 H         1 G00         0.3186
     22 H5         22.4867   10.6924   26.5354 H         1 G00         0.3186
     23 H6         23.4744    8.5436   22.0938 H         1 G00         0.0533
     24 H7         21.1433   11.9671   20.7810 H         1 G00         0.0535
     25 H8         27.0399   10.9763   18.3925 H         1 G00         0.0611
     26 H9         26.4118    9.9449   19.7222 H         1 G00         0.0611
     27 H10        27.4542   11.9443   21.2122 H         1 G00         0.0291
     28 H11        28.5137   12.1012   19.7702 H         1 G00         0.0291
     29 H12        29.3719    9.9334   20.0070 H         1 G00         0.0263
     30 H13        28.0075    9.4031   21.0481 H         1 G00         0.0263
     31 H14        30.0888    9.6717   22.3628 H         1 G00         0.0230
     32 H15        28.8411   10.8557   22.8804 H         1 G00         0.0230
     33 H16        30.2055   11.3860   21.8392 H         1 G00         0.0230
     34 H17        20.1079    9.5891   21.4460 H         1 G00         0.0514
     35 H18        21.1592    8.5536   22.4702 H         1 G00         0.0514
@<TRIPOS>BOND
     1    1    3 1  
     2    6    1 ar 
     3    1   11 ar 
     4   17    2 ar 
     5    3   12 1  
     6   16    4 1  
     7    4   17 1  
     8   11    5 1  
     9    8    6 ar 
    10   17    7 ar 
    11    9    8 ar 
    12    9   10 ar 
    13    9   16 1  
    14   10   11 ar 
    15   12   13 1  
    16   13   14 1  
    17   14   15 1  
    18    2   18 1  
    19    2   19 1  
    20    6   20 1  
    21    7   21 1  
    22    7   22 1  
    23    8   23 1  
    24   10   24 1  
    25   12   25 1  
    26   12   26 1  
    27   13   27 1  
    28   13   28 1  
    29   14   29 1  
    30   14   30 1  
    31   15   31 1  
    32   15   32 1  
    33   15   33 1  
    34   16   34 1  
    35   16   35 1  
@<TRIPOS>SUBSTRUCTURE
     1 G00         1

