### 
### Created by X-TOOL on Mon Sep 10 21:13:04 2018
### 

@<TRIPOS>MOLECULE
3kpu_ligand
   18    19     1     0     0
SMALL
GAST_HUCK


@<TRIPOS>ATOM
      1 O01        26.9670   45.3550   14.0670 O.3       1 ES1        -0.3158
      2 CAD        28.1580   46.2410   15.9680 C.ar      1 ES1        -0.0051
      3 CAE        28.8340   46.0330   17.1960 C.ar      1 ES1        -0.0059
      4 CAF        27.6540   45.1590   15.2670 C.ar      1 ES1         0.1217
      5 CAG        27.4470   41.4590   15.5190 C.ar      1 ES1        -0.0582
      6 NAH        28.9900   44.7450   17.6850 N.ar      1 ES1        -0.3164
      7 CAI        27.2890   42.7680   15.0160 C.ar      1 ES1        -0.0452
      8 CAJ        28.6440   42.3440   17.4790 C.ar      1 ES1        -0.0445
      9 CAK        28.1230   41.2470   16.7480 C.ar      1 ES1        -0.0589
     10 CAL        27.8100   43.8660   15.7570 C.ar      1 ES1         0.0419
     11 CAM        28.4810   43.6560   16.9800 C.ar      1 ES1         0.0353
     12 H          26.6886   44.5057   13.7166 H         1 ES1         0.2579
     13 H          28.0352   47.2508   15.5763 H         1 ES1         0.0578
     14 H          29.2296   46.8819   17.7537 H         1 ES1         0.0815
     15 H          27.0493   40.6102   14.9627 H         1 ES1         0.0614
     16 H          26.7736   42.9364   14.0704 H         1 ES1         0.0660
     17 H          29.1673   42.1766   18.4204 H         1 ES1         0.0619
     18 H          28.2425   40.2341   17.1326 H         1 ES1         0.0647
@<TRIPOS>BOND
     1    4    1 1  
     2    2    3 ar 
     3    4    2 ar 
     4    3    6 ar 
     5   10    4 ar 
     6    7    5 ar 
     7    5    9 ar 
     8    6   11 ar 
     9    7   10 ar 
    10    9    8 ar 
    11    8   11 ar 
    12   10   11 ar 
    13    1   12 1  
    14    2   13 1  
    15    3   14 1  
    16    5   15 1  
    17    7   16 1  
    18    8   17 1  
    19    9   18 1  
@<TRIPOS>SUBSTRUCTURE
     1 ES1         1

