### 
### Created by X-TOOL on Mon Sep 10 21:13:04 2018
### 

@<TRIPOS>MOLECULE
3kpv_ligand
   15    16     1     0     0
SMALL
GAST_HUCK


@<TRIPOS>ATOM
      1 N9         28.2590   45.3430   16.1790 N.pl3     1 ADE        -0.2361
      2 C8         28.5660   46.5490   16.7330 C.2       1 ADE         0.1072
      3 N7         28.9370   46.3470   18.0350 N.2       1 ADE        -0.2960
      4 C5         28.8680   45.0270   18.2850 C.ar      1 ADE         0.1042
      5 C6         29.1290   44.2840   19.4420 C.ar      1 ADE         0.1298
      6 N6         29.5440   44.9430   20.6830 N.pl3     1 ADE        -0.3152
      7 N1         28.9710   42.9390   19.4110 N.ar      1 ADE        -0.2698
      8 C2         28.5460   42.3150   18.2520 C.ar      1 ADE         0.0533
      9 N3         28.2850   43.0520   17.1080 N.ar      1 ADE        -0.2715
     10 C4         28.4480   44.4030   17.1310 C.ar      1 ADE         0.1567
     11 H          27.9446   45.1798   15.2225 H         1 ADE         0.2393
     12 H          28.5234   47.5125   16.2251 H         1 ADE         0.1346
     13 H          29.6464   45.9574   20.7122 H         1 ADE         0.1820
     14 H          29.7305   44.3874   21.5178 H         1 ADE         0.1820
     15 H          28.4151   41.2330   18.2385 H         1 ADE         0.0996
@<TRIPOS>BOND
     1    1    2 1  
     2    1   10 1  
     3    2    3 2  
     4    3    4 1  
     5    4    5 ar 
     6    4   10 ar 
     7    5    6 1  
     8    5    7 ar 
     9    7    8 ar 
    10    8    9 ar 
    11    9   10 ar 
    12    1   11 1  
    13    2   12 1  
    14    6   13 1  
    15    6   14 1  
    16    8   15 1  
@<TRIPOS>SUBSTRUCTURE
     1 ADE         1

