### 
### Created by X-TOOL on Mon Sep 10 21:13:04 2018
### 

@<TRIPOS>MOLECULE
3kpw_ligand
   19    20     1     0     0
SMALL
GAST_HUCK


@<TRIPOS>ATOM
      1 N1         28.3520   42.0070   18.5620 N.pl3     1 1SQ        -0.3155
      2 C2         28.5190   43.3900   18.1450 C.ar      1 1SQ         0.1223
      3 N3         29.0180   44.3650   19.0470 N.ar      1 1SQ        -0.2916
      4 C4         29.1690   45.7260   18.6290 C.ar      1 1SQ        -0.0144
      5 C5         28.8270   46.0980   17.2890 C.ar      1 1SQ        -0.0498
      6 C6         28.3180   45.1030   16.3790 C.ar      1 1SQ        -0.0142
      7 C7         27.9620   45.4560   15.0350 C.ar      1 1SQ        -0.0523
      8 C8         27.4480   44.4300   14.1030 C.ar      1 1SQ        -0.0593
      9 C9         27.2920   43.0780   14.5200 C.ar      1 1SQ        -0.0583
     10 C10        27.6370   42.7290   15.8480 C.ar      1 1SQ        -0.0462
     11 C11        28.1620   43.7700   16.7880 C.ar      1 1SQ         0.0336
     12 H          28.5946   41.7281   19.5127 H         1 1SQ         0.1821
     13 H          27.9923   41.3158   17.9038 H         1 1SQ         0.1821
     14 H          29.5424   46.4752   19.3271 H         1 1SQ         0.0720
     15 H          28.9511   47.1293   16.9587 H         1 1SQ         0.0557
     16 H          28.0711   46.4871   14.6988 H         1 1SQ         0.0616
     17 H          27.1851   44.7124   13.0836 H         1 1SQ         0.0647
     18 H          26.9136   42.3247   13.8291 H         1 1SQ         0.0611
     19 H          27.5202   41.6997   16.1872 H         1 1SQ         0.0663
@<TRIPOS>BOND
     1    1    2 1  
     2    2    3 ar 
     3    2   11 ar 
     4    3    4 ar 
     5    4    5 ar 
     6    5    6 ar 
     7    6    7 ar 
     8    6   11 ar 
     9    7    8 ar 
    10    8    9 ar 
    11    9   10 ar 
    12   10   11 ar 
    13    1   12 1  
    14    1   13 1  
    15    4   14 1  
    16    5   15 1  
    17    7   16 1  
    18    8   17 1  
    19    9   18 1  
    20   10   19 1  
@<TRIPOS>SUBSTRUCTURE
     1 1SQ         1

