### 
### Created by X-TOOL on Mon Sep 10 21:13:03 2018
### 

@<TRIPOS>MOLECULE
3kqa_ligand
   21    21     1     0     0
SMALL
GAST_HUCK


@<TRIPOS>ATOM
      1 C1        -16.5940  -51.1870 -132.5800 C.3       1 TR9         0.0427
      2 C2        -16.2260  -49.7350 -132.2370 C.3       1 TR9         0.1035
      3 C3        -15.0640  -49.2420 -133.0850 C.3       1 TR9         0.1104
      4 C4        -13.9550  -50.2130 -133.4000 C.2       1 TR9        -0.0272
      5 C5        -14.0860  -51.6240 -132.8380 C.2       1 TR9         0.0980
      6 C6        -15.3220  -52.0940 -132.4350 C.2       1 TR9         0.1078
      7 C7        -12.8650  -49.8140 -134.1550 C.2       1 TR9        -0.1391
      8 O1        -12.9480  -52.3990 -132.7360 O.3       1 TR9        -0.3630
      9 O2        -17.3660  -48.9230 -132.3900 O.3       1 TR9        -0.3846
     10 O3        -15.0320  -47.9570 -133.5290 O.3       1 TR9        -0.3771
     11 O4        -15.4180  -53.3610 -131.9150 O.3       1 TR9        -0.3279
     12 H         -16.9624  -51.2372 -133.6046 H         1 TR9         0.0509
     13 H         -17.3703  -51.5366 -131.8994 H         1 TR9         0.0509
     14 H         -15.8938  -49.6837 -131.2001 H         1 TR9         0.0671
     15 H         -14.9019  -48.4582 -133.8250 H         1 TR9         0.0780
     16 H         -12.0610  -50.5190 -134.3664 H         1 TR9         0.0014
     17 H         -12.8110  -48.7949 -134.5379 H         1 TR9         0.0014
     18 H         -13.0583  -53.1976 -133.2572 H         1 TR9         0.2294
     19 H         -17.6400  -48.9281 -133.3101 H         1 TR9         0.2104
     20 H         -15.8193  -47.4965 -133.2296 H         1 TR9         0.2131
     21 H         -15.1205  -53.9975 -132.5691 H         1 TR9         0.2541
@<TRIPOS>BOND
     1    1    2 1  
     2    1    6 1  
     3    2    3 1  
     4    2    9 1  
     5    3    4 1  
     6    3   10 1  
     7    4    5 1  
     8    4    7 2  
     9    5    6 2  
    10    5    8 1  
    11    6   11 1  
    12    1   12 1  
    13    1   13 1  
    14    2   14 1  
    15    3   15 1  
    16    7   16 1  
    17    7   17 1  
    18    8   18 1  
    19    9   19 1  
    20   10   20 1  
    21   11   21 1  
@<TRIPOS>SUBSTRUCTURE
     1 TR9         1

