### 
### Created by X-TOOL on Mon Sep 10 21:13:03 2018
### 

@<TRIPOS>MOLECULE
3kqb_ligand
   59    63     1     0     0
SMALL
GAST_HUCK


@<TRIPOS>ATOM
      1 C1         38.9190   35.7510   21.2720 C.ar      1 LGJ        -0.0636
      2 C2         38.2440   36.2550   22.3950 C.ar      1 LGJ        -0.0621
      3 C3         38.6930   26.7360   14.6070 C.ar      1 LGJ        -0.0627
      4 C4         38.2750   34.8280   20.4390 C.ar      1 LGJ        -0.0561
      5 C5         36.4510   32.0370   19.9900 C.ar      1 LGJ        -0.0699
      6 C6         39.2180   27.4260   13.4950 C.ar      1 LGJ        -0.0561
      7 C7         37.3450   26.8990   14.9730 C.ar      1 LGJ        -0.0202
      8 C8         35.8950   31.1360   19.0560 C.ar      1 LGJ        -0.0400
      9 C9         36.9400   35.8220   22.6710 C.ar      1 LGJ        -0.0388
     10 C10        35.7750   33.9240   18.6160 C.ar      1 LGJ        -0.0325
     11 C11        37.0420   28.4310   13.1100 C.ar      1 LGJ        -0.0101
     12 C12        33.2470   28.6910   15.2880 C.2       1 LGJ         0.0017
     13 C13        36.3820   33.4310   19.7730 C.ar      1 LGJ        -0.0321
     14 C14        36.9620   34.3880   20.7100 C.ar      1 LGJ        -0.0037
     15 C15        38.3830   28.2770   12.7510 C.ar      1 LGJ         0.0167
     16 C16        36.5250   27.7630   14.2190 C.ar      1 LGJ         0.1309
     17 C17        35.2700   31.6520   17.9000 C.ar      1 LGJ         0.1026
     18 C18        35.2200   33.0360   17.6950 C.ar      1 LGJ         0.1538
     19 C19        36.2820   34.8950   21.8310 C.ar      1 LGJ         0.0917
     20 C20        34.6110   28.8150   15.4440 C.2       1 LGJ         0.2020
     21 C21        33.1070   27.7780   14.2230 C.2       1 LGJ         0.1279
     22 C22        38.8780   28.9660   11.5720 C.2       1 LGJ         0.1523
     23 C23        38.7380   30.1840    9.7610 C.2       1 LGJ         0.3193
     24 C24        35.3560   29.6420   16.4190 C.2       1 LGJ         0.2672
     25 C25        34.1500   35.5420   23.5310 C.3       1 LGJ         0.0593
     26 C26        31.8610   27.2770   13.6040 C.3       1 LGJ         0.3867
     27 N27        34.2780   27.3450   13.7420 N.2       1 LGJ        -0.1298
     28 N28        40.0900   28.9300   11.1240 N.2       1 LGJ        -0.1946
     29 N29        35.1710   27.9790   14.5030 N.pl3     1 LGJ        -0.1091
     30 N30        38.0050   29.6770   10.8090 N.am      1 LGJ        -0.2055
     31 N31        40.0330   29.7040    9.9920 N.am      1 LGJ        -0.1724
     32 N32        34.7260   30.7960   16.9360 N.am      1 LGJ        -0.2286
     33 O33        38.3580   30.8980    8.8320 O.2       1 LGJ        -0.4039
     34 O34        36.4830   29.3160   16.7620 O.2       1 LGJ        -0.3704
     35 O35        33.7780   34.6220   21.0970 O.2       1 LGJ        -0.1699
     36 O36        34.6910   33.0830   22.8820 O.2       1 LGJ        -0.1699
     37 F37        34.6310   33.5280   16.6040 F         1 LGJ        -0.1930
     38 F38        31.2780   28.1370   12.7110 F         1 LGJ        -0.2190
     39 F39        32.0090   26.1490   12.8290 F         1 LGJ        -0.2190
     40 F40        30.8880   27.0000   14.5180 F         1 LGJ        -0.2190
     41 S41        34.6300   34.4100   22.2560 S.o2      1 LGJ        -0.0064
     42 H          39.9357   36.0754   21.0504 H         1 LGJ         0.0612
     43 H          38.7312   36.9788   23.0484 H         1 LGJ         0.0600
     44 H          39.3355   26.0727   15.1861 H         1 LGJ         0.0606
     45 H          38.7981   34.4419   19.5642 H         1 LGJ         0.0603
     46 H          36.9379   31.6534   20.8866 H         1 LGJ         0.0558
     47 H          40.2638   27.3003   13.2145 H         1 LGJ         0.0583
     48 H          36.9385   26.3630   15.8306 H         1 LGJ         0.0607
     49 H          35.9474   30.0604   19.2245 H         1 LGJ         0.0499
     50 H          36.4234   36.2074   23.5501 H         1 LGJ         0.0630
     51 H          35.7352   34.9979   18.4336 H         1 LGJ         0.0572
     52 H          36.3947   29.0785   12.5185 H         1 LGJ         0.0609
     53 H          32.4589   29.1847   15.8566 H         1 LGJ         0.0557
     54 H          34.2641   36.5640   23.1696 H         1 LGJ         0.0468
     55 H          33.1086   35.3644   23.7996 H         1 LGJ         0.0468
     56 H          34.7829   35.3917   24.4056 H         1 LGJ         0.0468
     57 H          37.0079   29.8079   10.9794 H         1 LGJ         0.2315
     58 H          40.8342   29.9046    9.3935 H         1 LGJ         0.2451
     59 H          33.7988   31.0238   16.5772 H         1 LGJ         0.2258
@<TRIPOS>BOND
     1    1    2 ar 
     2    4    1 ar 
     3    9    2 ar 
     4    3    6 ar 
     5    7    3 ar 
     6   14    4 ar 
     7    8    5 ar 
     8    5   13 ar 
     9   15    6 ar 
    10   16    7 ar 
    11   17    8 ar 
    12   19    9 ar 
    13   10   13 ar 
    14   18   10 ar 
    15   11   15 ar 
    16   16   11 ar 
    17   20   12 2  
    18   12   21 1  
    19   13   14 1  
    20   14   19 ar 
    21   15   22 1  
    22   29   16 1  
    23   17   18 ar 
    24   32   17 1  
    25   18   37 1  
    26   19   41 1  
    27   24   20 1  
    28   20   29 1  
    29   21   26 1  
    30   21   27 2  
    31   22   28 2  
    32   22   30 1  
    33   30   23 am 
    34   23   31 am 
    35   23   33 2  
    36   24   32 am 
    37   24   34 2  
    38   41   25 1  
    39   26   38 1  
    40   26   39 1  
    41   26   40 1  
    42   27   29 1  
    43   28   31 1  
    44   41   35 2  
    45   41   36 2  
    46    1   42 1  
    47    2   43 1  
    48    3   44 1  
    49    4   45 1  
    50    5   46 1  
    51    6   47 1  
    52    7   48 1  
    53    8   49 1  
    54    9   50 1  
    55   10   51 1  
    56   11   52 1  
    57   12   53 1  
    58   25   54 1  
    59   25   55 1  
    60   25   56 1  
    61   30   57 1  
    62   31   58 1  
    63   32   59 1  
@<TRIPOS>SUBSTRUCTURE
     1 LGJ         1

