### 
### Created by X-TOOL on Mon Sep 10 21:13:03 2018
### 

@<TRIPOS>MOLECULE
3kqc_ligand
   63    68     1     0     0
SMALL
GAST_HUCK


@<TRIPOS>ATOM
      1 C1         38.8060   35.5110   21.2140 C.ar      1 LGK        -0.0636
      2 C2         38.1360   36.0380   22.3230 C.ar      1 LGK        -0.0622
      3 C3         38.6250   26.7870   14.6130 C.ar      1 LGK        -0.0627
      4 C4         38.1490   34.5930   20.3890 C.ar      1 LGK        -0.0560
      5 C5         36.2260   31.8540   20.0390 C.ar      1 LGK        -0.0661
      6 C6         35.6110   33.6900   18.5630 C.ar      1 LGK        -0.0661
      7 C7         39.1210   27.4680   13.4790 C.ar      1 LGK        -0.0561
      8 C8         37.2630   26.9000   14.9910 C.ar      1 LGK        -0.0204
      9 C9         35.6390   30.9320   19.1630 C.ar      1 LGK        -0.0387
     10 C10        35.0190   32.7720   17.6880 C.ar      1 LGK        -0.0387
     11 C11        36.8210   35.6390   22.5940 C.ar      1 LGK        -0.0388
     12 C12        36.8950   28.3470   13.0850 C.ar      1 LGK        -0.0103
     13 C13        36.2140   33.2320   19.7420 C.ar      1 LGK        -0.0302
     14 C14        36.8310   34.1920   20.6510 C.ar      1 LGK        -0.0028
     15 C15        38.2350   28.2420   12.7020 C.ar      1 LGK         0.0167
     16 C16        33.1800   28.7690   15.1690 C.2       1 LGK         0.0254
     17 C17        36.4080   27.6800   14.2050 C.ar      1 LGK         0.1282
     18 C18        35.0160   31.4010   17.9980 C.ar      1 LGK         0.0711
     19 C19        36.1570   34.7170   21.7660 C.ar      1 LGK         0.0917
     20 C20        34.5420   28.8260   15.3320 C.2       1 LGK         0.2007
     21 C21        32.9930   27.8120   14.1630 C.2       1 LGK         0.1318
     22 C22        38.6940   28.9320   11.5070 C.2       1 LGK         0.1524
     23 C23        35.2320   29.6730   16.2750 C.2       1 LGK         0.2609
     24 C24        38.5710   30.1520    9.6870 C.2       1 LGK         0.3193
     25 C25        32.2690   29.6120   15.9800 C.3       1 LGK         0.0080
     26 C26        33.0350   30.8460   16.5230 C.3       1 LGK         0.0645
     27 C27        34.5260   32.6540   22.8680 C.3       1 LGK         0.0593
     28 C28        31.7390   27.3570   13.5520 C.3       1 LGK         0.3843
     29 N29        34.1410   27.3020   13.7130 N.2       1 LGK        -0.1364
     30 N30        39.9120   28.9120   11.0650 N.2       1 LGK        -0.1946
     31 N31        35.0640   27.9060   14.4660 N.pl3     1 LGK        -0.1177
     32 N32        37.8180   29.6410   10.7330 N.am      1 LGK        -0.2055
     33 N33        39.8640   29.6790    9.9300 N.am      1 LGK        -0.1724
     34 N34        34.3990   30.5030   17.0540 N.am      1 LGK        -0.2157
     35 O35        36.4410   29.6680   16.3690 O.2       1 LGK        -0.3773
     36 O36        38.2220   30.8660    8.7490 O.2       1 LGK        -0.4039
     37 O37        34.1140   35.1860   23.3000 O.2       1 LGK        -0.1699
     38 O38        33.6650   34.2810   21.0050 O.2       1 LGK        -0.1699
     39 F39        30.7510   27.0410   14.4530 F         1 LGK        -0.2218
     40 F40        31.1870   28.2780   12.6900 F         1 LGK        -0.2218
     41 F41        31.8960   26.2730   12.7270 F         1 LGK        -0.2218
     42 S42        34.4900   34.3000   22.2030 S.o2      1 LGK        -0.0064
     43 H          39.8302   35.8130   20.9951 H         1 LGK         0.0612
     44 H          38.6351   36.7561   22.9736 H         1 LGK         0.0599
     45 H          39.2979   26.1667   15.2050 H         1 LGK         0.0606
     46 H          38.6714   34.1811   19.5255 H         1 LGK         0.0603
     47 H          36.6959   31.5031   20.9578 H         1 LGK         0.0590
     48 H          35.6030   34.7545   18.3288 H         1 LGK         0.0590
     49 H          40.1744   27.3960   13.2084 H         1 LGK         0.0584
     50 H          36.8890   26.3884   15.8779 H         1 LGK         0.0607
     51 H          35.6662   29.8650   19.3840 H         1 LGK         0.0511
     52 H          34.5590   33.1212   16.7636 H         1 LGK         0.0511
     53 H          36.3040   36.0501   23.4611 H         1 LGK         0.0630
     54 H          36.2176   28.9639   12.4944 H         1 LGK         0.0609
     55 H          31.8891   29.0275   16.8179 H         1 LGK         0.0446
     56 H          31.4407   29.9488   15.3566 H         1 LGK         0.0446
     57 H          32.4534   31.2627   17.3453 H         1 LGK         0.0611
     58 H          33.1661   31.5455   15.6974 H         1 LGK         0.0611
     59 H          35.2571   32.6055   23.6750 H         1 LGK         0.0468
     60 H          33.5393   32.3978   23.2540 H         1 LGK         0.0468
     61 H          34.8036   31.9519   22.0818 H         1 LGK         0.0468
     62 H          36.8185   29.7677   10.8920 H         1 LGK         0.2315
     63 H          40.6698   29.8793    9.3376 H         1 LGK         0.2451
@<TRIPOS>BOND
     1    1    2 ar 
     2    4    1 ar 
     3   11    2 ar 
     4    3    7 ar 
     5    8    3 ar 
     6   14    4 ar 
     7    9    5 ar 
     8    5   13 ar 
     9   10    6 ar 
    10    6   13 ar 
    11   15    7 ar 
    12   17    8 ar 
    13   18    9 ar 
    14   18   10 ar 
    15   19   11 ar 
    16   12   15 ar 
    17   17   12 ar 
    18   13   14 1  
    19   14   19 ar 
    20   15   22 1  
    21   20   16 2  
    22   16   21 1  
    23   16   25 1  
    24   31   17 1  
    25   34   18 1  
    26   19   42 1  
    27   23   20 1  
    28   20   31 1  
    29   21   28 1  
    30   21   29 2  
    31   22   30 2  
    32   22   32 1  
    33   23   34 am 
    34   23   35 2  
    35   32   24 am 
    36   24   33 am 
    37   24   36 2  
    38   25   26 1  
    39   26   34 1  
    40   42   27 1  
    41   28   39 1  
    42   28   40 1  
    43   28   41 1  
    44   29   31 1  
    45   30   33 1  
    46   42   37 2  
    47   42   38 2  
    48    1   43 1  
    49    2   44 1  
    50    3   45 1  
    51    4   46 1  
    52    5   47 1  
    53    6   48 1  
    54    7   49 1  
    55    8   50 1  
    56    9   51 1  
    57   10   52 1  
    58   11   53 1  
    59   12   54 1  
    60   25   55 1  
    61   25   56 1  
    62   26   57 1  
    63   26   58 1  
    64   27   59 1  
    65   27   60 1  
    66   27   61 1  
    67   32   62 1  
    68   33   63 1  
@<TRIPOS>SUBSTRUCTURE
     1 LGK         1

