### 
### Created by X-TOOL on Mon Sep 10 21:13:04 2018
### 

@<TRIPOS>MOLECULE
3kqm_ligand
    9     9     1     0     0
SMALL
GAST_HUCK


@<TRIPOS>ATOM
      1 BR01       26.7400   42.5740   16.1100 Br        1 ES3        -0.0266
      2 C02        27.4980   44.2390   16.7550 C.2       1 ES3         0.1080
      3 C03        28.2280   44.4040   17.9250 C.2       1 ES3        -0.0105
      4 N04        28.5990   45.6940   18.0070 N.2       1 ES3        -0.3233
      5 C05        28.1170   46.3290   16.8920 C.2       1 ES3         0.0981
      6 N06        27.4400   45.4220   16.1210 N.pl3     1 ES3        -0.2607
      7 H          28.4598   43.6240   18.6502 H         1 ES3         0.0506
      8 H          28.2509   47.3849   16.6570 H         1 ES3         0.1245
      9 H          26.9779   45.6097   15.2313 H         1 ES3         0.2399
@<TRIPOS>BOND
     1    1    2 1  
     2    2    3 2  
     3    2    6 1  
     4    3    4 1  
     5    4    5 2  
     6    5    6 1  
     7    3    7 1  
     8    5    8 1  
     9    6    9 1  
@<TRIPOS>SUBSTRUCTURE
     1 ES3         1

