### 
### Created by X-TOOL on Mon Sep 10 21:13:04 2018
### 

@<TRIPOS>MOLECULE
3kqo_ligand
   13    14     1     0     0
SMALL
GAST_HUCK


@<TRIPOS>ATOM
      1 C10        27.6490   44.4100   16.3770 C.ar      1 ES4         0.1021
      2 CL01       26.4910   42.7050   14.5560 Cl        1 ES4        -0.0301
      3 C02        27.3180   43.1000   16.0910 C.ar      1 ES4         0.1370
      4 N03        27.6150   42.1180   16.9760 N.ar      1 ES4        -0.2655
      5 C04        28.2490   42.4210   18.1600 C.ar      1 ES4         0.0686
      6 N05        28.5800   43.7290   18.4420 N.ar      1 ES4        -0.2546
      7 C06        28.2810   44.7140   17.5550 C.ar      1 ES4         0.1694
      8 N07        28.4880   46.0460   17.5880 N.pl3     1 ES4        -0.2304
      9 C08        27.9840   46.5700   16.4330 C.2       1 ES4         0.1116
     10 N09        27.4630   45.5520   15.6930 N.2       1 ES4        -0.2905
     11 H          28.4881   41.6302   18.8711 H         1 ES4         0.1033
     12 H          28.9393   46.5673   18.3397 H         1 ES4         0.2407
     13 H          27.9963   47.6228   16.1510 H         1 ES4         0.1385
@<TRIPOS>BOND
     1    1    3 ar 
     2    1    7 ar 
     3    1   10 1  
     4    3    2 1  
     5    3    4 ar 
     6    4    5 ar 
     7    5    6 ar 
     8    6    7 ar 
     9    7    8 1  
    10    8    9 1  
    11    9   10 2  
    12    5   11 1  
    13    8   12 1  
    14    9   13 1  
@<TRIPOS>SUBSTRUCTURE
     1 ES4         1

