### 
### Created by X-TOOL on Mon Sep 10 21:13:04 2018
### 

@<TRIPOS>MOLECULE
3kqp_ligand
   19    20     1     0     0
SMALL
GAST_HUCK


@<TRIPOS>ATOM
      1 C10        27.9580   43.4180   16.8940 C.ar      1 ES5        -0.0070
      2 N01        29.9310   44.6430   19.9000 N.pl3     1 ES5        -0.3347
      3 C02        29.1590   44.6320   18.6600 C.ar      1 ES5         0.0419
      4 C03        28.8320   45.8580   18.0270 C.ar      1 ES5        -0.0325
      5 C04        28.0760   45.8670   16.8330 C.ar      1 ES5        -0.0430
      6 C05        27.6340   44.6440   16.2670 C.ar      1 ES5         0.0384
      7 N06        26.8880   44.6530   15.1040 N.ar      1 ES5        -0.3012
      8 C07        26.4620   43.4610   14.5470 C.ar      1 ES5         0.0061
      9 C08        26.7840   42.2290   15.1650 C.ar      1 ES5        -0.0367
     10 C09        27.5280   42.2220   16.3320 C.ar      1 ES5        -0.0417
     11 C11        28.7250   43.4070   18.0910 C.ar      1 ES5        -0.0334
     12 H          30.1625   43.7649   20.3645 H         1 ES5         0.1732
     13 H          30.2386   45.5288   20.3014 H         1 ES5         0.1732
     14 H          29.1657   46.7992   18.4640 H         1 ES5         0.0608
     15 H          27.8330   46.8124   16.3479 H         1 ES5         0.0636
     16 H          25.8758   43.4703   13.6281 H         1 ES5         0.0826
     17 H          26.4477   41.2906   14.7241 H         1 ES5         0.0680
     18 H          27.7774   41.2756   16.8117 H         1 ES5         0.0732
     19 H          28.9786   42.4611   18.5697 H         1 ES5         0.0489
@<TRIPOS>BOND
     1    1    6 ar 
     2    1   10 ar 
     3   11    1 ar 
     4    3    2 1  
     5    3    4 ar 
     6    3   11 ar 
     7    4    5 ar 
     8    5    6 ar 
     9    6    7 ar 
    10    7    8 ar 
    11    8    9 ar 
    12    9   10 ar 
    13    2   12 1  
    14    2   13 1  
    15    4   14 1  
    16    5   15 1  
    17    8   16 1  
    18    9   17 1  
    19   10   18 1  
    20   11   19 1  
@<TRIPOS>SUBSTRUCTURE
     1 ES5         1

