### 
### Created by X-TOOL on Mon Sep 10 21:13:03 2018
### 

@<TRIPOS>MOLECULE
3kqs_ligand
   18    19     1     0     0
SMALL
GAST_HUCK


@<TRIPOS>ATOM
      1 NAF        28.2530   46.1410   15.8830 N.pl3     1 AX7        -0.2366
      2 CAI        27.8390   44.8770   15.2060 C.ar      1 AX7         0.1936
      3 CAD        27.4580   44.6050   13.8530 C.ar      1 AX7         0.0376
      4 CAB        27.0940   43.2620   13.4640 C.ar      1 AX7        -0.0071
      5 CAC        27.1210   42.1900   14.4390 C.ar      1 AX7        -0.0071
      6 CAE        27.5040   42.4690   15.8000 C.ar      1 AX7         0.0376
      7 CAJ        27.8610   43.8010   16.1890 C.ar      1 AX7         0.1936
      8 NAG        28.3070   44.3920   17.5220 N.pl3     1 AX7        -0.2366
      9 CAH        28.5420   45.8300   17.3210 C.cat     1 AX7         0.2060
     10 NAA        28.9780   46.7740   18.3420 N.pl3     1 AX7        -0.3393
     11 H          28.3266   47.0584   15.4432 H         1 AX7         0.2326
     12 H          27.4426   45.4096   13.1178 H         1 AX7         0.0740
     13 H          26.7986   43.0547   12.4355 H         1 AX7         0.0978
     14 H          26.8524   41.1757   14.1437 H         1 AX7         0.0978
     15 H          27.5221   41.6646   16.5354 H         1 AX7         0.0740
     16 H          28.4219   43.8811   18.3973 H         1 AX7         0.2326
     17 H          29.1473   46.4523   19.2950 H         1 AX7         0.1747
     18 H          29.1138   47.7564   18.1036 H         1 AX7         0.1747
@<TRIPOS>BOND
     1    1    2 1  
     2    1    9 ar 
     3    2    3 ar 
     4    2    7 ar 
     5    3    4 ar 
     6    4    5 ar 
     7    5    6 ar 
     8    6    7 ar 
     9    7    8 1  
    10    8    9 ar 
    11    9   10 ar 
    12    1   11 1  
    13    3   12 1  
    14    4   13 1  
    15    5   14 1  
    16    6   15 1  
    17    8   16 1  
    18   10   17 1  
    19   10   18 1  
@<TRIPOS>SUBSTRUCTURE
     1 AX7         1

