### 
### Created by X-TOOL on Mon Sep 10 21:13:03 2018
### 

@<TRIPOS>MOLECULE
3kqt_ligand
   20    21     1     0     0
SMALL
GAST_HUCK


@<TRIPOS>ATOM
      1 C10        28.2460   45.4760   17.3130 C.2       1 ES7         0.2128
      2 C01        27.7380   43.4010   18.7370 C.3       1 ES7         0.0466
      3 N02        27.8390   44.1530   17.4690 N.pl3     1 ES7        -0.2195
      4 C03        27.5190   43.6600   16.2080 C.ar      1 ES7         0.0775
      5 C04        27.0480   42.3590   15.7660 C.ar      1 ES7        -0.0447
      6 C05        26.7960   42.1140   14.3610 C.ar      1 ES7        -0.0787
      7 C06        27.0180   43.1660   13.4020 C.ar      1 ES7        -0.0809
      8 C07        27.4930   44.4620   13.8350 C.ar      1 ES7        -0.0694
      9 C08        27.7390   44.7080   15.2520 C.ar      1 ES7         0.0114
     10 N09        28.1730   45.8100   15.9180 N.2       1 ES7        -0.3138
     11 N11        28.6550   46.3650   18.3690 N.pl3     1 ES7        -0.2886
     12 H          26.7050   43.0896   18.8919 H         1 ES7         0.0561
     13 H          28.3805   42.5218   18.6887 H         1 ES7         0.0561
     14 H          28.0542   44.0388   19.5624 H         1 ES7         0.0561
     15 H          26.8837   41.5646   16.4940 H         1 ES7         0.0533
     16 H          26.4400   41.1382   14.0306 H         1 ES7         0.0513
     17 H          26.8270   42.9844   12.3443 H         1 ES7         0.0508
     18 H          27.6666   45.2524   13.1048 H         1 ES7         0.0516
     19 H          28.9248   47.3245   18.1521 H         1 ES7         0.1860
     20 H          28.6750   46.0354   19.3341 H         1 ES7         0.1860
@<TRIPOS>BOND
     1    1    3 1  
     2    1   10 2  
     3    1   11 1  
     4    3    2 1  
     5    3    4 1  
     6    4    5 ar 
     7    4    9 ar 
     8    5    6 ar 
     9    6    7 ar 
    10    7    8 ar 
    11    8    9 ar 
    12    9   10 1  
    13    2   12 1  
    14    2   13 1  
    15    2   14 1  
    16    5   15 1  
    17    6   16 1  
    18    7   17 1  
    19    8   18 1  
    20   11   19 1  
    21   11   20 1  
@<TRIPOS>SUBSTRUCTURE
     1 ES7         1

