### 
### Created by X-TOOL on Mon Sep 10 21:13:03 2018
### 

@<TRIPOS>MOLECULE
3kqw_ligand
   15    16     1     0     0
SMALL
GAST_HUCK


@<TRIPOS>ATOM
      1 C10        28.1610   42.9330   16.9100 C.ar      1 ES9        -0.0253
      2 CL01       27.3190   41.3440   14.8010 Cl        1 ES9        -0.0783
      3 C02        27.6270   42.9130   15.6050 C.ar      1 ES9         0.0278
      4 C03        27.3410   44.1180   14.9350 C.ar      1 ES9        -0.0620
      5 C04        27.5890   45.3520   15.5630 C.ar      1 ES9        -0.0605
      6 C05        28.1310   45.3680   16.8720 C.ar      1 ES9         0.0337
      7 N06        28.4560   46.3810   17.6930 N.2       1 ES9        -0.3059
      8 C07        28.9410   45.8540   18.8740 C.2       1 ES9         0.1035
      9 N08        28.9110   44.4810   18.7640 N.pl3     1 ES9        -0.2505
     10 C09        28.4130   44.1760   17.5430 C.ar      1 ES9         0.0839
     11 H          28.3785   41.9991   17.4283 H         1 ES9         0.0556
     12 H          26.9264   44.0945   13.9272 H         1 ES9         0.0530
     13 H          27.3665   46.2864   15.0478 H         1 ES9         0.0556
     14 H          29.2856   46.4223   19.7379 H         1 ES9         0.1352
     15 H          29.2104   43.8140   19.4752 H         1 ES9         0.2342
@<TRIPOS>BOND
     1    1    3 ar 
     2    1   10 ar 
     3    3    2 1  
     4    3    4 ar 
     5    4    5 ar 
     6    5    6 ar 
     7    6    7 1  
     8    6   10 ar 
     9    7    8 2  
    10    8    9 1  
    11    9   10 1  
    12    1   11 1  
    13    4   12 1  
    14    5   13 1  
    15    8   14 1  
    16    9   15 1  
@<TRIPOS>SUBSTRUCTURE
     1 ES9         1

