### 
### Created by X-TOOL on Mon Sep 10 21:13:04 2018
### 

@<TRIPOS>MOLECULE
3kqy_ligand
   18    19     1     0     0
SMALL
GAST_HUCK


@<TRIPOS>ATOM
      1 NAA        29.1910   46.5410   18.3960 N.pl3     1 ES0        -0.2907
      2 OAB        27.8280   41.6080   16.9250 O.3       1 ES0        -0.3387
      3 CAC        27.0200   43.5080   13.9220 C.ar      1 ES0        -0.0886
      4 CAD        27.1680   42.4380   14.7950 C.ar      1 ES0        -0.0524
      5 CAE        27.3840   44.7870   14.3240 C.ar      1 ES0        -0.0568
      6 NAF        28.3160   46.0870   16.2350 N.pl3     1 ES0        -0.2346
      7 NAG        28.5440   44.4100   17.5980 N.2       1 ES0        -0.3171
      8 CAH        28.7110   45.7240   17.4590 C.2       1 ES0         0.2066
      9 CAI        27.6790   42.6530   16.0700 C.ar      1 ES0         0.0830
     10 CAJ        27.8950   44.9970   15.5980 C.ar      1 ES0         0.0670
     11 CAK        28.0420   43.9320   16.4680 C.ar      1 ES0         0.0423
     12 H          29.4637   46.1692   19.3058 H         1 ES0         0.1849
     13 H          29.2857   47.5382   18.2034 H         1 ES0         0.1849
     14 H          28.1898   41.9249   17.7559 H         1 ES0         0.2464
     15 H          26.6185   43.3443   12.9220 H         1 ES0         0.0485
     16 H          26.8845   41.4332   14.4817 H         1 ES0         0.0419
     17 H          27.2684   45.6266   13.6386 H         1 ES0         0.0432
     18 H          28.3340   47.0336   15.8555 H         1 ES0         0.2302
@<TRIPOS>BOND
     1    8    1 1  
     2    9    2 1  
     3    3    4 ar 
     4    5    3 ar 
     5    4    9 ar 
     6   10    5 ar 
     7    6    8 1  
     8    6   10 1  
     9    8    7 2  
    10    7   11 1  
    11    9   11 ar 
    12   10   11 ar 
    13    1   12 1  
    14    1   13 1  
    15    2   14 1  
    16    3   15 1  
    17    4   16 1  
    18    5   17 1  
    19    6   18 1  
@<TRIPOS>SUBSTRUCTURE
     1 ES0         1

