### 
### Created by X-TOOL on Mon Sep 10 21:13:04 2018
### 

@<TRIPOS>MOLECULE
3kr0_ligand
   18    19     1     0     0
SMALL
GAST_HUCK


@<TRIPOS>ATOM
      1 C1         27.4810   42.8830   15.2400 C.ar      1 172         0.0711
      2 C2         27.9810   42.6720   16.5230 C.ar      1 172        -0.0176
      3 C3         28.4090   43.7400   17.2930 C.ar      1 172         0.0663
      4 C4         28.3480   45.0420   16.8010 C.ar      1 172         0.0016
      5 C5         27.8450   45.2610   15.5170 C.ar      1 172        -0.0751
      6 C6         27.4090   44.1780   14.7310 C.ar      1 172        -0.0502
      7 N10        28.9190   43.7800   18.5250 N.pl3     1 172        -0.2343
      8 C11        29.1770   45.0560   18.8350 C.2       1 172         0.2065
      9 N12        28.8280   45.8350   17.7800 N.2       1 172        -0.3213
     10 N14        29.6420   45.4370   20.0290 N.pl3     1 172        -0.2905
     11 O17        26.9970   41.8020   14.5750 O.3       1 172        -0.3413
     12 H          28.0356   41.6596   16.9232 H         1 172         0.0442
     13 H          27.7898   46.2753   15.1216 H         1 172         0.0500
     14 H          27.0169   44.3515   13.7289 H         1 172         0.0454
     15 H          29.0843   42.9745   19.1285 H         1 172         0.2299
     16 H          29.7727   46.4278   20.2329 H         1 172         0.1851
     17 H          29.8661   44.7369   20.7361 H         1 172         0.1851
     18 H          27.1474   41.0117   15.0989 H         1 172         0.2450
@<TRIPOS>BOND
     1    1    2 ar 
     2    1    6 ar 
     3    1   11 1  
     4    2    3 ar 
     5    3    4 ar 
     6    3    7 1  
     7    4    5 ar 
     8    4    9 1  
     9    5    6 ar 
    10    7    8 1  
    11    8    9 2  
    12    8   10 1  
    13    2   12 1  
    14    5   13 1  
    15    6   14 1  
    16    7   15 1  
    17   10   16 1  
    18   10   17 1  
    19   11   18 1  
@<TRIPOS>SUBSTRUCTURE
     1 172         1

