### 
### Created by X-TOOL on Mon Sep 10 21:13:04 2018
### 

@<TRIPOS>MOLECULE
3kr1_ligand
   17    18     1     0     0
SMALL
GAST_HUCK


@<TRIPOS>ATOM
      1 CLA        26.7490   40.4510   14.3880 Cl        1 VGD        -0.0819
      2 CAH        27.1720   42.1020   14.8750 C.ar      1 VGD         0.0230
      3 CAC        27.1810   43.1150   13.9350 C.ar      1 VGD        -0.0670
      4 CAD        27.5120   44.4180   14.3020 C.ar      1 VGD        -0.0687
      5 CAK        27.8360   44.6910   15.6300 C.ar      1 VGD         0.0116
      6 CAJ        27.8350   43.6710   16.5760 C.ar      1 VGD         0.0756
      7 CAE        27.5020   42.3620   16.1940 C.ar      1 VGD        -0.0310
      8 NAG        28.2030   45.8580   16.2880 N.2       1 VGD        -0.3135
      9 CAI        28.4240   45.5790   17.6130 C.2       1 VGD         0.2108
     10 NAF        28.2010   44.2400   17.8040 N.pl3     1 VGD        -0.2303
     11 NAA        28.8220   46.5340   18.5990 N.pl3     1 VGD        -0.2886
     12 H          26.9272   42.8931   12.8984 H         1 VGD         0.0515
     13 H          27.5175   45.2151   13.5586 H         1 VGD         0.0517
     14 H          27.5032   41.5574   16.9294 H         1 VGD         0.0539
     15 H          28.2868   43.7418   18.6899 H         1 VGD         0.2311
     16 H          28.9631   47.5095   18.3365 H         1 VGD         0.1861
     17 H          28.9650   46.2401   19.5652 H         1 VGD         0.1861
@<TRIPOS>BOND
     1    1    2 1  
     2    2    3 ar 
     3    2    7 ar 
     4    3    4 ar 
     5    4    5 ar 
     6    5    6 ar 
     7    5    8 1  
     8    6    7 ar 
     9    6   10 1  
    10    8    9 2  
    11    9   10 1  
    12    9   11 1  
    13    3   12 1  
    14    4   13 1  
    15    7   14 1  
    16   10   15 1  
    17   11   16 1  
    18   11   17 1  
@<TRIPOS>SUBSTRUCTURE
     1 VGD         1

