### 
### Created by X-TOOL on Mon Sep 10 21:13:04 2018
### 

@<TRIPOS>MOLECULE
3kr2_ligand
   17    18     1     0     0
SMALL
GAST_HUCK


@<TRIPOS>ATOM
      1 NAA        29.0000   46.5510   18.4670 N.pl3     1 ET2        -0.2889
      2 FAB        27.3990   41.0790   14.2740 F         1 ET2        -0.1945
      3 CAC        27.7130   43.3800   13.7710 C.ar      1 ET2        -0.0447
      4 CAD        27.9980   44.6720   14.1860 C.ar      1 ET2        -0.0457
      5 CAE        27.9410   42.5890   16.0300 C.ar      1 ET2        -0.0366
      6 NAF        28.5130   44.3980   17.6280 N.2       1 ET2        -0.3154
      7 NAG        28.5580   46.0280   16.1880 N.pl3     1 ET2        -0.2323
      8 CAH        27.6790   42.3370   14.6870 C.ar      1 ET2         0.1125
      9 CAI        28.7100   45.7080   17.4790 C.2       1 ET2         0.2097
     10 CAJ        28.2310   43.8810   16.4380 C.ar      1 ET2         0.0092
     11 CAK        28.2560   44.9220   15.5230 C.ar      1 ET2         0.0716
     12 H          29.0862   46.2060   19.4230 H         1 ET2         0.1860
     13 H          29.1361   47.5422   18.2683 H         1 ET2         0.1860
     14 H          27.5142   43.1816   12.7178 H         1 ET2         0.0507
     15 H          28.0188   45.4872   13.4627 H         1 ET2         0.0526
     16 H          27.9183   41.7761   16.7558 H         1 ET2         0.0496
     17 H          28.6573   46.9603   15.7862 H         1 ET2         0.2302
@<TRIPOS>BOND
     1    9    1 1  
     2    8    2 1  
     3    3    4 ar 
     4    8    3 ar 
     5    4   11 ar 
     6    5    8 ar 
     7   10    5 ar 
     8    6    9 2  
     9    6   10 1  
    10    9    7 1  
    11    7   11 1  
    12   10   11 ar 
    13    1   12 1  
    14    1   13 1  
    15    3   14 1  
    16    4   15 1  
    17    5   16 1  
    18    7   17 1  
@<TRIPOS>SUBSTRUCTURE
     1 ET2         1

