### 
### Created by X-TOOL on Mon Sep 10 21:13:03 2018
### 

@<TRIPOS>MOLECULE
3kr4_ligand
   46    46     1     0     0
SMALL
GAST_HUCK


@<TRIPOS>ATOM
      1 N2         84.8320   76.2930   30.1850 N.4       1 BES         0.2258
      2 C1         85.7750   75.1830   30.1470 C.3       1 BES         0.0291
      3 C6         85.5270   74.2450   31.3280 C.3       1 BES         0.0287
      4 C7         84.2390   73.4420   31.3840 C.ar      1 BES        -0.0374
      5 C8         84.1080   72.2380   30.6740 C.ar      1 BES        -0.0601
      6 C12        83.2110   73.8660   32.2140 C.ar      1 BES        -0.0601
      7 C9         82.9350   71.4760   30.7890 C.ar      1 BES        -0.0686
      8 C11        82.0370   73.1130   32.3290 C.ar      1 BES        -0.0686
      9 C10        81.8900   71.9210   31.6170 C.ar      1 BES        -0.0687
     10 C2         87.2530   75.6500   30.2280 C.3       1 BES         0.1881
     11 O2         87.7150   76.5840   29.2440 O.3       1 BES        -0.3664
     12 C3         88.0330   74.4310   29.8770 C.2       1 BES         0.2125
     13 O3         87.7090   73.8060   28.8670 O.2       1 BES        -0.3939
     14 N1         89.0330   74.1270   30.7020 N.am      1 BES        -0.2691
     15 C4         89.7930   72.9190   30.4270 C.3       1 BES         0.0946
     16 C13        91.1820   73.1180   31.0280 C.3       1 BES        -0.0156
     17 C14        92.1760   72.0160   30.6560 C.3       1 BES        -0.0431
     18 C15        92.6890   72.1810   29.2300 C.3       1 BES        -0.0625
     19 C16        93.3240   72.0440   31.6670 C.3       1 BES        -0.0625
     20 C5         88.9950   71.8020   31.0710 C.2       1 BES         0.0601
     21 O1         88.9640   70.7120   30.4670 O.co2     1 BES        -0.5666
     22 O4         88.3610   71.9860   32.1530 O.co2     1 BES        -0.5666
     23 H1         83.8908   75.9363   30.1296 H         1 BES         0.2001
     24 H2         85.0048   76.9076   29.4049 H         1 BES         0.2001
     25 H3         84.9479   76.8030   31.0467 H         1 BES         0.2001
     26 H4         85.6262   74.6336   29.2057 H         1 BES         0.0926
     27 H5         85.5607   74.8607   32.2389 H         1 BES         0.0484
     28 H6         86.3561   73.5223   31.3430 H         1 BES         0.0484
     29 H7         84.9146   71.8961   30.0356 H         1 BES         0.0557
     30 H8         83.3180   74.7862   32.7768 H         1 BES         0.0557
     31 H9         82.8352   70.5464   30.2405 H         1 BES         0.0599
     32 H10        81.2371   73.4572   32.9746 H         1 BES         0.0599
     33 H11        80.9768   71.3431   31.7021 H         1 BES         0.0559
     34 H12        87.4696   76.0256   31.2389 H         1 BES         0.0898
     35 H13        87.6217   76.2029   28.3788 H         1 BES         0.2136
     36 H14        89.2536   74.7099   31.4840 H         1 BES         0.1875
     37 H15        89.8831   72.7396   29.3455 H         1 BES         0.0726
     38 H16        91.0861   73.1439   32.1235 H         1 BES         0.0308
     39 H17        91.5801   74.0796   30.6719 H         1 BES         0.0308
     40 H18        91.6669   71.0434   30.7258 H         1 BES         0.0297
     41 H19        93.3989   71.3728   28.9999 H         1 BES         0.0232
     42 H20        93.1955   73.1526   29.1326 H         1 BES         0.0232
     43 H21        91.8429   72.1365   28.5285 H         1 BES         0.0232
     44 H22        92.9207   71.9228   32.6832 H         1 BES         0.0232
     45 H23        93.8529   73.0058   31.5948 H         1 BES         0.0232
     46 H24        94.0238   71.2235   31.4500 H         1 BES         0.0232
@<TRIPOS>BOND
     1    1    2 1  
     2    2    3 1  
     3    2   10 1  
     4    3    4 1  
     5    4    5 ar 
     6    4    6 ar 
     7    5    7 ar 
     8    6    8 ar 
     9    7    9 ar 
    10    8    9 ar 
    11   10   11 1  
    12   10   12 1  
    13   12   13 2  
    14   12   14 am 
    15   14   15 1  
    16   15   16 1  
    17   15   20 1  
    18   16   17 1  
    19   17   18 1  
    20   17   19 1  
    21   20   21 ar 
    22   20   22 ar 
    23    1   23 1  
    24    1   24 1  
    25    1   25 1  
    26    2   26 1  
    27    3   27 1  
    28    3   28 1  
    29    5   29 1  
    30    6   30 1  
    31    7   31 1  
    32    8   32 1  
    33    9   33 1  
    34   10   34 1  
    35   11   35 1  
    36   14   36 1  
    37   15   37 1  
    38   16   38 1  
    39   16   39 1  
    40   17   40 1  
    41   18   41 1  
    42   18   42 1  
    43   18   43 1  
    44   19   44 1  
    45   19   45 1  
    46   19   46 1  
@<TRIPOS>SUBSTRUCTURE
     1 BES         1

