### 
### Created by X-TOOL on Mon Sep 10 21:13:01 2018
### 

@<TRIPOS>MOLECULE
3kr8_ligand
   32    34     1     0     0
SMALL
GAST_HUCK


@<TRIPOS>ATOM
      1 N1         37.9360  -11.1020  -12.9150 N.am      1 XAV        -0.2017
      2 C2         38.7660  -11.7470  -12.1140 C.2       1 XAV         0.1830
      3 N3         39.5630  -12.6850  -12.6420 N.2       1 XAV        -0.2708
      4 C4         39.6250  -12.9790  -13.9210 C.2       1 XAV         0.0230
      5 C5         38.8000  -12.3040  -14.8060 C.2       1 XAV         0.0495
      6 C6         37.9380  -11.3600  -14.2410 C.2       1 XAV         0.2160
      7 O6         37.0810  -10.7290  -15.0730 O.2       1 XAV        -0.4088
      8 FAB        39.7000  -11.3000   -5.7840 F         1 XAV        -0.2315
      9 FAC        39.2930   -9.2680   -6.3280 F         1 XAV        -0.2315
     10 FAD        37.6650  -10.6740   -5.9450 F         1 XAV        -0.2315
     11 CAE        38.1960  -10.3860  -10.1950 C.ar      1 XAV        -0.0171
     12 CAF        39.4980  -12.3470   -9.8340 C.ar      1 XAV        -0.0171
     13 CAG        38.2420  -10.0680   -8.8360 C.ar      1 XAV        -0.0317
     14 CAH        39.5090  -12.0450   -8.4620 C.ar      1 XAV        -0.0317
     15 CAI        40.2190  -14.7320  -15.5870 C.3       1 XAV         0.0066
     16 CAJ        40.6100  -14.0850  -14.2850 C.3       1 XAV         0.0006
     17 CAK        38.7540  -12.5860  -16.2770 C.3       1 XAV         0.0290
     18 SAN        40.2590  -13.4300  -16.8530 S.3       1 XAV        -0.1472
     19 CAP        38.8140  -11.4980  -10.7290 C.ar      1 XAV         0.0673
     20 CAQ        38.8850  -10.9060   -7.9620 C.ar      1 XAV         0.0401
     21 CAU        38.8830  -10.5260   -6.4610 C.3       1 XAV         0.3666
     22 H1         37.3060  -10.4224  -12.5392 H         1 XAV         0.2504
     23 H2         37.6493   -9.7286  -10.8614 H         1 XAV         0.0738
     24 H3         40.0121  -13.2273  -10.2026 H         1 XAV         0.0738
     25 H4         37.7709   -9.1616   -8.4733 H         1 XAV         0.0836
     26 H5         40.0155  -12.7150   -7.7767 H         1 XAV         0.0836
     27 H6         39.2064  -15.1549  -15.5107 H         1 XAV         0.0402
     28 H7         40.9315  -15.5302  -15.8422 H         1 XAV         0.0402
     29 H8         40.6115  -14.8447  -13.4895 H         1 XAV         0.0454
     30 H9         41.6175  -13.6546  -14.3829 H         1 XAV         0.0454
     31 H10        38.6507  -11.6342  -16.8186 H         1 XAV         0.0511
     32 H11        37.8844  -13.2251  -16.4896 H         1 XAV         0.0511
@<TRIPOS>BOND
     1    2    1 am 
     2    1    6 am 
     3    2    3 2  
     4   19    2 1  
     5    3    4 1  
     6    4    5 2  
     7    4   16 1  
     8    6    5 1  
     9    5   17 1  
    10    6    7 2  
    11   21    8 1  
    12   21    9 1  
    13   21   10 1  
    14   13   11 ar 
    15   11   19 ar 
    16   14   12 ar 
    17   12   19 ar 
    18   20   13 ar 
    19   20   14 ar 
    20   16   15 1  
    21   15   18 1  
    22   17   18 1  
    23   20   21 1  
    24    1   22 1  
    25   11   23 1  
    26   12   24 1  
    27   13   25 1  
    28   14   26 1  
    29   15   27 1  
    30   15   28 1  
    31   16   29 1  
    32   16   30 1  
    33   17   31 1  
    34   17   32 1  
@<TRIPOS>SUBSTRUCTURE
     1 XAV         1

