### 
### Created by X-TOOL on Mon Sep 10 21:13:03 2018
### 

@<TRIPOS>MOLECULE
3krd_ligand
   69    68     1     0     0
SMALL
GAST_HUCK


@<TRIPOS>ATOM
      1 N1         44.1790   25.9490   50.9970 N.am      1 FEB        -0.2798
      2 C2         44.6060   27.3410   51.1230 C.3       1 FEB         0.0653
      3 C3         43.3500   28.2230   51.0300 C.3       1 FEB         0.0671
      4 O4         42.6550   28.0000   49.7750 O.3       1 FEB        -0.3927
      5 C5         45.6450   27.7830   50.0330 C.3       1 FEB        -0.0254
      6 C6         46.9650   26.9940   49.9580 C.3       1 FEB        -0.0446
      7 C7         47.8380   27.6290   48.8430 C.3       1 FEB        -0.0626
      8 C8         47.7390   27.0140   51.3140 C.3       1 FEB        -0.0626
      9 N9         44.5600   22.7260   52.3130 N.am      1 FEB        -0.2634
     10 C10        43.7240   23.6900   51.6270 C.3       1 FEB         0.1329
     11 C11        44.2200   25.0640   52.0030 C.2       1 FEB         0.2021
     12 O12        44.6360   25.3100   53.1890 O.2       1 FEB        -0.3945
     13 C13        42.2610   23.4620   52.0720 C.3       1 FEB         0.0045
     14 C14        41.6030   22.1270   51.6240 C.3       1 FEB         0.0412
     15 C15        41.7320   21.8640   50.1100 C.2       1 FEB         0.1737
     16 O16        41.0900   22.5340   49.2900 O.2       1 FEB        -0.3973
     17 N17        42.5630   20.9120   49.6880 N.am      1 FEB        -0.3009
     18 N18        46.4720   19.7250   52.2730 N.am      1 FEB        -0.2634
     19 C19        46.1580   21.0750   52.8690 C.3       1 FEB         0.1475
     20 C20        45.4990   21.9650   51.7750 C.2       1 FEB         0.2063
     21 O21        45.8120   21.9570   50.5580 O.2       1 FEB        -0.3942
     22 C22        47.5300   21.6630   53.3590 C.3       1 FEB         0.0773
     23 C23        48.2260   20.8950   54.5040 C.2       1 FEB         0.1780
     24 O24        47.7160   19.9040   55.0260 O.2       1 FEB        -0.3970
     25 N25        49.3820   21.3040   54.9430 N.am      1 FEB        -0.3007
     26 C26        45.8600   15.2170   50.1550 C.3       1 FEB        -0.0275
     27 C27        45.1750   16.4960   50.6930 C.3       1 FEB         0.0716
     28 C29        44.9660   14.0850   49.5690 C.3       1 FEB        -0.0628
     29 C36        46.1630   17.5610   51.2440 C.3       1 FEB         0.0633
     30 O37        44.3510   16.1030   51.7800 O.3       1 FEB        -0.3894
     31 C38        45.5530   18.8660   51.7730 C.2       1 FEB         0.1808
     32 O49        44.3020   19.0870   51.7500 O.2       1 FEB        -0.3968
     33 H          43.8300   25.6329   50.0922 H         1 FEB         0.1855
     34 H          45.1148   27.4516   52.0806 H         1 FEB         0.0579
     35 H          43.6506   29.2693   51.0841 H         1 FEB         0.0580
     36 H          42.6808   27.9693   51.8522 H         1 FEB         0.0580
     37 H          41.8758   28.5595   49.7382 H         1 FEB         0.2095
     38 H          45.9252   28.8049   50.2885 H         1 FEB         0.0291
     39 H          45.1519   27.6266   49.0736 H         1 FEB         0.0291
     40 H          46.7407   25.9506   49.7362 H         1 FEB         0.0296
     41 H          48.0720   28.6598   49.1093 H         1 FEB         0.0232
     42 H          48.7622   27.0605   48.7389 H         1 FEB         0.0232
     43 H          47.2908   27.6111   47.9005 H         1 FEB         0.0232
     44 H          48.6631   26.4450   51.2118 H         1 FEB         0.0232
     45 H          47.9729   28.0443   51.5822 H         1 FEB         0.0232
     46 H          47.1194   26.5666   52.0912 H         1 FEB         0.0232
     47 H          44.4087   22.6232   53.3165 H         1 FEB         0.1883
     48 H          43.7673   23.5849   50.5429 H         1 FEB         0.0801
     49 H          41.6765   24.2577   51.6102 H         1 FEB         0.0337
     50 H          42.2756   23.4418   53.1617 H         1 FEB         0.0337
     51 H          40.5404   22.1873   51.8594 H         1 FEB         0.0504
     52 H          42.1130   21.3164   52.1446 H         1 FEB         0.0504
     53 H          42.6705   20.7349   48.6893 H         1 FEB         0.1814
     54 H          43.0917   20.3603   50.3636 H         1 FEB         0.1814
     55 H          47.4504   19.4380   52.2447 H         1 FEB         0.1884
     56 H          45.4591   21.0206   53.7037 H         1 FEB         0.0826
     57 H          47.3153   22.6594   53.7452 H         1 FEB         0.0551
     58 H          48.2053   21.6165   52.5047 H         1 FEB         0.0551
     59 H          49.8443   20.8053   55.7033 H         1 FEB         0.1814
     60 H          49.8250   22.1230   54.5265 H         1 FEB         0.1814
     61 H          46.3520   14.7722   51.0200 H         1 FEB         0.0289
     62 H          46.4764   15.5534   49.3213 H         1 FEB         0.0289
     63 H          44.6374   16.9471   49.8590 H         1 FEB         0.0618
     64 H          44.2795   13.7310   50.3381 H         1 FEB         0.0231
     65 H          44.3977   14.4734   48.7238 H         1 FEB         0.0231
     66 H          45.5971   13.2609   49.2362 H         1 FEB         0.0231
     67 H          46.7942   17.8463   50.4024 H         1 FEB         0.0528
     68 H          46.6582   17.0960   52.0964 H         1 FEB         0.0528
     69 H          44.8978   15.7339   52.4774 H         1 FEB         0.2100
@<TRIPOS>BOND
     1    1    2 1  
     2   11    1 am 
     3    2    3 1  
     4    2    5 1  
     5    3    4 1  
     6    5    6 1  
     7    6    7 1  
     8    6    8 1  
     9    9   10 1  
    10   20    9 am 
    11   10   11 1  
    12   10   13 1  
    13   11   12 2  
    14   13   14 1  
    15   14   15 1  
    16   15   16 2  
    17   15   17 am 
    18   18   19 1  
    19   31   18 am 
    20   19   20 1  
    21   19   22 1  
    22   20   21 2  
    23   22   23 1  
    24   23   24 2  
    25   23   25 am 
    26   27   26 1  
    27   26   28 1  
    28   29   27 1  
    29   27   30 1  
    30   29   31 1  
    31   31   32 2  
    32    1   33 1  
    33    2   34 1  
    34    3   35 1  
    35    3   36 1  
    36    4   37 1  
    37    5   38 1  
    38    5   39 1  
    39    6   40 1  
    40    7   41 1  
    41    7   42 1  
    42    7   43 1  
    43    8   44 1  
    44    8   45 1  
    45    8   46 1  
    46    9   47 1  
    47   10   48 1  
    48   13   49 1  
    49   13   50 1  
    50   14   51 1  
    51   14   52 1  
    52   17   53 1  
    53   17   54 1  
    54   18   55 1  
    55   19   56 1  
    56   22   57 1  
    57   22   58 1  
    58   25   59 1  
    59   25   60 1  
    60   26   61 1  
    61   26   62 1  
    62   27   63 1  
    63   28   64 1  
    64   28   65 1  
    65   28   66 1  
    66   29   67 1  
    67   29   68 1  
    68   30   69 1  
@<TRIPOS>SUBSTRUCTURE
     1 FEB         1

