### 
### Created by X-TOOL on Mon Sep 10 21:13:04 2018
### 

@<TRIPOS>MOLECULE
3krj_ligand
   54    57     1     0     0
SMALL
GAST_HUCK


@<TRIPOS>ATOM
      1 N01         7.7680   24.7790    4.4760 N.1       1 KRJ        -0.3557
      2 C02         8.1750   25.1810    5.4830 C.1       1 KRJ         0.0798
      3 C03         8.6640   25.6850    6.7230 C.2       1 KRJ         0.1505
      4 C04         9.6850   25.1970    7.5110 C.2       1 KRJ         0.0913
      5 N05         9.7520   26.0480    8.6010 N.pl3     1 KRJ        -0.2306
      6 C06         8.8160   26.9840    8.4530 C.2       1 KRJ         0.2284
      7 N07         8.1150   26.8190    7.3340 N.2       1 KRJ        -0.2721
      8 C08         8.6330   28.0060    9.5170 C.2       1 KRJ         0.2827
      9 O09         9.2090   27.8790   10.6010 O.2       1 KRJ        -0.3630
     10 N10         7.8330   29.0140    9.1550 N.am      1 KRJ        -0.2302
     11 C11         7.3740   30.0960    9.9440 C.ar      1 KRJ         0.0671
     12 C12         7.5780   30.0390   11.3340 C.ar      1 KRJ        -0.0481
     13 C13         7.1030   31.0480   12.1630 C.ar      1 KRJ        -0.0754
     14 C14         6.4090   32.1570   11.6490 C.ar      1 KRJ        -0.0569
     15 C15         6.1930   32.2330   10.2430 C.ar      1 KRJ        -0.0694
     16 C16         6.6610   31.1950    9.3810 C.ar      1 KRJ        -0.0143
     17 C17         6.4460   31.2990    7.9140 C.2       1 KRJ        -0.0598
     18 C18         5.7060   30.3750    7.2560 C.2       1 KRJ        -0.0909
     19 C19         5.5000   30.3350    5.7470 C.3       1 KRJ        -0.0349
     20 C20         6.6530   31.0070    4.9870 C.3       1 KRJ        -0.0444
     21 C21         6.9740   32.3660    5.6180 C.3       1 KRJ        -0.0446
     22 C22         7.3450   32.2360    7.1110 C.3       1 KRJ        -0.0303
     23 C23         5.9640   33.1700   12.7240 C.3       1 KRJ        -0.0051
     24 C24         4.4620   33.0150   13.1030 C.3       1 KRJ        -0.0018
     25 C25         3.7380   34.3240   13.4510 C.3       1 KRJ        -0.0318
     26 N26         4.6730   35.1550   14.1950 N.4       1 KRJ         0.2272
     27 C27         5.5460   35.7390   13.1880 C.3       1 KRJ        -0.0318
     28 C28         6.4540   34.6400   12.5900 C.3       1 KRJ        -0.0018
     29 H1         10.3079   24.3251    7.3167 H         1 KRJ         0.1180
     30 H2         10.4108   25.9708    9.3890 H         1 KRJ         0.2509
     31 H3          7.5187   29.0022    8.2057 H         1 KRJ         0.2256
     32 H4          8.1116   29.1989   11.7636 H         1 KRJ         0.0479
     33 H5          7.2717   30.9782   13.2315 H         1 KRJ         0.0499
     34 H6          5.6696   33.0849    9.8243 H         1 KRJ         0.0486
     35 H7          5.2215   29.6020    7.8507 H         1 KRJ         0.0461
     36 H8          4.5630   30.8571    5.5032 H         1 KRJ         0.0400
     37 H9          5.4288   29.2851    5.4267 H         1 KRJ         0.0400
     38 H10         6.3610   31.1529    3.9366 H         1 KRJ         0.0288
     39 H11         7.5442   30.3639    5.0339 H         1 KRJ         0.0288
     40 H12         6.0924   33.0175    5.5264 H         1 KRJ         0.0285
     41 H13         7.8206   32.8168    5.0795 H         1 KRJ         0.0285
     42 H14         8.3766   31.8597    7.1759 H         1 KRJ         0.0384
     43 H15         7.2902   33.2361    7.5657 H         1 KRJ         0.0384
     44 H16         6.4942   32.8235   13.6233 H         1 KRJ         0.0437
     45 H17         4.3980   32.3482   13.9755 H         1 KRJ         0.0339
     46 H18         3.9415   32.5543   12.2505 H         1 KRJ         0.0339
     47 H19         2.8520   34.1111   14.0671 H         1 KRJ         0.0815
     48 H20         3.4287   34.8389   12.5295 H         1 KRJ         0.0815
     49 H21         5.2051   34.5957   14.8431 H         1 KRJ         0.2013
     50 H22         4.1816   35.8767   14.6987 H         1 KRJ         0.2013
     51 H23         6.1699   36.5176   13.6511 H         1 KRJ         0.0815
     52 H24         4.9361   36.1851   12.3887 H         1 KRJ         0.0815
     53 H25         6.5720   34.8542   11.5175 H         1 KRJ         0.0339
     54 H26         7.4323   34.7105   13.0878 H         1 KRJ         0.0339
@<TRIPOS>BOND
     1    1    2 3  
     2    2    3 1  
     3    3    4 2  
     4    3    7 1  
     5    4    5 1  
     6    5    6 1  
     7    6    7 2  
     8    6    8 1  
     9    8    9 2  
    10    8   10 am 
    11   10   11 1  
    12   11   12 ar 
    13   11   16 ar 
    14   12   13 ar 
    15   13   14 ar 
    16   14   15 ar 
    17   14   23 1  
    18   15   16 ar 
    19   16   17 1  
    20   17   18 2  
    21   17   22 1  
    22   18   19 1  
    23   19   20 1  
    24   20   21 1  
    25   21   22 1  
    26   23   24 1  
    27   23   28 1  
    28   24   25 1  
    29   25   26 1  
    30   26   27 1  
    31   27   28 1  
    32    4   29 1  
    33    5   30 1  
    34   10   31 1  
    35   12   32 1  
    36   13   33 1  
    37   15   34 1  
    38   18   35 1  
    39   19   36 1  
    40   19   37 1  
    41   20   38 1  
    42   20   39 1  
    43   21   40 1  
    44   21   41 1  
    45   22   42 1  
    46   22   43 1  
    47   23   44 1  
    48   24   45 1  
    49   24   46 1  
    50   25   47 1  
    51   25   48 1  
    52   26   49 1  
    53   26   50 1  
    54   27   51 1  
    55   27   52 1  
    56   28   53 1  
    57   28   54 1  
@<TRIPOS>SUBSTRUCTURE
     1 KRJ         1

