### 
### Created by X-TOOL on Mon Sep 10 21:13:04 2018
### 

@<TRIPOS>MOLECULE
3krl_ligand
   57    60     1     0     0
SMALL
GAST_HUCK


@<TRIPOS>ATOM
      1 C01         8.1660  -10.1870  -15.2590 C.3       1 KRL        -0.0430
      2 N02         8.9680  -10.6690  -14.0880 N.4       1 KRL         0.2358
      3 C03         8.2890  -11.2250  -12.9100 C.3       1 KRL        -0.0124
      4 C04         9.0150  -12.3240  -12.0420 C.3       1 KRL         0.0642
      5 N05        10.4400  -12.6830  -12.2400 N.pl3     1 KRL        -0.3088
      6 C06        11.1180  -12.0050  -13.3810 C.3       1 KRL         0.0642
      7 C07        10.3990  -10.9200  -14.2730 C.3       1 KRL        -0.0124
      8 C08        11.0890  -13.7670  -11.4060 C.ar      1 KRL         0.0138
      9 C09        11.6190  -14.9620  -11.9140 C.ar      1 KRL        -0.0705
     10 C10        12.2890  -15.9300  -11.1360 C.ar      1 KRL        -0.0626
     11 C11        12.5060  -15.8050   -9.7490 C.ar      1 KRL         0.0730
     12 N12        13.2370  -16.7340   -8.9050 N.am      1 KRL        -0.2418
     13 C13        13.7550  -18.0270   -9.1080 C.2       1 KRL         0.2647
     14 O14        13.5830  -18.6950  -10.1250 O.2       1 KRL        -0.3725
     15 C15        14.5520  -18.7330   -8.0300 C.2       1 KRL         0.2103
     16 C16        14.8940  -20.0650   -7.8730 C.2       1 KRL        -0.0179
     17 C17        15.6480  -20.1510   -6.6460 C.2       1 KRL        -0.0119
     18 C18        15.6960  -18.8620   -6.1510 C.2       1 KRL         0.2346
     19 C19        16.2480  -18.2080   -5.0220 C.1       1 KRL         0.1176
     20 N20        16.6850  -17.6520   -4.1040 N.1       1 KRL        -0.3473
     21 O21        15.0290  -17.9910   -6.9830 O.3       1 KRL        -0.2141
     22 C22        11.9930  -14.5890   -9.1890 C.ar      1 KRL         0.0530
     23 C23        11.3160  -13.6340  -10.0040 C.ar      1 KRL        -0.0387
     24 N24        12.1830  -14.4650   -7.7290 N.pl3     1 KRL        -0.3159
     25 C25        13.2100  -13.4530   -7.3840 C.3       1 KRL         0.0241
     26 C26        13.5060  -13.2160   -5.8910 C.3       1 KRL        -0.0336
     27 C27        12.6010  -13.9840   -4.9440 C.3       1 KRL        -0.0495
     28 C28        12.5450  -15.4330   -5.3820 C.3       1 KRL        -0.0336
     29 C29        11.7700  -15.4780   -6.7140 C.3       1 KRL         0.0241
     30 H1          7.1183  -10.0487  -14.9538 H         1 KRL         0.0778
     31 H2          8.2170  -10.9296  -16.0689 H         1 KRL         0.0778
     32 H3          8.5741   -9.2290  -15.6136 H         1 KRL         0.0778
     33 H4          9.0913   -9.7524  -13.6871 H         1 KRL         0.2032
     34 H5          7.3461  -11.6678  -13.2634 H         1 KRL         0.0834
     35 H6          8.0692  -10.3812  -12.2394 H         1 KRL         0.0834
     36 H7          8.4434  -13.2529  -12.1849 H         1 KRL         0.0561
     37 H8          8.9254  -11.9955  -10.9960 H         1 KRL         0.0561
     38 H9         11.4328  -12.8046  -14.0677 H         1 KRL         0.0561
     39 H10        12.0067  -11.5129  -12.9591 H         1 KRL         0.0561
     40 H11        10.9169   -9.9658  -14.0962 H         1 KRL         0.0834
     41 H12        10.5379  -11.2239  -15.3210 H         1 KRL         0.0834
     42 H13        11.5065  -15.1548  -12.9748 H         1 KRL         0.0370
     43 H14        12.6576  -16.8200  -11.6332 H         1 KRL         0.0432
     44 H15        13.4085  -16.3803   -7.9855 H         1 KRL         0.2173
     45 H16        14.6434  -20.8859   -8.5433 H         1 KRL         0.0499
     46 H17        16.0869  -21.0439   -6.2032 H         1 KRL         0.0579
     47 H18        10.9452  -12.7375   -9.5204 H         1 KRL         0.0371
     48 H19        12.8826  -12.4935   -7.8107 H         1 KRL         0.0509
     49 H20        14.1514  -13.7640   -7.8605 H         1 KRL         0.0509
     50 H21        13.3898  -12.1421   -5.6832 H         1 KRL         0.0284
     51 H22        14.5454  -13.5172   -5.6940 H         1 KRL         0.0284
     52 H23        11.5897  -13.5520   -4.9687 H         1 KRL         0.0266
     53 H24        13.0009  -13.9232   -3.9211 H         1 KRL         0.0266
     54 H25        12.0250  -16.0361   -4.6231 H         1 KRL         0.0284
     55 H26        13.5635  -15.8228   -5.5255 H         1 KRL         0.0284
     56 H27        11.9097  -16.4763   -7.1544 H         1 KRL         0.0509
     57 H28        10.7041  -15.3210   -6.4920 H         1 KRL         0.0509
@<TRIPOS>BOND
     1    1    2 1  
     2    2    3 1  
     3    2    7 1  
     4    3    4 1  
     5    4    5 1  
     6    5    6 1  
     7    5    8 1  
     8    6    7 1  
     9    8    9 ar 
    10    8   23 ar 
    11    9   10 ar 
    12   10   11 ar 
    13   11   12 1  
    14   11   22 ar 
    15   12   13 am 
    16   13   14 2  
    17   13   15 1  
    18   15   16 2  
    19   15   21 1  
    20   16   17 1  
    21   17   18 2  
    22   18   19 1  
    23   18   21 1  
    24   19   20 3  
    25   22   23 ar 
    26   22   24 1  
    27   24   25 1  
    28   24   29 1  
    29   25   26 1  
    30   26   27 1  
    31   27   28 1  
    32   28   29 1  
    33    1   30 1  
    34    1   31 1  
    35    1   32 1  
    36    2   33 1  
    37    3   34 1  
    38    3   35 1  
    39    4   36 1  
    40    4   37 1  
    41    6   38 1  
    42    6   39 1  
    43    7   40 1  
    44    7   41 1  
    45    9   42 1  
    46   10   43 1  
    47   12   44 1  
    48   16   45 1  
    49   17   46 1  
    50   23   47 1  
    51   25   48 1  
    52   25   49 1  
    53   26   50 1  
    54   26   51 1  
    55   27   52 1  
    56   27   53 1  
    57   28   54 1  
    58   28   55 1  
    59   29   56 1  
    60   29   57 1  
@<TRIPOS>SUBSTRUCTURE
     1 KRL         1

