### 
### Created by X-TOOL on Mon Sep 10 21:13:04 2018
### 

@<TRIPOS>MOLECULE
3krw_ligand
   66    69     1     0     0
SMALL
GAST_HUCK


@<TRIPOS>ATOM
      1 C1'        34.9900   -3.2640   51.2520 C.2       1 BA1         0.1973
      2 C2'        34.5380   -1.8230   51.3040 C.ar      1 BA1         0.0385
      3 C3'        35.4350   -0.8360   51.7090 C.ar      1 BA1        -0.0504
      4 C4'        35.0470    0.5000   51.7610 C.ar      1 BA1        -0.0271
      5 C5'        33.7560    0.8630   51.4060 C.ar      1 BA1         0.0931
      6 O5'        33.3730    2.1620   51.4540 O.3       1 BA1        -0.3296
      7 C6'        32.8540   -0.1090   50.9980 C.ar      1 BA1        -0.0271
      8 C7'        33.2410   -1.4430   50.9470 C.ar      1 BA1        -0.0504
      9 O1'        36.1350   -3.5390   51.5650 O.2       1 BA1        -0.3898
     10 N1'        34.1600   -4.2320   50.8670 N.am      1 BA1        -0.2767
     11 N1         35.4330   -7.2280   49.1890 N.4       1 BA1         0.2287
     12 C2         34.7370   -5.9670   49.3300 C.3       1 BA1        -0.0074
     13 C3         34.5750   -5.6160   50.8040 C.3       1 BA1         0.1111
     14 C4         33.5910   -6.4640   51.6130 C.3       1 BA1         0.1144
     15 C5         33.0280   -7.7090   50.9190 C.3       1 BA1        -0.0151
     16 C6         34.0940   -8.7450   50.5660 C.3       1 BA1        -0.0098
     17 C7         34.7010   -8.4770   49.1960 C.3       1 BA1        -0.0335
     18 OAC        34.3310   -6.8640   52.7610 O.3       1 BA1        -0.2714
     19 C1B        33.6790   -6.8710   54.0600 C.2       1 BA1         0.2617
     20 OBC        32.5240   -6.5160   54.2190 O.2       1 BA1        -0.3549
     21 C2B        34.5130   -7.3910   55.1840 C.ar      1 BA1         0.0495
     22 C3B        34.0070   -7.4590   56.4840 C.ar      1 BA1        -0.0173
     23 C4B        34.7910   -7.9580   57.5180 C.ar      1 BA1         0.1049
     24 O4'        34.3030   -8.0240   58.7850 O.3       1 BA1        -0.3293
     25 C5B        36.1690   -8.4190   57.2210 C.ar      1 BA1         0.0929
     26 C6B        36.6520   -8.3290   55.8190 C.ar      1 BA1         0.1049
     27 O6'        37.8940   -8.7280   55.4390 O.3       1 BA1        -0.3293
     28 C7B        35.8030   -7.8170   54.8600 C.ar      1 BA1        -0.0173
     29 C8'        37.0250   -8.9810   58.3110 C.2       1 BA1         0.1486
     30 O8'        36.6060   -9.0570   59.4510 O.2       1 BA1        -0.3846
     31 C9'        38.3870   -9.4830   57.9550 C.ar      1 BA1         0.0723
     32 CXU        39.5330   -8.5650   58.1070 C.ar      1 BA1         0.1107
     33 OXU        39.3330   -7.3070   58.5880 O.3       1 BA1        -0.3269
     34 CX4        40.8010   -9.0160   57.7640 C.ar      1 BA1        -0.0243
     35 CXE        41.0020  -10.3110   57.2720 C.ar      1 BA1        -0.0624
     36 CXO        39.9490  -11.2140   57.1030 C.ar      1 BA1        -0.0530
     37 CXY        38.6370  -10.8540   57.4200 C.ar      1 BA1         0.0195
     38 CX8        37.5180  -11.8370   57.2250 C.2       1 BA1         0.0641
     39 OX8        37.7690  -12.9760   56.7780 O.co2     1 BA1        -0.5596
     40 OXI        36.3510  -11.5020   57.5110 O.co2     1 BA1        -0.5596
     41 H1         36.4459   -1.1117   51.9866 H         1 BA1         0.0642
     42 H2         35.7543    1.2573   52.0792 H         1 BA1         0.0556
     43 H3         33.9216    2.6745   50.8718 H         1 BA1         0.2501
     44 H4         31.8452    0.1725   50.7184 H         1 BA1         0.0556
     45 H5         32.5300   -2.1962   50.6272 H         1 BA1         0.0642
     46 H6         33.2221   -3.9947   50.6140 H         1 BA1         0.1848
     47 H7         36.0962   -7.2779   49.9465 H         1 BA1         0.2014
     48 H8         35.9275   -7.1882   48.3115 H         1 BA1         0.2014
     49 H9         33.7436   -6.0464   48.8644 H         1 BA1         0.0837
     50 H10        35.3143   -5.1756   48.8296 H         1 BA1         0.0837
     51 H11        35.5613   -5.7196   51.2798 H         1 BA1         0.0638
     52 H12        32.7413   -5.8315   51.9096 H         1 BA1         0.0673
     53 H13        32.5279   -7.3942   49.9912 H         1 BA1         0.0296
     54 H14        32.2940   -8.1795   51.5897 H         1 BA1         0.0296
     55 H15        33.6343   -9.7443   50.5638 H         1 BA1         0.0318
     56 H16        34.8912   -8.7097   51.3231 H         1 BA1         0.0318
     57 H17        35.3871   -9.2977   48.9397 H         1 BA1         0.0814
     58 H18        33.8951   -8.4260   48.4491 H         1 BA1         0.0814
     59 H19        32.9975   -7.1209   56.6879 H         1 BA1         0.0515
     60 H20        34.9663   -8.3871   59.3601 H         1 BA1         0.2507
     61 H21        37.9994   -8.5857   54.5056 H         1 BA1         0.2507
     62 H22        36.1441   -7.7438   53.8337 H         1 BA1         0.0515
     63 H23        40.1636   -6.8474   58.6245 H         1 BA1         0.2510
     64 H24        41.6507   -8.3529   57.8794 H         1 BA1         0.0576
     65 H25        42.0073  -10.6236   57.0137 H         1 BA1         0.0632
     66 H26        40.1531  -12.2076   56.7206 H         1 BA1         0.0571
@<TRIPOS>BOND
     1    1    2 1  
     2    1    9 2  
     3   10    1 am 
     4    2    3 ar 
     5    2    8 ar 
     6    3    4 ar 
     7    4    5 ar 
     8    5    6 1  
     9    7    5 ar 
    10    8    7 ar 
    11   13   10 1  
    12   12   11 1  
    13   11   17 1  
    14   12   13 1  
    15   13   14 1  
    16   14   15 1  
    17   14   18 1  
    18   15   16 1  
    19   16   17 1  
    20   18   19 1  
    21   19   20 2  
    22   19   21 1  
    23   21   22 ar 
    24   21   28 ar 
    25   22   23 ar 
    26   23   24 1  
    27   23   25 ar 
    28   25   26 ar 
    29   25   29 1  
    30   26   27 1  
    31   26   28 ar 
    32   29   30 2  
    33   29   31 1  
    34   31   32 ar 
    35   31   37 ar 
    36   32   33 1  
    37   32   34 ar 
    38   34   35 ar 
    39   35   36 ar 
    40   36   37 ar 
    41   37   38 1  
    42   38   39 ar 
    43   38   40 ar 
    44    3   41 1  
    45    4   42 1  
    46    6   43 1  
    47    7   44 1  
    48    8   45 1  
    49   10   46 1  
    50   11   47 1  
    51   11   48 1  
    52   12   49 1  
    53   12   50 1  
    54   13   51 1  
    55   14   52 1  
    56   15   53 1  
    57   15   54 1  
    58   16   55 1  
    59   16   56 1  
    60   17   57 1  
    61   17   58 1  
    62   22   59 1  
    63   24   60 1  
    64   27   61 1  
    65   28   62 1  
    66   33   63 1  
    67   34   64 1  
    68   35   65 1  
    69   36   66 1  
@<TRIPOS>SUBSTRUCTURE
     1 BA1         1

