### 
### Created by X-TOOL on Mon Sep 10 21:13:04 2018
### 

@<TRIPOS>MOLECULE
3krx_ligand
   66    69     1     0     0
SMALL
GAST_HUCK


@<TRIPOS>ATOM
      1 C1'        35.6030   -3.3660   51.0980 C.2       1 BA1         0.1973
      2 C2'        35.1360   -1.9280   51.1000 C.ar      1 BA1         0.0385
      3 C3'        36.0070   -0.9240   51.5280 C.ar      1 BA1        -0.0504
      4 C4'        35.5970    0.4060   51.5360 C.ar      1 BA1        -0.0271
      5 C5'        34.3160    0.7430   51.1130 C.ar      1 BA1         0.0931
      6 O5'        33.9090    2.0370   51.1160 O.3       1 BA1        -0.3296
      7 C6'        33.4420   -0.2440   50.6860 C.ar      1 BA1        -0.0271
      8 C7'        33.8490   -1.5730   50.6790 C.ar      1 BA1        -0.0504
      9 O1'        36.7380   -3.6070   51.4710 O.2       1 BA1        -0.3898
     10 N1'        34.8030   -4.3570   50.6940 N.am      1 BA1        -0.2767
     11 N1         36.1330   -7.4520   49.1850 N.4       1 BA1         0.2287
     12 C2         35.5390   -6.1320   49.2410 C.3       1 BA1        -0.0074
     13 C3         35.2280   -5.7460   50.6840 C.3       1 BA1         0.1111
     14 C4         34.1710   -6.5950   51.4110 C.3       1 BA1         0.1144
     15 C5         33.5360   -7.7490   50.6240 C.3       1 BA1        -0.0151
     16 C6         34.5000   -8.8970   50.3190 C.3       1 BA1        -0.0098
     17 C7         35.3010   -8.6320   49.0510 C.3       1 BA1        -0.0335
     18 OAC        34.8250   -7.1460   52.5470 O.3       1 BA1        -0.2714
     19 C1B        34.1880   -7.0480   53.8510 C.2       1 BA1         0.2617
     20 OBC        33.0630   -6.5970   54.0030 O.2       1 BA1        -0.3549
     21 C2B        35.0040   -7.5690   54.9890 C.ar      1 BA1         0.0495
     22 C3B        34.5450   -7.5370   56.3100 C.ar      1 BA1        -0.0173
     23 C4B        35.3370   -8.0410   57.3420 C.ar      1 BA1         0.1049
     24 O4'        34.8990   -8.0150   58.6300 O.3       1 BA1        -0.3293
     25 C5B        36.6720   -8.6100   57.0190 C.ar      1 BA1         0.0929
     26 C6B        37.1010   -8.6160   55.5950 C.ar      1 BA1         0.1049
     27 O6'        38.2990   -9.1100   55.1780 O.3       1 BA1        -0.3293
     28 C7B        36.2480   -8.0960   54.6450 C.ar      1 BA1        -0.0173
     29 C8'        37.5490   -9.1690   58.0960 C.2       1 BA1         0.1486
     30 O8'        37.1300   -9.2850   59.2330 O.2       1 BA1        -0.3846
     31 C9'        38.9370   -9.6000   57.7370 C.ar      1 BA1         0.0723
     32 CXU        40.0300   -8.6020   57.7740 C.ar      1 BA1         0.1107
     33 OXU        39.7820   -7.3180   58.1540 O.3       1 BA1        -0.3269
     34 CX4        41.3140   -8.9970   57.4260 C.ar      1 BA1        -0.0243
     35 CXE        41.5850  -10.3100   57.0360 C.ar      1 BA1        -0.0624
     36 CXO        40.5860  -11.2860   56.9750 C.ar      1 BA1        -0.0530
     37 CXY        39.2600  -10.9930   57.3050 C.ar      1 BA1         0.0195
     38 CX8        38.2060  -12.0700   57.2240 C.2       1 BA1         0.0641
     39 OX8        38.5350  -13.2200   56.8610 O.co2     1 BA1        -0.5596
     40 OXI        37.0190  -11.8140   57.5170 O.co2     1 BA1        -0.5596
     41 H          37.0131   -1.1832   51.8575 H         1 BA1         0.0642
     42 H          36.2809    1.1844   51.8743 H         1 BA1         0.0556
     43 H          34.4818    2.5528   50.5437 H         1 BA1         0.2501
     44 H          32.4375    0.0213   50.3563 H         1 BA1         0.0556
     45 H          33.1590   -2.3467   50.3423 H         1 BA1         0.0642
     46 H          33.8591   -4.1298   50.3811 H         1 BA1         0.1848
     47 H          36.5804   -7.5636   50.0948 H         1 BA1         0.2014
     48 H          36.6891   -7.4398   48.3300 H         1 BA1         0.2014
     49 H          34.6116   -6.1367   48.6682 H         1 BA1         0.0837
     50 H          36.2416   -5.4098   48.8251 H         1 BA1         0.0837
     51 H          36.1495   -5.9258   51.2378 H         1 BA1         0.0638
     52 H          33.3368   -5.9263   51.6233 H         1 BA1         0.0673
     53 H          33.2020   -7.3442   49.6687 H         1 BA1         0.0296
     54 H          32.7321   -8.1556   51.2376 H         1 BA1         0.0296
     55 H          33.9180   -9.8074   50.1756 H         1 BA1         0.0318
     56 H          35.1956   -8.9942   51.1526 H         1 BA1         0.0318
     57 H          35.9465   -9.4903   48.8646 H         1 BA1         0.0814
     58 H          34.6033   -8.4711   48.2292 H         1 BA1         0.0814
     59 H          33.5646   -7.1166   56.5339 H         1 BA1         0.0515
     60 H          35.5673   -8.3996   59.2019 H         1 BA1         0.2507
     61 H          38.3691   -9.0145   54.2254 H         1 BA1         0.2507
     62 H          36.5538   -8.0969   53.5988 H         1 BA1         0.0515
     63 H          40.5973   -6.8123   58.1202 H         1 BA1         0.2510
     64 H          42.1251   -8.2696   57.4577 H         1 BA1         0.0576
     65 H          42.6066  -10.5823   56.7710 H         1 BA1         0.0632
     66 H          40.8469  -12.2974   56.6633 H         1 BA1         0.0571
@<TRIPOS>BOND
     1    1    2 1  
     2    1    9 2  
     3   10    1 am 
     4    2    3 ar 
     5    2    8 ar 
     6    3    4 ar 
     7    4    5 ar 
     8    5    6 1  
     9    7    5 ar 
    10    8    7 ar 
    11   13   10 1  
    12   12   11 1  
    13   11   17 1  
    14   12   13 1  
    15   13   14 1  
    16   14   15 1  
    17   14   18 1  
    18   15   16 1  
    19   16   17 1  
    20   18   19 1  
    21   19   20 2  
    22   19   21 1  
    23   21   22 ar 
    24   21   28 ar 
    25   22   23 ar 
    26   23   24 1  
    27   23   25 ar 
    28   25   26 ar 
    29   25   29 1  
    30   26   27 1  
    31   26   28 ar 
    32   29   30 2  
    33   29   31 1  
    34   31   32 ar 
    35   31   37 ar 
    36   32   33 1  
    37   32   34 ar 
    38   34   35 ar 
    39   35   36 ar 
    40   36   37 ar 
    41   37   38 1  
    42   38   39 ar 
    43   38   40 ar 
    44    3   41 1  
    45    4   42 1  
    46    6   43 1  
    47    7   44 1  
    48    8   45 1  
    49   10   46 1  
    50   11   47 1  
    51   11   48 1  
    52   12   49 1  
    53   12   50 1  
    54   13   51 1  
    55   14   52 1  
    56   15   53 1  
    57   15   54 1  
    58   16   55 1  
    59   16   56 1  
    60   17   57 1  
    61   17   58 1  
    62   22   59 1  
    63   24   60 1  
    64   27   61 1  
    65   28   62 1  
    66   33   63 1  
    67   34   64 1  
    68   35   65 1  
    69   36   66 1  
@<TRIPOS>SUBSTRUCTURE
     1 BA1         1

