### 
### Created by X-TOOL on Mon Sep 10 21:13:04 2018
### 

@<TRIPOS>MOLECULE
3kry_ligand
   59    61     1     0     0
SMALL
GAST_HUCK


@<TRIPOS>ATOM
      1 S1        -10.5830   -0.1720    4.3190 S.o2      1 3KR         0.0058
      2 C2        -10.0070   -0.9410    2.9040 C.ar      1 3KR         0.0768
      3 C3        -10.9100   -1.4420    1.9630 C.ar      1 3KR        -0.0453
      4 C4        -10.4330   -2.0520    0.7960 C.ar      1 3KR        -0.0273
      5 C5         -9.0550   -2.1590    0.5620 C.ar      1 3KR         0.1134
      6 C6         -8.1640   -1.6490    1.5010 C.ar      1 3KR        -0.0273
      7 C7         -8.6330   -1.0380    2.6680 C.ar      1 3KR        -0.0453
      8 C8        -10.6740    1.5490    4.0860 C.3       1 3KR         0.1936
      9 C9         -9.5980    2.0950    3.1350 C.2       1 3KR         0.3360
     10 N10        -8.3480    2.3700    3.5390 N.2       1 3KR         0.0377
     11 O11        -7.4900    2.6460    2.7150 O.2       1 3KR        -0.1750
     12 O12        -9.5490   -0.5730    5.5940 O.2       1 3KR        -0.1715
     13 O13       -12.0770   -0.8780    4.6500 O.2       1 3KR        -0.1715
     14 O14        -9.8680    2.3430    1.9620 O.2       1 3KR        -0.2679
     15 C15       -12.0720    1.7570    3.4630 C.3       1 3KR         0.0204
     16 C16       -12.5240    3.2250    3.4240 C.3       1 3KR        -0.0308
     17 N17       -12.4630    3.7420    4.8150 N.4       1 3KR         0.2367
     18 C18       -11.0690    3.7960    5.3590 C.3       1 3KR        -0.0308
     19 C19       -10.5330    2.3450    5.4030 C.3       1 3KR         0.0204
     20 C20       -13.7160    3.8470    5.6280 C.3       1 3KR        -0.0079
     21 C21       -14.0760    2.5870    6.4300 C.3       1 3KR         0.0871
     22 O22       -15.3890    2.6810    7.0150 O.3       1 3KR        -0.3777
     23 C23       -15.3550    2.6960    8.4490 C.3       1 3KR         0.0367
     24 O24        -8.5610   -2.7290   -0.5360 O.3       1 3KR        -0.2649
     25 C25        -9.2290   -3.2680   -1.5660 C.ar      1 3KR         0.1050
     26 C26        -9.9550   -2.4320   -2.4160 C.ar      1 3KR        -0.0367
     27 C27       -10.6650   -2.9550   -3.4900 C.ar      1 3KR        -0.0400
     28 C28       -10.6390   -4.3360   -3.6920 C.ar      1 3KR         0.0899
     29 C29        -9.9280   -5.1890   -2.8450 C.ar      1 3KR        -0.0400
     30 C30        -9.2130   -4.6460   -1.7670 C.ar      1 3KR        -0.0367
     31 O31       -11.3350   -4.8270   -4.7070 O.3       1 3KR        -0.2328
     32 C32       -10.8530   -5.2110   -6.0150 C.3       1 3KR         0.5445
     33 F33        -9.7850   -6.0110   -5.8860 F         1 3KR        -0.1402
     34 F34       -10.4900   -4.1230   -6.7060 F         1 3KR        -0.1402
     35 F35       -11.7890   -5.8770   -6.7200 F         1 3KR        -0.1402
     36 H1        -11.9769   -1.3588    2.1357 H         1 3KR         0.0608
     37 H2        -11.1344   -2.4442    0.0685 H         1 3KR         0.0551
     38 H3         -7.0969   -1.7260    1.3264 H         1 3KR         0.0551
     39 H4         -7.9301   -0.6391    3.3904 H         1 3KR         0.0608
     40 H5        -12.8029    1.1852    4.0535 H         1 3KR         0.0324
     41 H6        -12.0525    1.3732    2.4323 H         1 3KR         0.0324
     42 H7        -13.5534    3.2921    3.0421 H         1 3KR         0.0813
     43 H8        -11.8536    3.8084    2.7757 H         1 3KR         0.0813
     44 H9        -12.4834    4.7163    4.5573 H         1 3KR         0.2034
     45 H10       -11.0770    4.2247    6.3720 H         1 3KR         0.0813
     46 H11       -10.4338    4.4117    4.7052 H         1 3KR         0.0813
     47 H12        -9.4650    2.3850    5.6633 H         1 3KR         0.0324
     48 H13       -11.0817    1.8037    6.1878 H         1 3KR         0.0324
     49 H14       -14.5493    4.0661    4.9442 H         1 3KR         0.0837
     50 H15       -13.5945    4.6795    6.3366 H         1 3KR         0.0837
     51 H16       -13.3371    2.4536    7.2338 H         1 3KR         0.0613
     52 H17       -14.0475    1.7169    5.7576 H         1 3KR         0.0613
     53 H18       -16.3809    2.7686    8.8393 H         1 3KR         0.0524
     54 H19       -14.7697    3.5616    8.7929 H         1 3KR         0.0524
     55 H20       -14.8884    1.7693    8.8145 H         1 3KR         0.0524
     56 H21        -9.9651   -1.3630   -2.2363 H         1 3KR         0.0527
     57 H22       -11.2250   -2.3068   -4.1543 H         1 3KR         0.0518
     58 H23        -9.9286   -6.2590   -3.0187 H         1 3KR         0.0518
     59 H24        -8.6547   -5.2913   -1.0985 H         1 3KR         0.0527
@<TRIPOS>BOND
     1    1    2 1  
     2    1    8 1  
     3    1   12 2  
     4    1   13 2  
     5    2    3 ar 
     6    2    7 ar 
     7    3    4 ar 
     8    4    5 ar 
     9    5    6 ar 
    10    5   24 1  
    11    6    7 ar 
    12    8    9 1  
    13    8   15 1  
    14    8   19 1  
    15    9   10 1  
    16    9   14 2  
    17   10   11 2  
    18   15   16 1  
    19   16   17 1  
    20   17   18 1  
    21   17   20 1  
    22   18   19 1  
    23   20   21 1  
    24   21   22 1  
    25   22   23 1  
    26   24   25 1  
    27   25   26 ar 
    28   25   30 ar 
    29   26   27 ar 
    30   27   28 ar 
    31   28   29 ar 
    32   28   31 1  
    33   29   30 ar 
    34   31   32 1  
    35   32   33 1  
    36   32   34 1  
    37   32   35 1  
    38    3   36 1  
    39    4   37 1  
    40    6   38 1  
    41    7   39 1  
    42   15   40 1  
    43   15   41 1  
    44   16   42 1  
    45   16   43 1  
    46   17   44 1  
    47   18   45 1  
    48   18   46 1  
    49   19   47 1  
    50   19   48 1  
    51   20   49 1  
    52   20   50 1  
    53   21   51 1  
    54   21   52 1  
    55   23   53 1  
    56   23   54 1  
    57   23   55 1  
    58   26   56 1  
    59   27   57 1  
    60   29   58 1  
    61   30   59 1  
@<TRIPOS>SUBSTRUCTURE
     1 3KR         1

