### 
### Created by X-TOOL on Mon Sep 10 21:13:03 2018
### 

@<TRIPOS>MOLECULE
3ksq_ligand
   70    74     1     0     0
SMALL
GAST_HUCK


@<TRIPOS>ATOM
      1 CL        190.7520  128.8210   28.4600 Cl        1 Z96        -0.0762
      2 C1        187.0420  129.7240   29.9270 C.ar      1 Z96        -0.0488
      3 N1        186.1500  132.2020   35.1530 N.am      1 Z96        -0.2387
      4 O1        184.7380  133.3970   36.3590 O.2       1 Z96        -0.3774
      5 C2        185.3960  127.7440   32.3520 C.ar      1 Z96         0.0887
      6 N2        190.4640  125.8920   34.9210 N.pl3     1 Z96        -0.2467
      7 O2        186.4650  134.4930   35.3750 O.3       1 Z96        -0.2580
      8 C3        186.1740  126.6770   33.0330 C.ar      1 Z96        -0.0022
      9 N3        190.4160  126.6600   37.0160 N.2       1 Z96        -0.3420
     10 O3        190.0190  129.4140   33.9310 O.3       1 Z96        -0.3633
     11 C4        185.5730  125.3920   33.1740 C.ar      1 Z96        -0.0497
     12 N4        184.1290  127.4630   31.8610 N.ar      1 Z96        -0.2962
     13 C5        184.2510  125.1450   32.6710 C.ar      1 Z96        -0.0483
     14 N5        186.3060  129.9690   33.3310 N.4       1 Z96         0.2647
     15 C6        185.9490  129.1670   32.1310 C.3       1 Z96         0.0634
     16 C7        187.1250  129.0690   31.2190 C.ar      1 Z96         0.0307
     17 C8        188.3730  128.3780   31.6420 C.ar      1 Z96         0.0034
     18 C9        188.5560  127.7200   33.0080 C.2       1 Z96         0.0072
     19 C10       183.5630  126.2290   32.0120 C.ar      1 Z96        -0.0039
     20 C11       189.9360  128.0040   33.6840 C.3       1 Z96         0.1464
     21 C12       187.5530  126.9630   33.5870 C.2       1 Z96        -0.0518
     22 C13       188.1580  129.6340   29.0350 C.ar      1 Z96        -0.0523
     23 C14       189.3610  128.9350   29.4620 C.ar      1 Z96         0.0358
     24 C15       189.4710  128.3180   30.7450 C.ar      1 Z96        -0.0422
     25 C17       186.9780  131.2640   32.9890 C.3       1 Z96        -0.0078
     26 C18       187.3380  132.0610   34.2810 C.3       1 Z96         0.0760
     27 C19       185.4520  130.9290   35.4260 C.3       1 Z96         0.0760
     28 C20       185.0750  130.2040   34.1380 C.3       1 Z96        -0.0078
     29 C21       190.1440  127.6830   36.2660 C.2       1 Z96        -0.0216
     30 C22       186.1680  136.1120   37.2810 C.3       1 Z96        -0.0320
     31 C23       190.5620  125.0140   33.7330 C.3       1 Z96         0.0473
     32 C24       187.3840  136.6740   35.1910 C.3       1 Z96        -0.0320
     33 C25       185.7250  133.3920   35.6790 C.2       1 Z96         0.3229
     34 C26       184.8020  136.3230   35.1630 C.3       1 Z96        -0.0320
     35 C27       190.1870  127.2070   34.9630 C.2       1 Z96         0.0963
     36 C28       190.6110  125.5250   36.2320 C.2       1 Z96         0.0906
     37 C29       186.1740  135.8790   35.7640 C.3       1 Z96         0.0905
     38 H1        186.1509  130.2717   29.6423 H         1 Z96         0.0563
     39 H2        190.8514  129.6137   34.3430 H         1 Z96         0.2168
     40 H3        186.1187  124.5945   33.6652 H         1 Z96         0.0657
     41 H4        183.7837  124.1733   32.7829 H         1 Z96         0.0634
     42 H5        186.9512  129.4286   33.8858 H         1 Z96         0.2068
     43 H6        185.1602  129.7304   31.6111 H         1 Z96         0.1199
     44 H7        182.5651  126.0585   31.6244 H         1 Z96         0.0741
     45 H8        190.7248  127.7278   32.9688 H         1 Z96         0.0964
     46 H9        187.7829  126.5209   34.5553 H         1 Z96         0.0446
     47 H10       188.1075  130.0828   28.0496 H         1 Z96         0.0621
     48 H11       190.3842  127.8088   31.0310 H         1 Z96         0.0624
     49 H12       186.3000  131.8693   32.3694 H         1 Z96         0.0835
     50 H13       187.8997  131.0542   32.4265 H         1 Z96         0.0835
     51 H14       188.1271  131.5248   34.8286 H         1 Z96         0.0575
     52 H15       187.7011  133.0606   33.9999 H         1 Z96         0.0575
     53 H16       184.5360  131.1402   35.9972 H         1 Z96         0.0575
     54 H17       186.1129  130.2803   36.0196 H         1 Z96         0.0575
     55 H18       184.6053  129.2398   34.3823 H         1 Z96         0.0835
     56 H19       184.3691  130.8202   33.5618 H         1 Z96         0.0835
     57 H20       189.9277  128.6999   36.5902 H         1 Z96         0.0338
     58 H21       185.9435  137.1686   37.4888 H         1 Z96         0.0260
     59 H22       187.1552  135.8587   37.6948 H         1 Z96         0.0260
     60 H23       185.4009  135.4758   37.7467 H         1 Z96         0.0260
     61 H24       190.8042  123.9898   34.0530 H         1 Z96         0.0584
     62 H25       191.3534  125.3865   33.0660 H         1 Z96         0.0584
     63 H26       189.6012  125.0132   33.1973 H         1 Z96         0.0584
     64 H27       187.2669  137.7416   35.4287 H         1 Z96         0.0260
     65 H28       187.4246  136.5437   34.0995 H         1 Z96         0.0260
     66 H29       188.3153  136.2984   35.6400 H         1 Z96         0.0260
     67 H30       184.5911  137.3614   35.4585 H         1 Z96         0.0260
     68 H31       184.0058  135.6652   35.5415 H         1 Z96         0.0260
     69 H32       184.8431  136.2552   34.0659 H         1 Z96         0.0260
     70 H33       190.8395  124.5246   36.5967 H         1 Z96         0.1156
@<TRIPOS>BOND
     1   23    1 1  
     2   16    2 ar 
     3    2   22 ar 
     4   26    3 1  
     5    3   27 1  
     6    3   33 am 
     7   33    4 2  
     8    5    8 ar 
     9    5   12 ar 
    10   15    5 1  
    11    6   31 1  
    12   35    6 1  
    13    6   36 1  
    14   33    7 1  
    15    7   37 1  
    16    8   11 ar 
    17    8   21 1  
    18    9   29 1  
    19   36    9 2  
    20   20   10 1  
    21   11   13 ar 
    22   12   19 ar 
    23   19   13 ar 
    24   14   15 1  
    25   25   14 1  
    26   14   28 1  
    27   15   16 1  
    28   16   17 ar 
    29   17   18 1  
    30   17   24 ar 
    31   18   20 1  
    32   18   21 2  
    33   20   35 1  
    34   22   23 ar 
    35   24   23 ar 
    36   25   26 1  
    37   27   28 1  
    38   29   35 2  
    39   37   30 1  
    40   37   32 1  
    41   37   34 1  
    42    2   38 1  
    43   10   39 1  
    44   11   40 1  
    45   13   41 1  
    46   14   42 1  
    47   15   43 1  
    48   19   44 1  
    49   20   45 1  
    50   21   46 1  
    51   22   47 1  
    52   24   48 1  
    53   25   49 1  
    54   25   50 1  
    55   26   51 1  
    56   26   52 1  
    57   27   53 1  
    58   27   54 1  
    59   28   55 1  
    60   28   56 1  
    61   29   57 1  
    62   30   58 1  
    63   30   59 1  
    64   30   60 1  
    65   31   61 1  
    66   31   62 1  
    67   31   63 1  
    68   32   64 1  
    69   32   65 1  
    70   32   66 1  
    71   34   67 1  
    72   34   68 1  
    73   34   69 1  
    74   36   70 1  
@<TRIPOS>SUBSTRUCTURE
     1 Z96         1

