### 
### Created by X-TOOL on Mon Sep 10 21:12:59 2018
### 

@<TRIPOS>MOLECULE
3kv2_ligand
   24    23     1     0     0
SMALL
GAST_HUCK


@<TRIPOS>ATOM
      1 N          25.9850   -9.8980   -2.9660 N.4       1 NNH         0.2327
      2 CA         25.5890   -9.8810   -4.3640 C.3       1 NNH         0.0302
      3 C          24.1130   -9.4890   -4.5470 C.2       1 NNH         0.0845
      4 O          23.3360   -9.2110   -3.6570 O.co2     1 NNH        -0.5643
      5 CB         25.8450  -11.2720   -4.9030 C.3       1 NNH         0.0223
      6 CG         25.0820  -12.5130   -4.5800 C.3       1 NNH         0.0355
      7 ND         25.3350  -13.6680   -5.4720 N.pl3     1 NNH        -0.2909
      8 CE         25.3700  -14.9930   -5.1650 C.2       1 NNH         0.1842
      9 NH1        25.1380  -15.4010   -3.8210 N.2       1 NNH        -0.2131
     10 NH2        25.6130  -15.9740   -6.0600 N.pl3     1 NNH        -0.3050
     11 OH1        25.1690  -16.6460   -3.5170 O.3       1 NNH        -0.3179
     12 OXT        23.7530   -9.4850   -5.8500 O.co2     1 NNH        -0.5643
     13 H1         26.9560  -10.1591   -2.8950 H         1 NNH         0.2010
     14 H2         25.4201  -10.5656   -2.4648 H         1 NNH         0.2010
     15 H3         25.8537   -8.9811   -2.5684 H         1 NNH         0.2010
     16 H4         26.2114   -9.1553   -4.9081 H         1 NNH         0.1025
     17 H5         26.8848  -11.4976   -4.6239 H         1 NNH         0.0358
     18 H6         25.7724  -11.1707   -5.9959 H         1 NNH         0.0358
     19 H7         24.0095  -12.2742   -4.6309 H         1 NNH         0.0520
     20 H8         25.3425  -12.8136   -3.5544 H         1 NNH         0.0520
     21 H9         25.5082  -13.4363   -6.4605 H         1 NNH         0.1821
     22 H10        25.6242  -16.9579   -5.7554 H         1 NNH         0.1785
     23 H11        25.7872  -15.7386   -7.0475 H         1 NNH         0.1785
     24 H12        24.5073  -17.1094   -4.0168 H         1 NNH         0.2457
@<TRIPOS>BOND
     1    1    2 1  
     2    2    3 1  
     3    2    5 1  
     4    3    4 ar 
     5    3   12 ar 
     6    5    6 1  
     7    6    7 1  
     8    7    8 1  
     9    8    9 2  
    10    8   10 1  
    11    9   11 1  
    12    1   13 1  
    13    1   14 1  
    14    1   15 1  
    15    2   16 1  
    16    5   17 1  
    17    5   18 1  
    18    6   19 1  
    19    6   20 1  
    20    7   21 1  
    21   10   22 1  
    22   10   23 1  
    23   11   24 1  
@<TRIPOS>SUBSTRUCTURE
     1 NNH         1

