### 
### Created by X-TOOL on Mon Sep 10 21:13:01 2018
### 

@<TRIPOS>MOLECULE
3kvx_ligand
   64    69     1     0     0
SMALL
GAST_HUCK


@<TRIPOS>ATOM
      1 C01       -27.3880   34.8420   11.7600 C.ar      1 FMY        -0.0417
      2 C02       -26.1580   35.9270    9.9440 C.ar      1 FMY        -0.0417
      3 C03       -26.1110   34.4450   12.2410 C.ar      1 FMY        -0.0350
      4 C04       -24.9400   35.4500   10.3980 C.ar      1 FMY        -0.0350
      5 C05       -23.6690   33.4280   13.0930 C.2       1 FMY         0.1339
      6 C06       -32.1740   32.8600   13.5160 C.ar      1 FMY        -0.0278
      7 C07       -30.4980   31.7390   14.9190 C.ar      1 FMY        -0.0076
      8 C08       -29.7790   33.1180   13.0800 C.ar      1 FMY        -0.0350
      9 C09       -26.1090   33.4950   14.3140 C.3       1 FMY         0.0673
     10 C10       -26.1280   31.0100   14.1410 C.3       1 FMY         0.0673
     11 C11       -18.5470   31.7580   12.3810 C.3       1 FMY         0.0672
     12 C12       -18.3370   33.3240   10.5480 C.3       1 FMY         0.0672
     13 C13       -27.5590   33.3960   14.7600 C.3       1 FMY         0.0501
     14 C14       -27.4240   31.3000   13.4290 C.3       1 FMY         0.0501
     15 C15       -19.5590   32.7330   13.0310 C.3       1 FMY         0.0513
     16 C16       -19.5860   34.1630   10.9160 C.3       1 FMY         0.0513
     17 N17       -22.3550   33.0950   13.2160 N.2       1 FMY        -0.2650
     18 N18       -22.5060   34.3900   11.3720 N.2       1 FMY        -0.1849
     19 N19       -28.4790   36.0950   10.1070 N.pl3     1 FMY        -0.2453
     20 O20       -25.4950   32.2460   14.6130 O.3       1 FMY        -0.3759
     21 O21       -18.4300   31.9420   10.9570 O.3       1 FMY        -0.3759
     22 C22       -31.8170   32.0750   14.6360 C.ar      1 FMY         0.1254
     23 C23       -27.3600   35.6020   10.6130 C.ar      1 FMY         0.0592
     24 C24       -31.1010   33.3510   12.7210 C.ar      1 FMY        -0.0096
     25 C25       -29.4830   32.2330   14.0990 C.ar      1 FMY         0.0425
     26 C26       -24.8750   34.6750   11.5760 C.ar      1 FMY         0.0996
     27 C27       -21.6740   33.7300   12.2210 C.2       1 FMY         0.1578
     28 N28       -28.1470   32.0510   14.4610 N.pl3     1 FMY        -0.3047
     29 N29       -20.3080   33.5270   12.0260 N.pl3     1 FMY        -0.2899
     30 N30       -23.7390   34.1540   11.9990 N.pl3     1 FMY        -0.1570
     31 C31       -29.6710   35.5070   10.2230 C.ar      1 FMY         0.2085
     32 N31       -30.6510   35.7850    9.2990 N.ar      1 FMY        -0.2527
     33 N32       -29.8660   34.7510   11.3240 N.ar      1 FMY        -0.2479
     34 C33       -31.0950   34.2710   11.5850 C.ar      1 FMY         0.0507
     35 C34       -32.1210   34.5350   10.7560 C.ar      1 FMY        -0.0174
     36 C35       -31.8690   35.3370    9.6320 C.ar      1 FMY         0.0136
     37 F37       -32.6910   31.5420   15.4700 F         1 FMY        -0.1861
     38 H1        -28.3113   34.5678   12.2574 H         1 FMY         0.0522
     39 H2        -26.1902   36.5584    9.0634 H         1 FMY         0.0522
     40 H3        -26.0762   33.9249   13.1914 H         1 FMY         0.0556
     41 H4        -24.0334   35.6724    9.8470 H         1 FMY         0.0556
     42 H5        -24.4864   33.1524   13.7577 H         1 FMY         0.1356
     43 H6        -33.2088   33.0761   13.2759 H         1 FMY         0.0532
     44 H7        -30.2616   31.1027   15.7642 H         1 FMY         0.0530
     45 H8        -28.9785   33.6314   12.5597 H         1 FMY         0.0516
     46 H9        -25.6011   34.3052   14.8576 H         1 FMY         0.0579
     47 H10       -26.0589   33.6912   13.2328 H         1 FMY         0.0579
     48 H11       -25.4441   30.4986   13.4476 H         1 FMY         0.0579
     49 H12       -26.3304   30.3583   15.0037 H         1 FMY         0.0579
     50 H13       -18.8772   30.7271   12.5761 H         1 FMY         0.0579
     51 H14       -17.5598   31.9196   12.8385 H         1 FMY         0.0579
     52 H15       -17.4596   33.7732   11.0363 H         1 FMY         0.0579
     53 H16       -18.2055   33.3558    9.4564 H         1 FMY         0.0579
     54 H17       -28.1454   34.1646   14.2352 H         1 FMY         0.0536
     55 H18       -27.6100   33.5728   15.8445 H         1 FMY         0.0536
     56 H19       -27.9524   30.3740   13.1583 H         1 FMY         0.0536
     57 H20       -27.2621   31.9072   12.5262 H         1 FMY         0.0536
     58 H21       -19.0110   33.4235   13.6890 H         1 FMY         0.0535
     59 H22       -20.2771   32.1507   13.6270 H         1 FMY         0.0535
     60 H23       -20.2496   34.2316   10.0414 H         1 FMY         0.0535
     61 H24       -19.2709   35.1729   11.2174 H         1 FMY         0.0535
     62 H25       -28.4266   36.9860    9.5929 H         1 FMY         0.2162
     63 H26       -33.1118   34.1405   10.9501 H         1 FMY         0.0669
     64 H27       -32.7057   35.6088    8.9986 H         1 FMY         0.0890
@<TRIPOS>BOND
     1    1    3 ar 
     2   23    1 ar 
     3    2    4 ar 
     4   23    2 ar 
     5    3   26 ar 
     6    4   26 ar 
     7    5   17 2  
     8   30    5 1  
     9    6   22 ar 
    10   24    6 ar 
    11   22    7 ar 
    12   25    7 ar 
    13   24    8 ar 
    14    8   25 ar 
    15   13    9 1  
    16    9   20 1  
    17   14   10 1  
    18   10   20 1  
    19   15   11 1  
    20   11   21 1  
    21   16   12 1  
    22   12   21 1  
    23   28   13 1  
    24   28   14 1  
    25   29   15 1  
    26   29   16 1  
    27   27   17 1  
    28   18   27 2  
    29   30   18 1  
    30   19   23 1  
    31   31   19 1  
    32   22   37 1  
    33   34   24 1  
    34   25   28 1  
    35   26   30 1  
    36   27   29 1  
    37   31   32 ar 
    38   33   31 ar 
    39   32   36 ar 
    40   33   34 ar 
    41   34   35 ar 
    42   35   36 ar 
    43    1   38 1  
    44    2   39 1  
    45    3   40 1  
    46    4   41 1  
    47    5   42 1  
    48    6   43 1  
    49    7   44 1  
    50    8   45 1  
    51    9   46 1  
    52    9   47 1  
    53   10   48 1  
    54   10   49 1  
    55   11   50 1  
    56   11   51 1  
    57   12   52 1  
    58   12   53 1  
    59   13   54 1  
    60   13   55 1  
    61   14   56 1  
    62   14   57 1  
    63   15   58 1  
    64   15   59 1  
    65   16   60 1  
    66   16   61 1  
    67   19   62 1  
    68   35   63 1  
    69   36   64 1  
@<TRIPOS>SUBSTRUCTURE
     1 FMY         1

