### 
### Created by X-TOOL on Mon Sep 10 21:13:04 2018
### 

@<TRIPOS>MOLECULE
3kw9_ligand
   48    50     1     0     0
SMALL
GAST_HUCK


@<TRIPOS>ATOM
      1 N1         45.1940   16.5930   59.6270 N.ar      1 ORG        -0.2414
      2 C2         44.9690   15.3420   59.7920 C.ar      1 ORG         0.1791
      3 N3         44.3940   14.9470   61.0670 N.ar      1 ORG        -0.2274
      4 C4         44.1050   15.7720   62.0130 C.ar      1 ORG         0.1817
      5 N5         44.3910   17.1680   61.7390 N.ar      1 ORG        -0.2412
      6 C6         44.8980   17.5830   60.6400 C.ar      1 ORG         0.1294
      7 N7         45.2320   14.4470   58.8770 N.pl3     1 ORG        -0.2844
      8 N8         43.5850   15.3830   63.1620 N.pl3     1 ORG        -0.2635
      9 C9         45.1600   18.9650   60.4300 C.3       1 ORG         0.0308
     10 C10        43.2990   13.9550   63.4470 C.3       1 ORG         0.0757
     11 C11        44.0640   13.5570   64.7440 C.3       1 ORG        -0.0120
     12 N12        43.7270   14.5240   65.8340 N.4       1 ORG         0.2299
     13 C13        44.0400   15.9500   65.5090 C.3       1 ORG        -0.0120
     14 C14        43.2640   16.3620   64.2290 C.3       1 ORG         0.0757
     15 N15        44.9020   20.0480   61.2530 N.4       1 ORG         0.2373
     16 C16        46.1610   14.6690   57.7570 C.3       1 ORG         0.0438
     17 C17        47.6460   14.5140   58.2110 C.3       1 ORG        -0.0292
     18 C18        48.6310   14.7370   57.0170 C.3       1 ORG        -0.0509
     19 C19        48.3070   13.7330   55.8580 C.3       1 ORG        -0.0529
     20 C20        46.8140   13.8590   55.4060 C.3       1 ORG        -0.0509
     21 C21        45.8440   13.6530   56.6180 C.3       1 ORG        -0.0292
     22 H          44.7664   13.5418   58.9427 H         1 ORG         0.1900
     23 H          44.4740   19.1733   59.6090 H         1 ORG         0.1075
     24 H          46.2499   18.9632   60.4421 H         1 ORG         0.1075
     25 H          43.6249   13.3332   62.6132 H         1 ORG         0.0585
     26 H          42.2277   13.8065   63.5825 H         1 ORG         0.0585
     27 H          45.1374   13.5795   64.5556 H         1 ORG         0.0835
     28 H          43.7716   12.5512   65.0456 H         1 ORG         0.0835
     29 H          44.2904   14.2702   66.6455 H         1 ORG         0.2015
     30 H          42.7204   14.4648   65.9875 H         1 ORG         0.2015
     31 H          45.1111   16.0607   65.3398 H         1 ORG         0.0835
     32 H          43.7418   16.5892   66.3400 H         1 ORG         0.0835
     33 H          42.1917   16.3672   64.4245 H         1 ORG         0.0585
     34 H          43.5556   17.3655   63.9189 H         1 ORG         0.0585
     35 H          45.2176   20.9036   60.7960 H         1 ORG         0.2015
     36 H          43.8995   20.1065   61.4317 H         1 ORG         0.2015
     37 H          45.3995   19.9290   62.1355 H         1 ORG         0.2015
     38 H          46.0287   15.6882   57.3941 H         1 ORG         0.0565
     39 H          47.7882   13.5035   58.5942 H         1 ORG         0.0288
     40 H          47.8545   15.2608   58.9771 H         1 ORG         0.0288
     41 H          49.6523   14.5708   57.3596 H         1 ORG         0.0266
     42 H          48.5216   15.7569   56.6483 H         1 ORG         0.0266
     43 H          48.4788   12.7182   56.2168 H         1 ORG         0.0265
     44 H          48.9497   13.9618   55.0079 H         1 ORG         0.0265
     45 H          46.6083   13.0931   54.6583 H         1 ORG         0.0266
     46 H          46.6550   14.8561   54.9953 H         1 ORG         0.0266
     47 H          44.8198   13.8109   56.2802 H         1 ORG         0.0288
     48 H          45.9714   12.6413   57.0030 H         1 ORG         0.0288
@<TRIPOS>BOND
     1    1    2 ar 
     2    1    6 ar 
     3    2    3 ar 
     4    2    7 1  
     5    3    4 ar 
     6    4    5 ar 
     7    4    8 1  
     8    5    6 ar 
     9    6    9 1  
    10    7   16 1  
    11    8   10 1  
    12    8   14 1  
    13    9   15 1  
    14   10   11 1  
    15   11   12 1  
    16   12   13 1  
    17   13   14 1  
    18   16   17 1  
    19   16   21 1  
    20   17   18 1  
    21   18   19 1  
    22   19   20 1  
    23   20   21 1  
    24    7   22 1  
    25    9   23 1  
    26    9   24 1  
    27   10   25 1  
    28   10   26 1  
    29   11   27 1  
    30   11   28 1  
    31   12   29 1  
    32   12   30 1  
    33   13   31 1  
    34   13   32 1  
    35   14   33 1  
    36   14   34 1  
    37   15   35 1  
    38   15   36 1  
    39   15   37 1  
    40   16   38 1  
    41   17   39 1  
    42   17   40 1  
    43   18   41 1  
    44   18   42 1  
    45   19   43 1  
    46   19   44 1  
    47   20   45 1  
    48   20   46 1  
    49   21   47 1  
    50   21   48 1  
@<TRIPOS>SUBSTRUCTURE
     1 ORG         1

