### 
### Created by X-TOOL on Mon Sep 10 21:13:04 2018
### 

@<TRIPOS>MOLECULE
3kwa_ligand
   44    43     1     0     0
SMALL
GAST_HUCK


@<TRIPOS>ATOM
      1 N1         -6.0090    0.3650   17.8620 N.4       1 SPM         0.2187
      2 C2         -5.4920    1.7110   17.8750 C.3       1 SPM        -0.0305
      3 C3         -6.6490    2.6550   17.6320 C.3       1 SPM         0.0275
      4 C4         -6.4610    3.4630   16.3440 C.3       1 SPM        -0.0288
      5 N5         -5.9940    2.6970   15.2120 N.4       1 SPM         0.2271
      6 C6         -4.5760    2.3910   15.1380 C.3       1 SPM        -0.0335
      7 C7         -4.1760    1.5000   13.9810 C.3       1 SPM        -0.0078
      8 C8         -4.6120    2.2790   12.7530 C.3       1 SPM        -0.0078
      9 C9         -5.2030    3.5720   13.2440 C.3       1 SPM        -0.0335
     10 N10        -4.2130    4.3280   13.9730 N.4       1 SPM         0.2271
     11 C11        -4.4170    5.6670   14.4380 C.3       1 SPM        -0.0288
     12 C12        -3.2020    6.1340   15.2130 C.3       1 SPM         0.0275
     13 C13        -1.8940    5.8300   14.4860 C.3       1 SPM        -0.0305
     14 N14        -1.1910    4.7290   15.1110 N.4       1 SPM         0.2187
     15 H1         -5.2560   -0.2857   18.0221 H         1 SPM         0.1994
     16 H2         -6.4317    0.1760   16.9666 H         1 SPM         0.1994
     17 H3         -6.7007    0.2637   18.5882 H         1 SPM         0.1994
     18 H4         -4.7394    1.8301   17.0817 H         1 SPM         0.0815
     19 H5         -5.0329    1.9258   18.8513 H         1 SPM         0.0815
     20 H6         -6.7259    3.3504   18.4808 H         1 SPM         0.0369
     21 H7         -7.5765    2.0690   17.5528 H         1 SPM         0.0369
     22 H8         -5.7293    4.2598   16.5434 H         1 SPM         0.0816
     23 H9         -7.4290    3.9123   16.0774 H         1 SPM         0.0816
     24 H10        -6.2335    3.2137   14.3803 H         1 SPM         0.2013
     25 H11        -6.4906    1.8199   15.2174 H         1 SPM         0.2013
     26 H12        -4.2855    1.8886   16.0725 H         1 SPM         0.0814
     27 H13        -4.0261    3.3391   15.0451 H         1 SPM         0.0814
     28 H14        -4.6951    0.5317   14.0349 H         1 SPM         0.0319
     29 H15        -3.0888    1.3332   13.9730 H         1 SPM         0.0319
     30 H16        -5.3654    1.7081   12.1905 H         1 SPM         0.0319
     31 H17        -3.7459    2.4806   12.1055 H         1 SPM         0.0319
     32 H18        -6.0539    3.3542   13.9063 H         1 SPM         0.0814
     33 H19        -5.5500    4.1628   12.3834 H         1 SPM         0.0814
     34 H20        -3.4021    4.3659   13.3754 H         1 SPM         0.2013
     35 H21        -4.0006    3.7823   14.7934 H         1 SPM         0.2013
     36 H22        -5.3003    5.6952   15.0929 H         1 SPM         0.0816
     37 H23        -4.5778    6.3318   13.5765 H         1 SPM         0.0816
     38 H24        -3.1895    5.6268   16.1890 H         1 SPM         0.0369
     39 H25        -3.2768    7.2208   15.3654 H         1 SPM         0.0369
     40 H26        -1.2539    6.7242   14.5101 H         1 SPM         0.0815
     41 H27        -2.1169    5.5666   13.4415 H         1 SPM         0.0815
     42 H28        -0.3337    4.5510   14.6115 H         1 SPM         0.1994
     43 H29        -1.7703    3.9044   15.0886 H         1 SPM         0.1994
     44 H30        -0.9795    4.9652   16.0678 H         1 SPM         0.1994
@<TRIPOS>BOND
     1    1    2 1  
     2    2    3 1  
     3    3    4 1  
     4    4    5 1  
     5    5    6 1  
     6    6    7 1  
     7    7    8 1  
     8    8    9 1  
     9    9   10 1  
    10   10   11 1  
    11   11   12 1  
    12   12   13 1  
    13   13   14 1  
    14    1   15 1  
    15    1   16 1  
    16    1   17 1  
    17    2   18 1  
    18    2   19 1  
    19    3   20 1  
    20    3   21 1  
    21    4   22 1  
    22    4   23 1  
    23    5   24 1  
    24    5   25 1  
    25    6   26 1  
    26    6   27 1  
    27    7   28 1  
    28    7   29 1  
    29    8   30 1  
    30    8   31 1  
    31    9   32 1  
    32    9   33 1  
    33   10   34 1  
    34   10   35 1  
    35   11   36 1  
    36   11   37 1  
    37   12   38 1  
    38   12   39 1  
    39   13   40 1  
    40   13   41 1  
    41   14   42 1  
    42   14   43 1  
    43   14   44 1  
@<TRIPOS>SUBSTRUCTURE
     1 SPM         1

