### 
### Created by X-TOOL on Mon Sep 10 21:13:03 2018
### 

@<TRIPOS>MOLECULE
3kwf_ligand
   57    60     1     0     0
SMALL
GAST_HUCK


@<TRIPOS>ATOM
      1 N1         48.7350   51.7550   37.1960 N.am      1 B1Q        -0.2592
      2 C2         48.2640   51.8230   35.8120 C.3       1 B1Q         0.1271
      3 N3         48.1470   50.6300   33.7140 N.4       1 B1Q         0.2499
      4 C4         46.6950   50.9460   33.5510 C.3       1 B1Q         0.0089
      5 C5         49.4710   52.7140   37.7600 C.2       1 B1Q         0.1795
      6 C6         46.3340   51.0010   32.0960 C.ar      1 B1Q        -0.0125
      7 C7         48.4810   50.4660   35.1410 C.3       1 B1Q        -0.0012
      8 C8         46.2830   52.2260   34.3140 C.3       1 B1Q         0.0429
      9 C9         46.7800   52.2400   35.7600 C.3       1 B1Q         0.0111
     10 C10        47.1310   50.3550   31.1400 C.ar      1 B1Q        -0.0499
     11 C11        45.1740   51.6760   31.6670 C.ar      1 B1Q        -0.0407
     12 C12        44.8200   51.7160   30.3100 C.ar      1 B1Q         0.1062
     13 C13        48.4090   50.5870   38.0070 C.3       1 B1Q         0.0419
     14 C14        46.7640   50.3920   29.7960 C.ar      1 B1Q        -0.0456
     15 C15        45.6120   51.0640   29.3700 C.ar      1 B1Q         0.1060
     16 C16        49.6790   52.3580   39.2140 C.3       1 B1Q         0.0444
     17 C17        48.5130   49.3980   32.9940 C.3       1 B1Q        -0.0234
     18 C18        48.7340   51.1670   39.3910 C.3       1 B1Q         0.0245
     19 O19        49.9350   53.7120   37.2250 O.2       1 B1Q        -0.3969
     20 C20        48.3950   49.6020   31.4910 C.3       1 B1Q         0.0116
     21 N21        46.5900   53.5710   36.2940 N.4       1 B1Q         0.2228
     22 O22        43.6840   52.3590   29.8690 O.3       1 B1Q        -0.3310
     23 O23        45.2700   51.0880   28.0280 O.3       1 B1Q        -0.3310
     24 F24        48.2900   49.4930   40.9380 F         1 B1Q        -0.2486
     25 C25        49.3250   50.1300   40.3040 C.3       1 B1Q         0.0969
     26 C26        45.6530   50.0350   27.1280 C.3       1 B1Q         0.0553
     27 C27        43.0620   53.4560   30.5460 C.3       1 B1Q         0.0553
     28 H1         48.8547   52.5794   35.2746 H         1 B1Q         0.0669
     29 H2         48.6839   51.3960   33.3385 H         1 B1Q         0.2050
     30 H3         46.1283   50.1146   33.9955 H         1 B1Q         0.0980
     31 H4         47.8252   49.7100   35.5976 H         1 B1Q         0.0840
     32 H5         49.5304   50.1548   35.2496 H         1 B1Q         0.0840
     33 H6         45.1851   52.2940   34.3191 H         1 B1Q         0.0395
     34 H7         46.7020   53.0977   33.7900 H         1 B1Q         0.0395
     35 H8         46.1909   51.5264   36.3547 H         1 B1Q         0.0878
     36 H9         44.5450   52.1723   32.3971 H         1 B1Q         0.0436
     37 H10        49.0434   49.7226   37.7614 H         1 B1Q         0.0527
     38 H11        47.3503   50.3025   37.9159 H         1 B1Q         0.0527
     39 H12        47.3848   49.8889   29.0636 H         1 B1Q         0.0434
     40 H13        49.3977   53.1922   39.8735 H         1 B1Q         0.0507
     41 H14        50.7229   52.0718   39.4096 H         1 B1Q         0.0507
     42 H15        47.8393   48.5851   33.3026 H         1 B1Q         0.0834
     43 H16        49.5503   49.1287   33.2420 H         1 B1Q         0.0834
     44 H17        47.7995   51.5265   39.8465 H         1 B1Q         0.0370
     45 H18        49.2645   50.1754   31.1372 H         1 B1Q         0.0442
     46 H19        48.3772   48.6200   30.9957 H         1 B1Q         0.0442
     47 H20        46.9127   53.5993   37.2485 H         1 B1Q         0.1998
     48 H21        45.6110   53.8088   36.2632 H         1 B1Q         0.1998
     49 H22        47.1140   54.2323   35.7425 H         1 B1Q         0.1998
     50 H23        49.9782   50.6127   41.0458 H         1 B1Q         0.0620
     51 H24        49.9087   49.4045   39.7184 H         1 B1Q         0.0620
     52 H25        45.2772   50.2603   26.1190 H         1 B1Q         0.0570
     53 H26        45.2251   49.0827   27.4745 H         1 B1Q         0.0570
     54 H27        46.7498   49.9561   27.1015 H         1 B1Q         0.0570
     55 H28        42.1750   53.7797   29.9817 H         1 B1Q         0.0570
     56 H29        43.7736   54.2914   30.6213 H         1 B1Q         0.0570
     57 H30        42.7593   53.1400   31.5552 H         1 B1Q         0.0570
@<TRIPOS>BOND
     1    2    1 1  
     2    1    5 am 
     3    1   13 1  
     4    7    2 1  
     5    2    9 1  
     6    3    4 1  
     7    3    7 1  
     8    3   17 1  
     9    4    6 1  
    10    4    8 1  
    11    5   16 1  
    12    5   19 2  
    13    6   10 ar 
    14    6   11 ar 
    15    8    9 1  
    16    9   21 1  
    17   10   14 ar 
    18   10   20 1  
    19   11   12 ar 
    20   12   15 ar 
    21   12   22 1  
    22   13   18 1  
    23   14   15 ar 
    24   15   23 1  
    25   16   18 1  
    26   17   20 1  
    27   18   25 1  
    28   22   27 1  
    29   23   26 1  
    30   25   24 1  
    31    2   28 1  
    32    3   29 1  
    33    4   30 1  
    34    7   31 1  
    35    7   32 1  
    36    8   33 1  
    37    8   34 1  
    38    9   35 1  
    39   11   36 1  
    40   13   37 1  
    41   13   38 1  
    42   14   39 1  
    43   16   40 1  
    44   16   41 1  
    45   17   42 1  
    46   17   43 1  
    47   18   44 1  
    48   20   45 1  
    49   20   46 1  
    50   21   47 1  
    51   21   48 1  
    52   21   49 1  
    53   25   50 1  
    54   25   51 1  
    55   26   52 1  
    56   26   53 1  
    57   26   54 1  
    58   27   55 1  
    59   27   56 1  
    60   27   57 1  
@<TRIPOS>SUBSTRUCTURE
     1 B1Q         1

