### 
### Created by X-TOOL on Mon Sep 10 21:13:03 2018
### 

@<TRIPOS>MOLECULE
3kxz_ligand
   70    74     1     0     0
SMALL
GAST_HUCK


@<TRIPOS>ATOM
      1 C1        -13.5280    3.2090   -7.3630 C.3       1 925        -0.0178
      2 N1        -13.2620    1.8400   -9.4030 N.4       1 925         0.4016
      3 O1        -14.4060    2.4420   -9.9910 O.3       1 925        -0.3412
      4 C2        -13.3620    1.7760   -7.9400 C.3       1 925         0.0174
      5 N2        -10.3100   -0.5100   -7.8000 N.am      1 925        -0.2826
      6 O2        -11.1590   -1.6510   -6.0920 O.2       1 925        -0.3846
      7 C3        -12.0170    1.1790   -7.5110 C.3       1 925         0.0169
      8 N3         -3.5500    1.9990   -8.5650 N.2       1 925        -0.2937
      9 O3          2.3270   -2.9120   -5.2890 O.3       1 925        -0.3360
     10 C4        -11.6370   -0.1200   -8.2120 C.3       1 925         0.0523
     11 N4         -3.4370    0.3580   -6.8770 N.pl3     1 925        -0.1100
     12 C5        -11.7160    0.0480   -9.7220 C.3       1 925         0.0169
     13 N5         -4.1860   -0.4990   -6.2470 N.2       1 925        -0.2077
     14 C6        -13.0930    0.5980  -10.1130 C.3       1 925         0.0174
     15 N6         -1.6020   -0.2040   -5.6460 N.pl3     1 925        -0.2247
     16 C7        -14.1690   -0.4430   -9.8000 C.3       1 925        -0.0178
     17 C8        -13.1680    0.8620  -11.6310 C.3       1 925        -0.0178
     18 C9        -10.1840   -1.3060   -6.7160 C.2       1 925         0.2052
     19 C10        -8.8210   -1.6550   -6.2860 C.ar      1 925         0.0502
     20 C11        -8.6130   -2.6880   -5.3840 C.ar      1 925        -0.0422
     21 C12        -7.3530   -3.0130   -4.9390 C.ar      1 925        -0.0560
     22 C13        -6.2900   -2.2640   -5.3960 C.ar      1 925        -0.0502
     23 C14        -6.4800   -1.2180   -6.3000 C.ar      1 925        -0.0114
     24 C15        -7.7550   -0.9240   -6.7270 C.ar      1 925        -0.0344
     25 C16        -5.3740   -0.3990   -6.7820 C.2       1 925         0.0213
     26 C17        -5.3810    0.5870   -7.7730 C.2       1 925        -0.0362
     27 C18        -4.1270    1.0580   -7.8170 C.2       1 925         0.1499
     28 C19        -2.3170    2.1920   -8.3200 C.2       1 925        -0.0082
     29 C20        -1.4820    1.5030   -7.3380 C.2       1 925         0.0241
     30 C21        -2.1090    0.5850   -6.6150 C.2       1 925         0.2419
     31 C22        -0.2780   -0.3610   -5.3440 C.ar      1 925         0.0625
     32 C23         0.4940    0.7010   -4.9260 C.ar      1 925        -0.0480
     33 C24         1.8360    0.5290   -4.6520 C.ar      1 925        -0.0793
     34 C25         2.4430   -0.7000   -4.7770 C.ar      1 925        -0.0444
     35 C26         1.6930   -1.7490   -5.1860 C.ar      1 925         0.0786
     36 C27         0.3410   -1.5960   -5.4770 C.ar      1 925        -0.0097
     37 C28       -14.4640    0.9360   -7.2840 C.3       1 925        -0.0178
     38 H1        -13.6025    3.1565   -6.2668 H         1 925         0.0287
     39 H2        -14.4420    3.6651   -7.7712 H         1 925         0.0287
     40 H3        -12.6570    3.8200   -7.6424 H         1 925         0.0287
     41 H4        -12.4583    2.4145   -9.6031 H         1 925         0.2384
     42 H5        -15.1784    1.9357   -9.7686 H         1 925         0.2695
     43 H6         -9.5044   -0.1989   -8.3042 H         1 925         0.1848
     44 H7        -12.0597    0.9834   -6.4294 H         1 925         0.0345
     45 H8        -11.2322    1.9212   -7.7187 H         1 925         0.0345
     46 H9          2.6814   -3.1544   -4.4416 H         1 925         0.2478
     47 H10       -12.3451   -0.9063   -7.9116 H         1 925         0.0559
     48 H11       -11.5616   -0.9275  -10.2064 H         1 925         0.0345
     49 H12       -10.9356    0.7492  -10.0526 H         1 925         0.0345
     50 H13        -2.2760   -0.7389   -5.0799 H         1 925         0.2260
     51 H14       -13.9723   -1.3585  -10.3772 H         1 925         0.0287
     52 H15       -15.1567   -0.0428  -10.0726 H         1 925         0.0287
     53 H16       -14.1518   -0.6764   -8.7252 H         1 925         0.0287
     54 H17       -13.0391   -0.0855  -12.1747 H         1 925         0.0287
     55 H18       -12.3711    1.5625  -11.9212 H         1 925         0.0287
     56 H19       -14.1472    1.2971  -11.8796 H         1 925         0.0287
     57 H20        -9.4641   -3.2527   -5.0211 H         1 925         0.0666
     58 H21        -7.2002   -3.8347   -4.2486 H         1 925         0.0628
     59 H22        -5.2892   -2.4914   -5.0472 H         1 925         0.0656
     60 H23        -7.9144   -0.1052   -7.4193 H         1 925         0.0675
     61 H24        -6.2267    0.9052   -8.3808 H         1 925         0.0207
     62 H25        -1.8249    2.9621   -8.9122 H         1 925         0.0907
     63 H26        -0.4240    1.7268   -7.2096 H         1 925         0.0446
     64 H27         0.0435    1.6803   -4.8113 H         1 925         0.0451
     65 H28         2.4248    1.3807   -4.3313 H         1 925         0.0562
     66 H29         3.4963   -0.8243   -4.5532 H         1 925         0.0452
     67 H30        -0.2353   -2.4511   -5.8114 H         1 925         0.0460
     68 H31       -14.3794    1.0104   -6.1898 H         1 925         0.0287
     69 H32       -14.3548   -0.1151   -7.5895 H         1 925         0.0287
     70 H33       -15.4484    1.3099   -7.6019 H         1 925         0.0287
@<TRIPOS>BOND
     1    4    1 1  
     2    2    3 1  
     3    4    2 1  
     4   14    2 1  
     5    7    4 1  
     6    4   37 1  
     7    5   10 1  
     8   18    5 am 
     9   18    6 2  
    10   10    7 1  
    11   27    8 1  
    12   28    8 2  
    13   35    9 1  
    14   10   12 1  
    15   11   13 1  
    16   11   27 1  
    17   30   11 1  
    18   12   14 1  
    19   13   25 2  
    20   14   16 1  
    21   14   17 1  
    22   15   30 1  
    23   31   15 1  
    24   19   18 1  
    25   19   20 ar 
    26   24   19 ar 
    27   21   20 ar 
    28   22   21 ar 
    29   23   22 ar 
    30   23   24 ar 
    31   25   23 1  
    32   26   25 1  
    33   27   26 2  
    34   29   28 1  
    35   30   29 2  
    36   32   31 ar 
    37   31   36 ar 
    38   33   32 ar 
    39   34   33 ar 
    40   34   35 ar 
    41   35   36 ar 
    42    1   38 1  
    43    1   39 1  
    44    1   40 1  
    45    2   41 1  
    46    3   42 1  
    47    5   43 1  
    48    7   44 1  
    49    7   45 1  
    50    9   46 1  
    51   10   47 1  
    52   12   48 1  
    53   12   49 1  
    54   15   50 1  
    55   16   51 1  
    56   16   52 1  
    57   16   53 1  
    58   17   54 1  
    59   17   55 1  
    60   17   56 1  
    61   20   57 1  
    62   21   58 1  
    63   22   59 1  
    64   24   60 1  
    65   26   61 1  
    66   28   62 1  
    67   29   63 1  
    68   32   64 1  
    69   33   65 1  
    70   34   66 1  
    71   36   67 1  
    72   37   68 1  
    73   37   69 1  
    74   37   70 1  
@<TRIPOS>SUBSTRUCTURE
     1 925         1

