### 
### Created by X-TOOL on Mon Sep 10 21:13:04 2018
### 

@<TRIPOS>MOLECULE
3kyr_ligand
   98   100     1     0     0
SMALL
GAST_HUCK


@<TRIPOS>ATOM
      1 O1         41.4250   12.2060   36.9470 O.2       1 038        -0.3673
      2 O2         39.4540   15.2170   38.2980 O.2       1 038        -0.3906
      3 N3         39.3750   11.8420   37.8010 N.am      1 038        -0.2709
      4 C4         38.4460   14.5730   38.0280 C.2       1 038         0.2287
      5 N7         42.6650   11.1170   39.1770 N.pl3     1 038        -0.1379
      6 C5         38.4300   13.8830   36.6980 C.3       1 038         0.0854
      7 N6         42.8520   10.4920   40.4280 N.2       1 038        -0.0562
      8 C6         38.5150   12.3570   36.7390 C.3       1 038         0.0911
      9 N5         41.6810   10.2110   40.9490 N.2       1 038        -0.1291
     10 C7         40.6950   11.7840   37.8200 C.2       1 038         0.2696
     11 N4         40.7060   10.6660   40.0560 N.2       1 038        -0.1860
     12 C8         41.3390   11.2010   38.9960 C.2       1 038         0.2636
     13 N8         39.4990   14.4370   35.9070 N.4       1 038         0.2394
     14 N2         37.4110   14.5090   38.7620 N.am      1 038        -0.2607
     15 C3         37.3930   15.1730   40.0460 C.3       1 038         0.1334
     16 C2         38.2910   14.4230   40.9910 C.2       1 038         0.2042
     17 O3         38.3360   13.2080   40.9210 O.2       1 038        -0.3944
     18 C9         35.9640   15.1830   40.5660 C.3       1 038        -0.0063
     19 C10        35.4120   13.7870   40.8880 C.3       1 038        -0.0584
     20 C11        35.8780   16.1100   41.7770 C.3       1 038        -0.0584
     21 N1         39.0460   15.1110   41.8580 N.am      1 038        -0.2637
     22 C1         39.9370   14.3730   42.7660 C.3       1 038         0.1311
     23 C19        39.2520   14.1490   44.0610 C.2       1 038         0.2016
     24 O4         38.2260   14.7680   44.2990 O.2       1 038        -0.3945
     25 C12        41.1460   15.2660   42.9850 C.3       1 038        -0.0101
     26 C13        41.9250   15.4750   41.6880 C.3       1 038        -0.0425
     27 C14        42.5760   14.1790   41.1930 C.3       1 038        -0.0625
     28 C18        42.9580   16.5690   41.8900 C.3       1 038        -0.0625
     29 O5         41.5490   12.3690   46.9490 O.3       1 038        -0.3819
     30 O6         40.5160   15.6840   46.8880 O.2       1 038        -0.3324
     31 N9         39.8090   13.2660   44.8880 N.am      1 038        -0.2834
     32 C20        40.5380   13.3340   47.1530 C.3       1 038         0.1721
     33 C21        39.3690   12.9060   46.2450 C.3       1 038         0.0674
     34 C22        40.1990   13.3590   48.6450 C.3       1 038        -0.0050
     35 C23        40.7150   13.7830   51.0430 C.ar      1 038        -0.0431
     36 C24        41.6060   13.4990   52.1060 C.ar      1 038        -0.0603
     37 C25        41.1190   13.3380   53.4200 C.ar      1 038        -0.0686
     38 C26        39.7360   13.4440   53.6940 C.ar      1 038        -0.0687
     39 C27        38.8390   13.7140   52.6440 C.ar      1 038        -0.0686
     40 C28        39.3320   13.8860   51.3310 C.ar      1 038        -0.0603
     41 C29        41.1520   14.6540   46.7870 C.2       1 038         0.2556
     42 C52        41.2390   13.9410   49.6170 C.3       1 038        -0.0174
     43 C36        43.0170   19.4610   45.7350 C.2       1 038         0.0595
     44 O8         41.9710   19.7250   46.4150 O.co2     1 038        -0.5608
     45 O7         43.6670   20.3450   45.1110 O.co2     1 038        -0.5608
     46 C34        43.5130   18.0440   45.6950 C.ar      1 038        -0.0028
     47 C33        42.6670   16.9920   46.1130 C.ar      1 038        -0.0263
     48 C30        43.1660   15.6880   46.0870 C.ar      1 038         0.0712
     49 C31        44.4800   15.4490   45.6650 C.ar      1 038        -0.0378
     50 C32        45.3270   16.4830   45.2600 C.ar      1 038        -0.0714
     51 C35        44.8360   17.8070   45.2760 C.ar      1 038        -0.0625
     52 N10        42.4150   14.6110   46.3940 N.am      1 038        -0.2301
     53 H1         38.9082   11.4905   38.6125 H         1 038         0.1858
     54 H2         43.3993   11.4431   38.5325 H         1 038         0.2756
     55 H3         37.4756   14.1327   36.2114 H         1 038         0.1119
     56 H4         37.5013   11.9573   36.8894 H         1 038         0.0603
     57 H5         38.9082   12.0057   35.7736 H         1 038         0.0603
     58 H6         39.4220   15.4420   35.8949 H         1 038         0.2016
     59 H7         39.4377   14.0839   34.9649 H         1 038         0.2016
     60 H8         40.3853   14.1728   36.3078 H         1 038         0.2016
     61 H9         36.6087   13.9992   38.4515 H         1 038         0.1885
     62 H10        37.7533   16.2067   39.9385 H         1 038         0.0802
     63 H11        35.3285   15.6040   39.7730 H         1 038         0.0343
     64 H12        34.3795   13.8771   41.2566 H         1 038         0.0234
     65 H13        36.0370   13.3147   41.6602 H         1 038         0.0234
     66 H14        35.4239   13.1691   39.9780 H         1 038         0.0234
     67 H15        36.2808   17.0985   41.5114 H         1 038         0.0234
     68 H16        36.4640   15.6860   42.6057 H         1 038         0.0234
     69 H17        34.8273   16.2132   42.0859 H         1 038         0.0234
     70 H18        39.0044   16.1097   41.8872 H         1 038         0.1883
     71 H19        40.2356   13.4110   42.3239 H         1 038         0.0800
     72 H20        41.8075   14.7973   43.7285 H         1 038         0.0315
     73 H21        40.8066   16.2427   43.3602 H         1 038         0.0315
     74 H22        41.2171   15.8095   40.9154 H         1 038         0.0298
     75 H23        43.1241   14.3771   40.2601 H         1 038         0.0232
     76 H24        41.7969   13.4249   41.0075 H         1 038         0.0232
     77 H25        43.2743   13.8047   41.9560 H         1 038         0.0232
     78 H26        42.4594   17.4831   42.2445 H         1 038         0.0232
     79 H27        43.4656   16.7747   40.9361 H         1 038         0.0232
     80 H28        43.6974   16.2419   42.6358 H         1 038         0.0232
     81 H29        42.3020   12.5822   47.4876 H         1 038         0.2079
     82 H30        40.6210   12.7925   44.5468 H         1 038         0.1850
     83 H31        39.1923   11.8231   46.3225 H         1 038         0.0534
     84 H32        38.4498   13.4476   46.5127 H         1 038         0.0534
     85 H33        40.0094   12.3204   48.9538 H         1 038         0.0302
     86 H34        39.2783   13.9498   48.7604 H         1 038         0.0302
     87 H35        42.6678   13.4048   51.9091 H         1 038         0.0557
     88 H36        41.8118   13.1310   54.2276 H         1 038         0.0599
     89 H37        39.3691   13.3181   54.7062 H         1 038         0.0559
     90 H38        37.7758   13.7896   52.8413 H         1 038         0.0599
     91 H39        38.6372   14.1013   50.5273 H         1 038         0.0557
     92 H40        41.3969   15.0070   49.3962 H         1 038         0.0425
     93 H41        42.1904   13.3995   49.5097 H         1 038         0.0425
     94 H42        41.6550   17.1925   46.4458 H         1 038         0.0540
     95 H43        44.8508   14.4305   45.6524 H         1 038         0.0528
     96 H44        46.3412   16.2734   44.9397 H         1 038         0.0585
     97 H45        45.4702   18.6309   44.9693 H         1 038         0.0525
     98 H46        42.8451   13.7113   46.3190 H         1 038         0.2273
@<TRIPOS>BOND
     1   10    1 2  
     2    4    2 2  
     3    8    3 1  
     4    3   10 am 
     5    4    6 1  
     6   14    4 am 
     7    5    7 1  
     8   12    5 1  
     9    6    8 1  
    10    6   13 1  
    11    9    7 2  
    12   11    9 1  
    13   10   12 1  
    14   12   11 2  
    15   15   14 1  
    16   16   15 1  
    17   15   18 1  
    18   16   17 2  
    19   21   16 am 
    20   18   19 1  
    21   18   20 1  
    22   22   21 1  
    23   23   22 1  
    24   22   25 1  
    25   23   24 2  
    26   31   23 am 
    27   25   26 1  
    28   26   27 1  
    29   26   28 1  
    30   32   29 1  
    31   41   30 2  
    32   33   31 1  
    33   32   33 1  
    34   32   34 1  
    35   41   32 1  
    36   34   42 1  
    37   35   36 ar 
    38   35   40 ar 
    39   42   35 1  
    40   36   37 ar 
    41   37   38 ar 
    42   39   38 ar 
    43   40   39 ar 
    44   52   41 am 
    45   43   44 ar 
    46   43   45 ar 
    47   46   43 1  
    48   47   46 ar 
    49   46   51 ar 
    50   48   47 ar 
    51   48   49 ar 
    52   48   52 1  
    53   49   50 ar 
    54   50   51 ar 
    55    3   53 1  
    56    5   54 1  
    57    6   55 1  
    58    8   56 1  
    59    8   57 1  
    60   13   58 1  
    61   13   59 1  
    62   13   60 1  
    63   14   61 1  
    64   15   62 1  
    65   18   63 1  
    66   19   64 1  
    67   19   65 1  
    68   19   66 1  
    69   20   67 1  
    70   20   68 1  
    71   20   69 1  
    72   21   70 1  
    73   22   71 1  
    74   25   72 1  
    75   25   73 1  
    76   26   74 1  
    77   27   75 1  
    78   27   76 1  
    79   27   77 1  
    80   28   78 1  
    81   28   79 1  
    82   28   80 1  
    83   29   81 1  
    84   31   82 1  
    85   33   83 1  
    86   33   84 1  
    87   34   85 1  
    88   34   86 1  
    89   36   87 1  
    90   37   88 1  
    91   38   89 1  
    92   39   90 1  
    93   40   91 1  
    94   42   92 1  
    95   42   93 1  
    96   47   94 1  
    97   49   95 1  
    98   50   96 1  
    99   51   97 1  
   100   52   98 1  
@<TRIPOS>SUBSTRUCTURE
     1 038         1

