### 
### Created by X-TOOL on Mon Sep 10 21:13:03 2018
### 

@<TRIPOS>MOLECULE
3l08_ligand
   53    57     1     0     0
SMALL
GAST_HUCK


@<TRIPOS>ATOM
      1 C1         29.8560   12.0530   20.5470 C.3       1 ZIG         0.0601
      2 C2         24.1620   12.6620   23.4470 C.ar      1 ZIG        -0.0484
      3 C3         28.5740   18.2130   20.5810 C.ar      1 ZIG        -0.0304
      4 C4         22.9230   12.5640   24.0210 C.ar      1 ZIG        -0.0380
      5 C5         28.3430   17.1540   19.7310 C.ar      1 ZIG        -0.0382
      6 C6         20.6740   17.1290   21.0650 C.ar      1 ZIG         0.0015
      7 C7         20.1210   15.4450   23.4580 C.ar      1 ZIG        -0.0204
      8 C8         20.9720   18.2980   20.4160 C.ar      1 ZIG         0.0399
      9 C9         19.8870   14.3340   24.2220 C.ar      1 ZIG         0.0133
     10 C10        23.5420   14.7150   22.4620 C.ar      1 ZIG        -0.0389
     11 C11        26.2460   18.8080   20.5240 C.ar      1 ZIG         0.0071
     12 C12        26.0130   14.0920   20.7490 C.ar      1 ZIG        -0.0267
     13 C13        22.5740   17.6600   22.2640 C.ar      1 ZIG         0.0522
     14 C14        26.8670   13.2660   22.7880 C.ar      1 ZIG        -0.0100
     15 C15        24.4880   13.7340   22.6570 C.ar      1 ZIG        -0.0158
     16 C16        27.5310   19.0240   20.9670 C.ar      1 ZIG         0.1308
     17 C17        21.5430   16.7830   22.0630 C.ar      1 ZIG         0.0462
     18 C18        21.3450   15.5990   22.8540 C.ar      1 ZIG         0.0250
     19 C19        21.9680   13.5310   23.8370 C.ar      1 ZIG         0.0489
     20 C20        27.0570   16.9460   19.2950 C.ar      1 ZIG         0.1430
     21 C21        25.7940   13.7190   22.0570 C.ar      1 ZIG        -0.0169
     22 C22        22.2970   14.6190   23.0510 C.ar      1 ZIG         0.0169
     23 C23        27.2960   13.9970   20.2650 C.ar      1 ZIG         0.1223
     24 C24        26.0160   17.7530   19.6750 C.ar      1 ZIG         0.1576
     25 C25        28.2890   13.5210   21.0810 C.ar      1 ZIG         0.1857
     26 N26        20.7810   13.3730   24.4260 N.ar      1 ZIG        -0.2934
     27 N27        22.0030   19.1080   20.6720 N.ar      1 ZIG        -0.2308
     28 N28        28.1190   13.1500   22.3490 N.ar      1 ZIG        -0.2900
     29 N29        22.7970   18.7910   21.5890 N.ar      1 ZIG        -0.2268
     30 N30        27.6410   14.3510   18.9250 N.am      1 ZIG        -0.1828
     31 O31        27.3530   15.9770   16.9490 O.2       1 ZIG        -0.1458
     32 O32        25.3160   15.2910   18.2890 O.2       1 ZIG        -0.1458
     33 O33        29.5590   13.4380   20.5480 O.3       1 ZIG        -0.3088
     34 F34        27.7720   20.0500   21.7960 F         1 ZIG        -0.1845
     35 F35        24.7820   17.5030   19.2150 F         1 ZIG        -0.1824
     36 S36        26.7260   15.6020   18.2020 S.o2      1 ZIG         0.0881
     37 H          29.8185   11.6739   21.5683 H         1 ZIG         0.0579
     38 H          29.1236   11.5261   19.9354 H         1 ZIG         0.0579
     39 H          30.8536   11.8969   20.1365 H         1 ZIG         0.0579
     40 H          24.8988   11.8776   23.6203 H         1 ZIG         0.0656
     41 H          29.5817   18.4086   20.9476 H         1 ZIG         0.0570
     42 H          22.6900   11.6968   24.6389 H         1 ZIG         0.0649
     43 H          29.1560   16.5008   19.4139 H         1 ZIG         0.0617
     44 H          19.8084   16.5196   20.8053 H         1 ZIG         0.0852
     45 H          19.3447   16.1994   23.3302 H         1 ZIG         0.0730
     46 H          20.3012   18.5970   19.6106 H         1 ZIG         0.1028
     47 H          18.9085   14.2316   24.6912 H         1 ZIG         0.0860
     48 H          23.7782   15.5759   21.8365 H         1 ZIG         0.0647
     49 H          25.4303   19.4586   20.8393 H         1 ZIG         0.0590
     50 H          25.1977   14.4498   20.1202 H         1 ZIG         0.0553
     51 H          23.2836   17.4111   23.0531 H         1 ZIG         0.1071
     52 H          26.6754   12.9754   23.8209 H         1 ZIG         0.0648
     53 H          28.3953   13.8812   18.4243 H         1 ZIG         0.2154
@<TRIPOS>BOND
     1   33    1 1  
     2    2    4 ar 
     3   15    2 ar 
     4    5    3 ar 
     5    3   16 ar 
     6    4   19 ar 
     7   20    5 ar 
     8    6    8 ar 
     9   17    6 ar 
    10    7    9 ar 
    11   18    7 ar 
    12    8   27 ar 
    13   26    9 ar 
    14   15   10 ar 
    15   10   22 ar 
    16   11   16 ar 
    17   24   11 ar 
    18   12   21 ar 
    19   23   12 ar 
    20   17   13 ar 
    21   13   29 ar 
    22   21   14 ar 
    23   28   14 ar 
    24   21   15 1  
    25   16   34 1  
    26   18   17 1  
    27   22   18 ar 
    28   22   19 ar 
    29   19   26 ar 
    30   20   24 ar 
    31   36   20 1  
    32   23   25 ar 
    33   30   23 1  
    34   24   35 1  
    35   25   28 ar 
    36   25   33 1  
    37   29   27 ar 
    38   30   36 am 
    39   36   31 2  
    40   36   32 2  
    41    1   37 1  
    42    1   38 1  
    43    1   39 1  
    44    2   40 1  
    45    3   41 1  
    46    4   42 1  
    47    5   43 1  
    48    6   44 1  
    49    7   45 1  
    50    8   46 1  
    51    9   47 1  
    52   10   48 1  
    53   11   49 1  
    54   12   50 1  
    55   13   51 1  
    56   14   52 1  
    57   30   53 1  
@<TRIPOS>SUBSTRUCTURE
     1 ZIG         1

