### 
### Created by X-TOOL on Mon Sep 10 21:13:03 2018
### 

@<TRIPOS>MOLECULE
3l0e_ligand
   59    62     1     0     0
SMALL
GAST_HUCK


@<TRIPOS>ATOM
      1 C1          9.9750  -29.3050   -4.6910 C.3       1 G58         0.0475
      2 F1         15.1080  -34.8390   -5.4830 F         1 G58        -0.1890
      3 N1         10.2330  -30.6340   -4.1750 N.pl3     1 G58        -0.2532
      4 O1         12.1660  -32.3750   -0.7680 O.2       1 G58        -0.1533
      5 S1         11.6480  -33.3010   -1.7660 S.o2      1 G58         0.0683
      6 CL1        15.8840  -33.8540   -0.6030 Cl        1 G58        -0.0783
      7 C2          9.8280  -31.8050   -4.7520 C.2       1 G58         0.0989
      8 N2         10.2220  -32.8430   -4.0520 N.2       1 G58        -0.3035
      9 O2         10.5200  -34.1590   -1.4570 O.2       1 G58        -0.1533
     10 S2         14.1060  -44.0490   -4.3380 S.o2      1 G58        -0.0061
     11 C3         10.9110  -32.3020   -2.9920 C.2       1 G58         0.1477
     12 N3         12.9630  -34.2070   -2.4950 N.am      1 G58        -0.2148
     13 O3         15.0270  -44.8380   -5.1370 O.2       1 G58        -0.1696
     14 C4         10.9310  -30.9260   -3.0420 C.2       1 G58         0.0626
     15 O4         13.4850  -44.5810   -3.1360 O.2       1 G58        -0.1696
     16 C5         12.4590  -35.3040   -3.3680 C.3       1 G58         0.0656
     17 C6         13.1820  -36.6040   -3.2700 C.ar      1 G58        -0.0232
     18 C7         13.9010  -36.9920   -2.1600 C.ar      1 G58        -0.0574
     19 C8         14.5530  -38.2030   -2.1410 C.ar      1 G58        -0.0600
     20 C9         14.4900  -39.0460   -3.2250 C.ar      1 G58        -0.0241
     21 C10        13.7640  -38.6520   -4.3260 C.ar      1 G58        -0.0600
     22 C11        13.1180  -37.4410   -4.3540 C.ar      1 G58        -0.0574
     23 C12        15.1450  -40.3350   -3.2390 C.ar      1 G58        -0.0203
     24 C13        16.4410  -40.5170   -2.8060 C.ar      1 G58        -0.0556
     25 C14        17.0300  -41.7630   -2.8310 C.ar      1 G58        -0.0605
     26 C15        16.3330  -42.8600   -3.2920 C.ar      1 G58        -0.0378
     27 C16        15.0420  -42.6620   -3.7380 C.ar      1 G58         0.0874
     28 C17        14.4440  -41.4230   -3.7130 C.ar      1 G58        -0.0308
     29 C18        12.7380  -43.4380   -5.2570 C.3       1 G58         0.0596
     30 C19        14.1880  -33.5040   -3.0990 C.3       1 G58         0.0667
     31 C20        15.4540  -34.3610   -3.2000 C.ar      1 G58         0.0235
     32 C21        15.8410  -34.9860   -4.3710 C.ar      1 G58         0.1352
     33 C22        16.9670  -35.7810   -4.4420 C.ar      1 G58        -0.0347
     34 C23        17.7590  -35.9740   -3.3330 C.ar      1 G58        -0.0700
     35 C24        17.4100  -35.3630   -2.1570 C.ar      1 G58        -0.0586
     36 C25        16.2770  -34.5810   -2.1120 C.ar      1 G58         0.0412
     37 H1          9.3880  -29.3793   -5.6183 H         1 G58         0.0589
     38 H2         10.9301  -28.8014   -4.9010 H         1 G58         0.0589
     39 H3          9.4109  -28.7253   -3.9455 H         1 G58         0.0589
     40 H4          9.2523  -31.8686   -5.6742 H         1 G58         0.1215
     41 H5         11.3954  -30.2341   -2.3409 H         1 G58         0.0880
     42 H6         12.5245  -34.9607   -4.4110 H         1 G58         0.0646
     43 H7         11.4058  -35.4846   -3.1069 H         1 G58         0.0646
     44 H8         13.9530  -36.3387   -1.2965 H         1 G58         0.0561
     45 H9         15.1207  -38.4947   -1.2648 H         1 G58         0.0609
     46 H10        13.7013  -39.3092   -5.1858 H         1 G58         0.0609
     47 H11        12.5571  -37.1464   -5.2336 H         1 G58         0.0561
     48 H12        17.0057  -39.6671   -2.4402 H         1 G58         0.0615
     49 H13        18.0505  -41.8816   -2.4851 H         1 G58         0.0616
     50 H14        16.7843  -43.8455   -3.3037 H         1 G58         0.0629
     51 H15        13.4257  -41.3031   -4.0647 H         1 G58         0.0633
     52 H16        13.0957  -43.0049   -6.2028 H         1 G58         0.0468
     53 H17        12.2197  -42.6639   -4.6721 H         1 G58         0.0468
     54 H18        12.0425  -44.2628   -5.4714 H         1 G58         0.0468
     55 H19        14.4196  -32.6289   -2.4740 H         1 G58         0.0637
     56 H20        13.9222  -33.1705   -4.1130 H         1 G58         0.0637
     57 H21        17.2299  -36.2576   -5.3794 H         1 G58         0.0587
     58 H22        18.6434  -36.5984   -3.3888 H         1 G58         0.0549
     59 H23        18.0199  -35.4939   -1.2705 H         1 G58         0.0571
@<TRIPOS>BOND
     1    3    1 1  
     2   32    2 1  
     3    3    7 1  
     4   14    3 1  
     5    5    4 2  
     6    5    9 2  
     7    5   11 1  
     8   12    5 am 
     9   36    6 1  
    10    8    7 2  
    11   11    8 1  
    12   10   13 2  
    13   10   15 2  
    14   27   10 1  
    15   10   29 1  
    16   11   14 2  
    17   12   16 1  
    18   30   12 1  
    19   16   17 1  
    20   17   18 ar 
    21   17   22 ar 
    22   18   19 ar 
    23   19   20 ar 
    24   21   20 ar 
    25   20   23 1  
    26   22   21 ar 
    27   23   24 ar 
    28   23   28 ar 
    29   24   25 ar 
    30   25   26 ar 
    31   27   26 ar 
    32   28   27 ar 
    33   31   30 1  
    34   31   32 ar 
    35   31   36 ar 
    36   32   33 ar 
    37   33   34 ar 
    38   34   35 ar 
    39   35   36 ar 
    40    1   37 1  
    41    1   38 1  
    42    1   39 1  
    43    7   40 1  
    44   14   41 1  
    45   16   42 1  
    46   16   43 1  
    47   18   44 1  
    48   19   45 1  
    49   21   46 1  
    50   22   47 1  
    51   24   48 1  
    52   25   49 1  
    53   26   50 1  
    54   28   51 1  
    55   29   52 1  
    56   29   53 1  
    57   29   54 1  
    58   30   55 1  
    59   30   56 1  
    60   33   57 1  
    61   34   58 1  
    62   35   59 1  
@<TRIPOS>SUBSTRUCTURE
     1 G58         1

