### 
### Created by X-TOOL on Mon Sep 10 21:13:03 2018
### 

@<TRIPOS>MOLECULE
3l0v_ligand
   35    37     1     0     0
SMALL
GAST_HUCK


@<TRIPOS>ATOM
      1 N1          6.2900    8.8290   23.9920 N.am      1 724        -0.1760
      2 N2          7.7050    8.7080   24.1490 N.pl3     1 724        -0.2215
      3 C3          5.5620    8.8450   25.1420 C.2       1 724         0.2172
      4 N4          7.6460   11.7440   23.3250 N.am      1 724        -0.1827
      5 C5          7.3290   10.9500   22.2400 C.2       1 724         0.2544
      6 C6          5.8300   10.5170   22.3130 C.3       1 724         0.1579
      7 N7          5.3970   11.3740   23.4450 N.am      1 724        -0.2552
      8 C8          6.4560   12.0930   24.0150 C.2       1 724         0.2874
      9 O9          6.4030   12.9710   24.8730 O.2       1 724        -0.3912
     10 O10         8.1130   10.5040   21.4200 O.2       1 724        -0.3313
     11 C11         5.0900   10.8890   21.0080 C.3       1 724        -0.0298
     12 C12         5.7180    8.9770   22.6910 C.3       1 724         0.0903
     13 C13         6.5750    8.7710   26.1830 C.ar      1 724         0.0627
     14 C14         7.8350    8.6870   25.5340 C.ar      1 724         0.0723
     15 C15         9.0210    8.5940   26.2540 C.ar      1 724        -0.0438
     16 C16         8.8980    8.6060   27.6310 C.ar      1 724        -0.0394
     17 C17         7.6060    8.6980   28.2670 C.ar      1 724         0.0828
     18 C18         6.4290    8.7830   27.5240 C.ar      1 724        -0.0244
     19 O19         4.3420    8.9300   25.2740 O.2       1 724        -0.3900
     20 O20         7.3530    8.7050   29.5950 O.3       1 724        -0.3287
     21 C21         8.3710    8.2080   30.4920 C.3       1 724         0.0566
     22 H1          8.4368    8.6512   23.4264 H         1 724         0.2058
     23 H2          8.5692   12.0283   23.5837 H         1 724         0.2259
     24 H3          4.4517   11.4319   23.7661 H         1 724         0.1840
     25 H4          5.4343   10.2361   20.1924 H         1 724         0.0242
     26 H5          5.3020   11.9377   20.7524 H         1 724         0.0242
     27 H6          4.0072   10.7579   21.1503 H         1 724         0.0242
     28 H7          4.6630    8.6659   22.7034 H         1 724         0.0556
     29 H8          6.2717    8.3669   21.9622 H         1 724         0.0556
     30 H9          9.9851    8.5167   25.7645 H         1 724         0.0505
     31 H10         9.7894    8.5451   28.2448 H         1 724         0.0550
     32 H11         5.4555    8.8544   27.9955 H         1 724         0.0557
     33 H12         8.0129    8.2812   31.5295 H         1 724         0.0572
     34 H13         9.2859    8.8078   30.3767 H         1 724         0.0572
     35 H14         8.5891    7.1567   30.2527 H         1 724         0.0572
@<TRIPOS>BOND
     1    1    2 1  
     2    1    3 am 
     3   12    1 1  
     4    2   14 1  
     5    3   13 1  
     6    3   19 2  
     7    5    4 am 
     8    4    8 am 
     9    6    5 1  
    10    5   10 2  
    11    6    7 1  
    12    6   11 1  
    13    6   12 1  
    14    7    8 am 
    15    8    9 2  
    16   13   14 ar 
    17   13   18 ar 
    18   14   15 ar 
    19   15   16 ar 
    20   16   17 ar 
    21   17   18 ar 
    22   17   20 1  
    23   20   21 1  
    24    2   22 1  
    25    4   23 1  
    26    7   24 1  
    27   11   25 1  
    28   11   26 1  
    29   11   27 1  
    30   12   28 1  
    31   12   29 1  
    32   15   30 1  
    33   16   31 1  
    34   18   32 1  
    35   21   33 1  
    36   21   34 1  
    37   21   35 1  
@<TRIPOS>SUBSTRUCTURE
     1 724         1

