### 
### Created by X-TOOL on Fri Sep 26 17:34:47 2014
### 

@<TRIPOS>MOLECULE
3l1n_ligand
   49    48     1     0     0
SMALL
GAST_HUCK


@<TRIPOS>ATOM
      1 C1          8.0240   16.1360   37.0170 C.2       1 PLM         0.0348
      2 O1          8.8030   15.2590   37.4570 O.co2     1 PLM        -0.5690
      3 O2          8.3200   16.7100   35.9460 O.co2     1 PLM        -0.5690
      4 C2          6.7390   16.4880   37.7360 C.3       1 PLM         0.0002
      5 C3          6.9460   16.6960   39.2350 C.3       1 PLM        -0.0414
      6 C4          5.6200   17.0240   39.9190 C.3       1 PLM        -0.0516
      7 C5          5.7750   17.3450   41.4050 C.3       1 PLM        -0.0530
      8 C6          5.4300   16.1420   42.2780 C.3       1 PLM        -0.0531
      9 C7          5.2610   16.5080   43.7500 C.3       1 PLM        -0.0531
     10 C8          5.1260   15.2610   44.6200 C.3       1 PLM        -0.0531
     11 C9          5.2690   15.5870   46.1040 C.3       1 PLM        -0.0531
     12 CA          4.6520   14.5100   46.9900 C.3       1 PLM        -0.0531
     13 CB          4.7630   14.8790   48.4690 C.3       1 PLM        -0.0531
     14 CC          3.5780   15.7180   48.9460 C.3       1 PLM        -0.0531
     15 CD          2.5850   14.8820   49.7490 C.3       1 PLM        -0.0531
     16 CE          1.3630   15.6860   50.1790 C.3       1 PLM        -0.0533
     17 CF          0.4470   14.8510   51.0670 C.3       1 PLM        -0.0559
     18 CG         -0.7340   15.6630   51.5840 C.3       1 PLM        -0.0653
     19 H1          6.0175   15.6707   37.5896 H         1 PLM         0.0430
     20 H2          6.3354   17.4154   37.3036 H         1 PLM         0.0430
     21 H3          7.6490   17.5275   39.3912 H         1 PLM         0.0283
     22 H4          7.3617   15.7770   39.6738 H         1 PLM         0.0283
     23 H5          4.9494   16.1581   39.8161 H         1 PLM         0.0266
     24 H6          5.1735   17.8953   39.4175 H         1 PLM         0.0266
     25 H7          5.1034   18.1773   41.6625 H         1 PLM         0.0265
     26 H8          6.8165   17.6405   41.5998 H         1 PLM         0.0265
     27 H9          6.2384   15.4011   42.1908 H         1 PLM         0.0265
     28 H10         4.4892   15.7026   41.9150 H         1 PLM         0.0265
     29 H11         4.3570   17.1242   43.8645 H         1 PLM         0.0265
     30 H12         6.1399   17.0814   44.0798 H         1 PLM         0.0265
     31 H13         5.9091   14.5424   44.3363 H         1 PLM         0.0265
     32 H14         4.1366   14.8121   44.4479 H         1 PLM         0.0265
     33 H15         4.7663   16.5441   46.3070 H         1 PLM         0.0265
     34 H16         6.3383   15.6758   46.3462 H         1 PLM         0.0265
     35 H17         5.1774   13.5591   46.8173 H         1 PLM         0.0265
     36 H18         3.5899   14.3950   46.7279 H         1 PLM         0.0265
     37 H19         5.6882   15.4539   48.6221 H         1 PLM         0.0265
     38 H20         4.8036   13.9539   49.0627 H         1 PLM         0.0265
     39 H21         3.0634   16.1396   48.0700 H         1 PLM         0.0265
     40 H22         3.9516   16.5353   49.5803 H         1 PLM         0.0265
     41 H23         3.0906   14.4998   50.6480 H         1 PLM         0.0265
     42 H24         2.2516   14.0371   49.1286 H         1 PLM         0.0265
     43 H25         0.8068   16.0021   49.2842 H         1 PLM         0.0265
     44 H26         1.6943   16.5739   50.7374 H         1 PLM         0.0265
     45 H27         1.0257   14.4785   51.9250 H         1 PLM         0.0263
     46 H28         0.0657   13.9995   50.4844 H         1 PLM         0.0263
     47 H29        -1.3676   15.0256   52.2182 H         1 PLM         0.0230
     48 H30        -1.3235   16.0353   50.7332 H         1 PLM         0.0230
     49 H31        -0.3635   16.5143   52.1739 H         1 PLM         0.0230
@<TRIPOS>BOND
     1    1    2 ar 
     2    1    3 ar 
     3    1    4 1  
     4    4    5 1  
     5    5    6 1  
     6    6    7 1  
     7    7    8 1  
     8    8    9 1  
     9    9   10 1  
    10   10   11 1  
    11   11   12 1  
    12   12   13 1  
    13   13   14 1  
    14   14   15 1  
    15   15   16 1  
    16   16   17 1  
    17   17   18 1  
    18    4   19 1  
    19    4   20 1  
    20    5   21 1  
    21    5   22 1  
    22    6   23 1  
    23    6   24 1  
    24    7   25 1  
    25    7   26 1  
    26    8   27 1  
    27    8   28 1  
    28    9   29 1  
    29    9   30 1  
    30   10   31 1  
    31   10   32 1  
    32   11   33 1  
    33   11   34 1  
    34   12   35 1  
    35   12   36 1  
    36   13   37 1  
    37   13   38 1  
    38   14   39 1  
    39   14   40 1  
    40   15   41 1  
    41   15   42 1  
    42   16   43 1  
    43   16   44 1  
    44   17   45 1  
    45   17   46 1  
    46   18   47 1  
    47   18   48 1  
    48   18   49 1  
@<TRIPOS>SUBSTRUCTURE
     1 PLM         1

