### 
### Created by X-TOOL on Mon Sep 10 21:13:03 2018
### 

@<TRIPOS>MOLECULE
3l1s_ligand
   40    42     1     0     0
SMALL
GAST_HUCK


@<TRIPOS>ATOM
      1 C1         35.0880   31.5500   56.7030 C.3       1 Z92         0.0570
      2 O2         35.3480   32.8750   56.3420 O.3       1 Z92        -0.3250
      3 C3         36.1030   33.0150   55.2400 C.ar      1 Z92         0.1190
      4 C4         36.9540   34.0700   55.1670 C.ar      1 Z92        -0.0417
      5 C5         37.7400   34.2970   54.0820 C.ar      1 Z92        -0.0755
      6 C6         37.6690   33.4320   53.0340 C.ar      1 Z92        -0.0309
      7 C7         36.8130   32.3630   53.1030 C.ar      1 Z92        -0.0362
      8 C8         36.0350   32.1470   54.1930 C.ar      1 Z92         0.1183
      9 O9         35.1800   31.1190   54.2560 O.3       1 Z92        -0.3253
     10 C10        35.3560   29.9580   53.4920 C.3       1 Z92         0.0568
     11 C11        38.4900   33.6150   51.8350 C.2       1 Z92         0.0810
     12 N12        38.5270   32.7660   50.8960 N.2       1 Z92        -0.1915
     13 N13        39.3500   33.1310   49.8740 N.am      1 Z92        -0.1719
     14 C14        39.8590   34.2770   50.1570 C.2       1 Z92         0.2635
     15 O15        40.6190   34.9300   49.5580 O.2       1 Z92        -0.3685
     16 C16        39.3840   34.6780   51.4030 C.2       1 Z92         0.1655
     17 N17        39.7510   35.8170   51.8280 N.2       1 Z92        -0.1569
     18 N18        39.4260   36.2440   52.9300 N.pl3     1 Z92        -0.1993
     19 C19        39.8220   37.5140   53.2270 C.ar      1 Z92         0.0823
     20 C20        39.6000   37.9010   54.5070 C.ar      1 Z92        -0.0348
     21 C21        39.9300   39.1540   54.8660 C.ar      1 Z92        -0.0567
     22 C22        40.4480   40.0280   53.9730 C.ar      1 Z92         0.0286
     23 CL23       40.7770   41.5980   54.5980 Cl        1 Z92        -0.0808
     24 C24        40.6620   39.6500   52.6800 C.ar      1 Z92        -0.0567
     25 C25        40.3400   38.3810   52.2970 C.ar      1 Z92        -0.0348
     26 H          34.5597   31.0505   55.8909 H         1 Z92         0.0573
     27 H          36.0296   31.0359   56.8961 H         1 Z92         0.0573
     28 H          34.4727   31.5339   57.6026 H         1 Z92         0.0573
     29 H          37.0089   34.7600   56.0091 H         1 Z92         0.0511
     30 H          38.4131   35.1538   54.0518 H         1 Z92         0.0487
     31 H          36.7564   31.6710   52.2628 H         1 Z92         0.0489
     32 H          35.3484   30.2167   52.4332 H         1 Z92         0.0573
     33 H          36.3102   29.4974   53.7479 H         1 Z92         0.0573
     34 H          34.5459   29.2598   53.7026 H         1 Z92         0.0573
     35 H          39.5313   32.5885   49.0295 H         1 Z92         0.2531
     36 H          38.8888   35.6800   53.5886 H         1 Z92         0.2410
     37 H          39.1635   37.2114   55.2295 H         1 Z92         0.0544
     38 H          39.7770   39.4719   55.8973 H         1 Z92         0.0595
     39 H          41.0848   40.3528   51.9621 H         1 Z92         0.0595
     40 H          40.4919   38.0597   51.2666 H         1 Z92         0.0544
@<TRIPOS>BOND
     1    1    2 1  
     2    2    3 1  
     3    3    4 ar 
     4    3    8 ar 
     5    4    5 ar 
     6    5    6 ar 
     7    6    7 ar 
     8    6   11 1  
     9    7    8 ar 
    10    8    9 1  
    11    9   10 1  
    12   11   12 2  
    13   11   16 1  
    14   12   13 1  
    15   13   14 am 
    16   14   15 2  
    17   14   16 1  
    18   16   17 2  
    19   17   18 1  
    20   18   19 1  
    21   19   20 ar 
    22   19   25 ar 
    23   20   21 ar 
    24   21   22 ar 
    25   22   23 1  
    26   22   24 ar 
    27   24   25 ar 
    28    1   26 1  
    29    1   27 1  
    30    1   28 1  
    31    4   29 1  
    32    5   30 1  
    33    7   31 1  
    34   10   32 1  
    35   10   33 1  
    36   10   34 1  
    37   13   35 1  
    38   18   36 1  
    39   20   37 1  
    40   21   38 1  
    41   24   39 1  
    42   25   40 1  
@<TRIPOS>SUBSTRUCTURE
     1 Z92         1

