### 
### Created by X-TOOL on Mon Sep 10 21:13:04 2018
### 

@<TRIPOS>MOLECULE
3l38_ligand
   53    57     1     0     0
SMALL
GAST_HUCK


@<TRIPOS>ATOM
      1 C1         17.9670  -11.5500   18.8840 C.ar      1 879        -0.0650
      2 N1          9.5500   -2.6170   13.6260 N.ar      1 879        -0.2717
      3 O1          8.9010   -5.8380   15.2770 O.3       1 879        -0.2443
      4 CL1        14.9330  -12.1630   15.6050 Cl        1 879        -0.0727
      5 C2         18.2990  -12.2610   17.7330 C.ar      1 879        -0.0649
      6 N2          9.1510   -2.2870   15.9810 N.ar      1 879        -0.2717
      7 C3         15.7650   -6.2060   18.2340 C.ar      1 879        -0.0614
      8 N3         15.4440   -6.9370   15.5770 N.ar      1 879        -0.2840
      9 C4         16.6890  -11.0150   19.0400 C.ar      1 879        -0.0565
     10 N4         13.8380   -9.6860   17.3480 N.pl3     1 879        -0.2540
     11 C5         12.0910   -7.1410   16.6490 C.ar      1 879        -0.0615
     12 N5         16.3060   -4.8580   14.8630 N.pl3     1 879        -0.3238
     13 C6         10.3130   -8.7400   16.9510 C.ar      1 879        -0.0615
     14 C7         11.2010   -6.2550   16.0280 C.ar      1 879        -0.0283
     15 C8          9.4210   -7.8640   16.3340 C.ar      1 879        -0.0283
     16 C9         17.3520  -12.4440   16.7270 C.ar      1 879        -0.0513
     17 C10        12.3000  -10.1120   18.9000 C.2       1 879        -0.0690
     18 C11        13.4370  -10.9050   19.1700 C.2       1 879        -0.0687
     19 C12        15.2440   -7.4540   17.9170 C.ar      1 879        -0.0445
     20 C13        16.1270   -5.3260   17.2190 C.ar      1 879        -0.0243
     21 C14         9.3800   -3.9420   13.8190 C.ar      1 879         0.0630
     22 C15         8.9930   -3.6200   16.1070 C.ar      1 879         0.0630
     23 C16         9.4260   -1.8600   14.7340 C.ar      1 879         0.0790
     24 C17        11.6550   -8.3930   17.1190 C.ar      1 879        -0.0092
     25 C18        15.7260  -11.1920   18.0360 C.ar      1 879         0.0104
     26 C19         9.8620   -6.6260   15.8730 C.ar      1 879         0.1190
     27 C20         9.0950   -4.5030   15.0500 C.ar      1 879         0.1694
     28 C21        16.0710  -11.9090   16.8800 C.ar      1 879         0.0450
     29 C22        12.5530   -9.3550   17.7670 C.2       1 879         0.0602
     30 C23        14.3850  -10.6300   18.1990 C.2       1 879         0.0638
     31 C24        15.0960   -7.7830   16.5760 C.ar      1 879         0.0424
     32 C25        15.9510   -5.7220   15.8940 C.ar      1 879         0.0995
     33 C26        14.5350   -9.1240   16.1930 C.3       1 879         0.0974
     34 H          18.7114  -11.4110   19.6680 H         1 879         0.0609
     35 H          19.3009  -12.6748   17.6190 H         1 879         0.0587
     36 H          15.8902   -5.9163   19.2773 H         1 879         0.0678
     37 H          16.4381  -10.4587   19.9431 H         1 879         0.0592
     38 H          13.1362   -6.8561   16.7697 H         1 879         0.0581
     39 H          16.6932   -3.9392   15.0781 H         1 879         0.1765
     40 H          16.1791   -5.1433   13.8920 H         1 879         0.1765
     41 H           9.9585   -9.7075   17.3065 H         1 879         0.0581
     42 H          11.5490   -5.2863   15.6693 H         1 879         0.0555
     43 H           8.3759   -8.1487   16.2121 H         1 879         0.0555
     44 H          17.6095  -13.0013   15.8263 H         1 879         0.0613
     45 H          11.3796  -10.0977   19.4837 H         1 879         0.0336
     46 H          13.5484  -11.6081   19.9955 H         1 879         0.0354
     47 H          14.9589   -8.1565   18.7001 H         1 879         0.0535
     48 H          16.5404   -4.3455   17.4553 H         1 879         0.0548
     49 H           9.4723   -4.6049   12.9587 H         1 879         0.0876
     50 H           8.7730   -4.0223   17.0959 H         1 879         0.0876
     51 H           9.5631   -0.7861   14.6070 H         1 879         0.1035
     52 H          13.8411   -9.0114   15.3599 H         1 879         0.0802
     53 H          15.3419   -9.7898   15.8869 H         1 879         0.0802
@<TRIPOS>BOND
     1    1    5 ar 
     2    9    1 ar 
     3   21    2 ar 
     4    2   23 ar 
     5   26    3 1  
     6    3   27 1  
     7   28    4 1  
     8   16    5 ar 
     9   22    6 ar 
    10    6   23 ar 
    11   19    7 ar 
    12    7   20 ar 
    13   31    8 ar 
    14    8   32 ar 
    15   25    9 ar 
    16   10   29 1  
    17   10   30 1  
    18   33   10 1  
    19   11   14 ar 
    20   24   11 ar 
    21   32   12 1  
    22   13   15 ar 
    23   24   13 ar 
    24   14   26 ar 
    25   15   26 ar 
    26   28   16 ar 
    27   18   17 1  
    28   29   17 2  
    29   30   18 2  
    30   31   19 ar 
    31   32   20 ar 
    32   27   21 ar 
    33   27   22 ar 
    34   29   24 1  
    35   25   28 ar 
    36   30   25 1  
    37   31   33 1  
    38    1   34 1  
    39    5   35 1  
    40    7   36 1  
    41    9   37 1  
    42   11   38 1  
    43   12   39 1  
    44   12   40 1  
    45   13   41 1  
    46   14   42 1  
    47   15   43 1  
    48   16   44 1  
    49   17   45 1  
    50   18   46 1  
    51   19   47 1  
    52   20   48 1  
    53   21   49 1  
    54   22   50 1  
    55   23   51 1  
    56   33   52 1  
    57   33   53 1  
@<TRIPOS>SUBSTRUCTURE
     1 879         1

