### 
### Created by X-TOOL on Mon Sep 10 21:13:03 2018
### 

@<TRIPOS>MOLECULE
3l3a_ligand
   55    58     1     0     0
SMALL
GAST_HUCK


@<TRIPOS>ATOM
      1 C1          9.8340   -1.6630   13.3870 C.1       1 625         0.0898
      2 N1         10.4770   -1.5020   12.4290 N.1       1 625        -0.3036
      3 O1          9.3100   -5.4120   15.1150 O.3       1 625        -0.3180
      4 CL1        15.1490  -12.3300   15.4850 Cl        1 625        -0.0727
      5 C2         17.9380  -11.5770   18.9630 C.ar      1 625        -0.0651
      6 N2         15.4710   -6.9100   15.4190 N.ar      1 625        -0.2840
      7 C3         18.3370  -12.3510   17.8720 C.ar      1 625        -0.0650
      8 N3         13.9250   -9.6470   17.1980 N.pl3     1 625        -0.2542
      9 C4         15.5930   -6.0930   18.0760 C.ar      1 625        -0.0614
     10 N4         16.2720   -4.8310   14.7030 N.pl3     1 625        -0.3238
     11 C5         16.6620  -11.0170   19.0040 C.ar      1 625        -0.0566
     12 C6         12.2630   -7.0830   16.4450 C.ar      1 625        -0.0625
     13 C7         10.3880   -8.5330   16.8530 C.ar      1 625        -0.0625
     14 C8         11.4210   -6.1480   15.8380 C.ar      1 625        -0.0334
     15 C9          9.5410   -7.5960   16.2450 C.ar      1 625        -0.0334
     16 C10        17.4610  -12.5670   16.8100 C.ar      1 625        -0.0513
     17 C11        12.3710  -10.0190   18.7440 C.2       1 625        -0.0693
     18 C12        13.4860  -10.8390   19.0300 C.2       1 625        -0.0689
     19 C13        15.1540   -7.3710   17.7610 C.ar      1 625        -0.0445
     20 C14        15.9720   -5.2250   17.0560 C.ar      1 625        -0.0243
     21 C15        11.7650   -8.2860   16.9620 C.ar      1 625        -0.0098
     22 C16        15.7650  -11.2220   17.9430 C.ar      1 625         0.0102
     23 C17        10.0480   -6.3980   15.7300 C.ar      1 625         0.0909
     24 C18        16.1770  -12.0070   16.8430 C.ar      1 625         0.0450
     25 C19        12.6440   -9.2720   17.6090 C.2       1 625         0.0598
     26 C20        14.4410  -10.6030   18.0600 C.2       1 625         0.0635
     27 C21        15.1120   -7.7410   16.4220 C.ar      1 625         0.0424
     28 C22        15.8930   -5.6690   15.7380 C.ar      1 625         0.0995
     29 C23         9.0210   -1.8220   14.6080 C.3       1 625         0.0752
     30 C24        14.6410   -9.1140   16.0470 C.3       1 625         0.0974
     31 C25         8.4410   -3.2250   14.7660 C.3       1 625        -0.0013
     32 C26         9.2860   -4.1000   15.6890 C.3       1 625         0.0725
     33 H1         18.6254  -11.4102   19.7844 H         1 625         0.0609
     34 H2         19.3302  -12.7849   17.8509 H         1 625         0.0586
     35 H3         15.6405   -5.7724   19.1104 H         1 625         0.0678
     36 H4         16.5998   -3.8761   14.9072 H         1 625         0.1765
     37 H5         16.2261   -5.1625   13.7289 H         1 625         0.1765
     38 H6         16.3610  -10.4211   19.8580 H         1 625         0.0592
     39 H7         13.3240   -6.8732   16.5175 H         1 625         0.0580
     40 H8          9.9755   -9.4567   17.2425 H         1 625         0.0580
     41 H9         11.8331   -5.2241   15.4486 H         1 625         0.0543
     42 H10         8.4793   -7.8023   16.1729 H         1 625         0.0543
     43 H11        17.7717  -13.1660   15.9616 H         1 625         0.0613
     44 H12        11.4483   -9.9804   19.3211 H         1 625         0.0333
     45 H13        13.5762  -11.5323   19.8650 H         1 625         0.0354
     46 H14        14.8517   -8.0627   18.5389 H         1 625         0.0535
     47 H15        16.3214   -4.2242   17.2826 H         1 625         0.0548
     48 H16         8.1899   -1.1024   14.5708 H         1 625         0.0557
     49 H17         9.6547   -1.6055   15.4806 H         1 625         0.0557
     50 H18        13.9701   -9.0588   15.1770 H         1 625         0.0802
     51 H19        15.5012   -9.7560   15.8066 H         1 625         0.0802
     52 H20         8.3908   -3.7008   13.7755 H         1 625         0.0312
     53 H21         7.4274   -3.1438   15.1856 H         1 625         0.0312
     54 H22        10.3080   -3.6991   15.7584 H         1 625         0.0615
     55 H23         8.8367   -4.1347   16.6925 H         1 625         0.0615
@<TRIPOS>BOND
     1    1    2 3  
     2   29    1 1  
     3    3   23 1  
     4   32    3 1  
     5   24    4 1  
     6    5    7 ar 
     7   11    5 ar 
     8   27    6 ar 
     9    6   28 ar 
    10   16    7 ar 
    11   25    8 1  
    12    8   26 1  
    13    8   30 1  
    14   19    9 ar 
    15    9   20 ar 
    16   28   10 1  
    17   22   11 ar 
    18   14   12 ar 
    19   12   21 ar 
    20   15   13 ar 
    21   13   21 ar 
    22   23   14 ar 
    23   23   15 ar 
    24   24   16 ar 
    25   17   18 1  
    26   25   17 2  
    27   18   26 2  
    28   27   19 ar 
    29   28   20 ar 
    30   21   25 1  
    31   22   24 ar 
    32   26   22 1  
    33   30   27 1  
    34   31   29 1  
    35   31   32 1  
    36    5   33 1  
    37    7   34 1  
    38    9   35 1  
    39   10   36 1  
    40   10   37 1  
    41   11   38 1  
    42   12   39 1  
    43   13   40 1  
    44   14   41 1  
    45   15   42 1  
    46   16   43 1  
    47   17   44 1  
    48   18   45 1  
    49   19   46 1  
    50   20   47 1  
    51   29   48 1  
    52   29   49 1  
    53   30   50 1  
    54   30   51 1  
    55   31   52 1  
    56   31   53 1  
    57   32   54 1  
    58   32   55 1  
@<TRIPOS>SUBSTRUCTURE
     1 625         1

