### 
### Created by X-TOOL on Mon Sep 10 21:13:04 2018
### 

@<TRIPOS>MOLECULE
3l3l_ligand
   37    39     1     0     0
SMALL
GAST_HUCK


@<TRIPOS>ATOM
      1 C1        -28.7080   65.1120   24.2910 C.ar      1 L3L        -0.0586
      2 C2        -27.8410   65.9550   23.6210 C.ar      1 L3L        -0.0435
      3 C3        -28.2640   64.3350   25.3420 C.ar      1 L3L        -0.0483
      4 C4        -26.0720   65.2250   25.0190 C.ar      1 L3L         0.0725
      5 C5        -26.5120   66.0220   23.9800 C.ar      1 L3L         0.0624
      6 C6        -26.9340   64.4000   25.6880 C.ar      1 L3L         0.0048
      7 C7        -24.7410   65.0730   25.6170 C.2       1 L3L         0.2086
      8 C8        -25.6700   66.9500   23.2160 C.2       1 L3L         0.2047
      9 C9        -26.2550   63.6590   26.7810 C.3       1 L3L         0.0716
     10 C10       -23.3550   62.4670   27.2140 C.3       1 L3L         0.0110
     11 C11       -24.2770   63.8380   29.0150 C.3       1 L3L         0.0110
     12 C12       -22.1830   62.1540   28.1100 C.3       1 L3L        -0.0315
     13 C13       -23.0850   63.4460   29.8530 C.3       1 L3L        -0.0315
     14 C14       -23.8640   63.8410   27.5660 C.3       1 L3L         0.0564
     15 N15       -22.6640   62.1060   29.4770 N.4       1 L3L         0.2271
     16 N16       -24.9400   64.2500   26.7020 N.am      1 L3L        -0.2573
     17 N17       -24.3290   66.8950   23.4850 N.am      1 L3L        -0.2996
     18 O18       -23.6920   65.5380   25.1910 O.2       1 L3L        -0.3864
     19 O19       -26.2050   67.7030   22.4160 O.2       1 L3L        -0.3831
     20 H1        -29.7475   65.0606   23.9878 H         1 L3L         0.0646
     21 H2        -28.2094   66.5683   22.8067 H         1 L3L         0.0624
     22 H3        -28.9469   63.6890   25.8818 H         1 L3L         0.0604
     23 H4        -26.2289   62.5767   26.5862 H         1 L3L         0.0700
     24 H5        -26.7285   63.8448   27.7563 H         1 L3L         0.0700
     25 H6        -24.1512   61.7241   27.3693 H         1 L3L         0.0339
     26 H7        -23.0349   62.4469   26.1618 H         1 L3L         0.0339
     27 H8        -24.6200   64.8421   29.3049 H         1 L3L         0.0339
     28 H9        -25.0913   63.1143   29.1670 H         1 L3L         0.0339
     29 H10       -21.4177   62.9378   28.0110 H         1 L3L         0.0814
     30 H11       -21.7501   61.1816   27.8323 H         1 L3L         0.0814
     31 H12       -23.3613   63.4609   30.9176 H         1 L3L         0.0814
     32 H13       -22.2618   64.1542   29.6779 H         1 L3L         0.0814
     33 H14       -23.0410   64.5600   27.4404 H         1 L3L         0.0563
     34 H15       -21.9255   61.7953   30.0887 H         1 L3L         0.2013
     35 H16       -23.4443   61.4713   29.5429 H         1 L3L         0.2013
     36 H17       -23.6967   67.4996   23.0007 H         1 L3L         0.1809
     37 H18       -23.9816   66.2502   24.1658 H         1 L3L         0.1809
@<TRIPOS>BOND
     1    1    2 ar 
     2    3    1 ar 
     3    5    2 ar 
     4    6    3 ar 
     5    4    5 ar 
     6    6    4 ar 
     7    7    4 1  
     8    5    8 1  
     9    9    6 1  
    10   16    7 am 
    11    7   18 2  
    12    8   17 am 
    13    8   19 2  
    14   16    9 1  
    15   10   12 1  
    16   14   10 1  
    17   11   13 1  
    18   14   11 1  
    19   12   15 1  
    20   13   15 1  
    21   14   16 1  
    22    1   20 1  
    23    2   21 1  
    24    3   22 1  
    25    9   23 1  
    26    9   24 1  
    27   10   25 1  
    28   10   26 1  
    29   11   27 1  
    30   11   28 1  
    31   12   29 1  
    32   12   30 1  
    33   13   31 1  
    34   13   32 1  
    35   14   33 1  
    36   15   34 1  
    37   15   35 1  
    38   17   36 1  
    39   17   37 1  
@<TRIPOS>SUBSTRUCTURE
     1 L3L         1

