### 
### Created by X-TOOL on Mon Sep 10 21:13:03 2018
### 

@<TRIPOS>MOLECULE
3l3m_ligand
   45    48     1     0     0
SMALL
GAST_HUCK


@<TRIPOS>ATOM
      1 F          28.0630    9.0520   27.6280 F         1 A92        -0.1782
      2 C1         23.1200    7.5990   24.0440 C.ar      1 A92        -0.0684
      3 C2         26.4820   12.3000   27.5780 C.ar      1 A92        -0.0506
      4 C3         22.8040    8.7820   23.4140 C.ar      1 A92        -0.0565
      5 C4         27.3410   12.9870   28.4090 C.ar      1 A92        -0.0524
      6 C5         24.0070    7.5420   25.0950 C.ar      1 A92        -0.0350
      7 C6         28.6460   11.0240   28.6900 C.ar      1 A92        -0.0147
      8 C7         26.6910   10.9670   27.3020 C.ar      1 A92         0.0634
      9 C8         23.3840    9.9690   23.7940 C.ar      1 A92         0.0482
     10 C9         28.4250   12.3500   28.9680 C.ar      1 A92         0.0081
     11 C10        24.2810    9.9110   24.8340 C.ar      1 A92         0.0487
     12 C11        24.5840    8.7360   25.4850 C.ar      1 A92         0.0863
     13 C12        27.7860   10.3430   27.8630 C.ar      1 A92         0.1471
     14 C13        25.7690   10.2530   26.4470 C.2       1 A92         0.1376
     15 C14        23.0150   11.2080   23.1100 C.2       1 A92         0.1955
     16 C15        29.7750   13.6030   32.2360 C.3       1 A92        -0.0412
     17 C16        30.1780   15.0010   31.8350 C.3       1 A92        -0.0122
     18 C17        28.7530   13.0680   31.2650 C.3       1 A92         0.0013
     19 C18        30.6730   15.0210   30.4090 C.3       1 A92        -0.0319
     20 C19        29.3590   13.0510   29.8860 C.3       1 A92         0.0126
     21 N20        25.0340   10.8580   25.4660 N.2       1 A92        -0.3059
     22 N21        25.4970    8.9650   26.4760 N.pl3     1 A92        -0.2495
     23 N22        29.6010   14.4680   29.5490 N.4       1 A92         0.2421
     24 N23        23.7070   12.3020   23.5630 N.am      1 A92        -0.3015
     25 O24        22.1520   11.1890   22.2410 O.2       1 A92        -0.3889
     26 H1         22.6547    6.6821   23.7008 H         1 A92         0.0556
     27 H2         25.6347   12.8134   27.1380 H         1 A92         0.0642
     28 H3         22.0844    8.7772   22.6033 H         1 A92         0.0581
     29 H4         27.1616   14.0344   28.6231 H         1 A92         0.0543
     30 H5         24.2413    6.6076   25.5920 H         1 A92         0.0586
     31 H6         29.4991   10.5143   29.1230 H         1 A92         0.0559
     32 H7         29.3424   13.6234   33.2471 H         1 A92         0.0271
     33 H8         30.6612   12.9514   32.2294 H         1 A92         0.0271
     34 H9         30.9800   15.3516   32.5013 H         1 A92         0.0317
     35 H10        29.3082   15.6683   31.9254 H         1 A92         0.0317
     36 H11        27.8633   13.7149   31.2703 H         1 A92         0.0344
     37 H12        28.4656   12.0467   31.5555 H         1 A92         0.0344
     38 H13        31.5798   14.4049   30.3191 H         1 A92         0.0814
     39 H14        30.8999   16.0539   30.1062 H         1 A92         0.0814
     40 H15        30.3172   12.5108   29.8929 H         1 A92         0.1029
     41 H16        25.8947    8.2663   27.1199 H         1 A92         0.2301
     42 H17        29.8796   14.5378   28.5828 H         1 A92         0.2032
     43 H18        28.7534   14.9942   29.6932 H         1 A92         0.2032
     44 H19        23.5343   13.2029   23.1649 H         1 A92         0.1805
     45 H20        24.3843   12.1988   24.2914 H         1 A92         0.1805
@<TRIPOS>BOND
     1   13    1 1  
     2    2    4 ar 
     3    6    2 ar 
     4    5    3 ar 
     5    3    8 ar 
     6    9    4 ar 
     7   10    5 ar 
     8   12    6 ar 
     9   10    7 ar 
    10    7   13 ar 
    11   13    8 ar 
    12    8   14 1  
    13   11    9 ar 
    14    9   15 1  
    15   20   10 1  
    16   12   11 ar 
    17   21   11 1  
    18   22   12 1  
    19   14   21 2  
    20   14   22 1  
    21   15   24 am 
    22   15   25 2  
    23   16   17 1  
    24   18   16 1  
    25   17   19 1  
    26   18   20 1  
    27   19   23 1  
    28   20   23 1  
    29    2   26 1  
    30    3   27 1  
    31    4   28 1  
    32    5   29 1  
    33    6   30 1  
    34    7   31 1  
    35   16   32 1  
    36   16   33 1  
    37   17   34 1  
    38   17   35 1  
    39   18   36 1  
    40   18   37 1  
    41   19   38 1  
    42   19   39 1  
    43   20   40 1  
    44   22   41 1  
    45   23   42 1  
    46   23   43 1  
    47   24   44 1  
    48   24   45 1  
@<TRIPOS>SUBSTRUCTURE
     1 A92         1

