### 
### Created by X-TOOL on Mon Sep 10 21:13:04 2018
### 

@<TRIPOS>MOLECULE
3l3n_ligand
   70    72     1     0     0
SMALL
GAST_HUCK


@<TRIPOS>ATOM
      1 C          42.5540    6.0590  114.3340 C.2       1 LSW         0.0847
      2 N          42.8870    8.4750  114.0390 N.4       1 LSW         0.2599
      3 O          42.9030    4.9570  113.8580 O.co2     1 LSW        -0.5643
      4 CA         43.5650    7.2100  114.3560 C.3       1 LSW         0.0340
      5 CB         44.2160    7.2890  115.7400 C.3       1 LSW         0.0122
      6 NAA        40.8670   14.5300  111.8140 N.4       1 LSW         0.2185
      7 OAC        45.8610    9.1690  108.7270 O.co2     1 LSW        -0.5665
      8 OAD        44.5260    8.4060  111.9170 O.2       1 LSW        -0.3908
      9 OAF        44.0720   10.2380  109.4530 O.co2     1 LSW        -0.5665
     10 CAG        46.9100    6.0110  119.9110 C.ar      1 LSW        -0.0687
     11 CAH        46.5830    4.8150  119.2810 C.ar      1 LSW        -0.0686
     12 CAI        46.6230    7.2220  119.2900 C.ar      1 LSW        -0.0686
     13 CAJ        38.2800    9.4490  108.1810 C.ar      1 LSW        -0.0768
     14 CAK        39.4730   10.2010  108.2160 C.ar      1 LSW        -0.0792
     15 CAL        45.9710    4.8330  118.0330 C.ar      1 LSW        -0.0603
     16 CAM        46.0120    7.2380  118.0410 C.ar      1 LSW        -0.0603
     17 CAN        38.2970    8.0780  108.0950 C.ar      1 LSW        -0.0443
     18 CAO        40.7160    9.5720  108.1620 C.ar      1 LSW        -0.0747
     19 CAP        41.2410    5.9800  107.9210 C.2       1 LSW         0.0166
     20 CAQ        41.7330   13.3610  111.4520 C.3       1 LSW        -0.0354
     21 CAR        41.0760   12.0260  111.8440 C.3       1 LSW        -0.0123
     22 CAS        42.0970   10.9440  112.2600 C.3       1 LSW        -0.0410
     23 CAT        45.0710    6.0470  116.0060 C.3       1 LSW        -0.0125
     24 CAU        41.3730    9.5920  112.4460 C.3       1 LSW         0.0081
     25 CAW        43.2740    7.5260  107.9500 C.3       1 LSW        -0.0013
     26 NAX        42.9390    7.9530  110.3880 N.am      1 LSW        -0.2657
     27 CBB        44.6800    9.1860  109.1570 C.2       1 LSW         0.0613
     28 CBC        43.3390    8.2480  111.6290 C.2       1 LSW         0.2263
     29 CBD        45.6860    6.0430  117.4090 C.ar      1 LSW        -0.0427
     30 CBE        41.8260    7.2200  107.9880 C.2       1 LSW        -0.0424
     31 CBF        39.5430    7.4490  108.0390 C.ar      1 LSW         0.0603
     32 CBG        40.7600    8.1730  108.0690 C.ar      1 LSW        -0.0214
     33 CBI        42.2700    8.3690  112.7180 C.3       1 LSW         0.0683
     34 CBJ        43.9240    7.8590  109.3020 C.3       1 LSW         0.0987
     35 OXT        41.4090    6.2460  114.8000 O.co2     1 LSW        -0.5643
     36 NXZ        39.8520    6.1160  107.9510 N.pl3     1 LSW        -0.2891
     37 H1         43.5583    9.2269  114.0386 H         1 LSW         0.2052
     38 H2         42.1763    8.6594  114.7296 H         1 LSW         0.2052
     39 H3         44.3437    7.0219  113.6022 H         1 LSW         0.1027
     40 H4         43.4295    7.3570  116.5060 H         1 LSW         0.0361
     41 H5         44.8538    8.1839  115.7888 H         1 LSW         0.0361
     42 H6         41.3269   15.3853  111.5438 H         1 LSW         0.1994
     43 H7         40.7073   14.5344  112.8092 H         1 LSW         0.1994
     44 H8         39.9846   14.4564  111.3324 H         1 LSW         0.1994
     45 H9         47.3876    5.9994  120.8841 H         1 LSW         0.0559
     46 H10        46.8052    3.8697  119.7627 H         1 LSW         0.0599
     47 H11        46.8761    8.1550  119.7805 H         1 LSW         0.0599
     48 H12        37.3276    9.9650  108.2229 H         1 LSW         0.0530
     49 H13        39.4226   11.2816  108.2858 H         1 LSW         0.0510
     50 H14        45.7148    3.9001  117.5440 H         1 LSW         0.0557
     51 H15        45.7895    8.1833  117.5593 H         1 LSW         0.0557
     52 H16        37.3770    7.5052  108.0715 H         1 LSW         0.0541
     53 H17        41.6308   10.1528  108.1913 H         1 LSW         0.0540
     54 H18        41.7781    5.0350  107.8546 H         1 LSW         0.0795
     55 H19        42.6950   13.4532  111.9775 H         1 LSW         0.0813
     56 H20        41.9063   13.3680  110.3658 H         1 LSW         0.0813
     57 H21        40.5023   11.6526  110.9829 H         1 LSW         0.0317
     58 H22        40.3944   12.2064  112.6883 H         1 LSW         0.0317
     59 H23        42.5750   11.2364  113.2065 H         1 LSW         0.0270
     60 H24        42.8636   10.8440  111.4776 H         1 LSW         0.0270
     61 H25        45.8836    6.0137  115.2654 H         1 LSW         0.0429
     62 H26        44.4382    5.1539  115.8965 H         1 LSW         0.0429
     63 H27        40.7998    9.3899  111.5292 H         1 LSW         0.0346
     64 H28        40.6817    9.6960  113.2953 H         1 LSW         0.0346
     65 H29        43.4189    8.3896  107.2843 H         1 LSW         0.0390
     66 H30        43.7930    6.6504  107.5329 H         1 LSW         0.0390
     67 H31        41.9696    7.7964  110.1989 H         1 LSW         0.1878
     68 H32        41.6453    7.4639  112.6966 H         1 LSW         0.1099
     69 H33        44.6399    7.0627  109.5538 H         1 LSW         0.0741
     70 H34        39.1721    5.3432  107.9133 H         1 LSW         0.2216
@<TRIPOS>BOND
     1    1    3 ar 
     2    4    1 1  
     3    1   35 ar 
     4    2    4 1  
     5   33    2 1  
     6    4    5 1  
     7    5   23 1  
     8   20    6 1  
     9   27    7 ar 
    10   28    8 2  
    11   27    9 ar 
    12   11   10 ar 
    13   12   10 ar 
    14   15   11 ar 
    15   16   12 ar 
    16   14   13 ar 
    17   13   17 ar 
    18   18   14 ar 
    19   29   15 ar 
    20   29   16 ar 
    21   17   31 ar 
    22   32   18 ar 
    23   30   19 2  
    24   19   36 1  
    25   21   20 1  
    26   22   21 1  
    27   24   22 1  
    28   23   29 1  
    29   33   24 1  
    30   30   25 1  
    31   25   34 1  
    32   26   28 am 
    33   34   26 1  
    34   34   27 1  
    35   28   33 1  
    36   30   32 1  
    37   31   32 ar 
    38   31   36 1  
    39    2   37 1  
    40    2   38 1  
    41    4   39 1  
    42    5   40 1  
    43    5   41 1  
    44    6   42 1  
    45    6   43 1  
    46    6   44 1  
    47   10   45 1  
    48   11   46 1  
    49   12   47 1  
    50   13   48 1  
    51   14   49 1  
    52   15   50 1  
    53   16   51 1  
    54   17   52 1  
    55   18   53 1  
    56   19   54 1  
    57   20   55 1  
    58   20   56 1  
    59   21   57 1  
    60   21   58 1  
    61   22   59 1  
    62   22   60 1  
    63   23   61 1  
    64   23   62 1  
    65   24   63 1  
    66   24   64 1  
    67   25   65 1  
    68   25   66 1  
    69   26   67 1  
    70   33   68 1  
    71   34   69 1  
    72   36   70 1  
@<TRIPOS>SUBSTRUCTURE
     1 LSW         1

