### 
### Created by X-TOOL on Mon Sep 10 21:13:04 2018
### 

@<TRIPOS>MOLECULE
3l4t_ligand
   42    42     1     0     0
SMALL
GAST_HUCK


@<TRIPOS>ATOM
      1 OAA        41.3810   87.1480   31.3680 O.3       1 BJ1        -0.3924
      2 OAB        43.0890   94.7440   36.0540 O.3       1 BJ1        -0.3900
      3 OAC        43.1620   86.1780   33.4480 O.3       1 BJ1        -0.3868
      4 OAD        47.8800   94.2930   34.0510 O.3       1 BJ1        -0.3844
      5 OAE        44.6570   89.8960   32.0640 O.3       1 BJ1        -0.3844
      6 OAF        46.8690   94.2400   36.6970 O.3       1 BJ1        -0.3840
      7 OAG        45.3230   88.5870   36.8070 O.co2     1 BJ1        -0.4611
      8 OAH        43.7000   86.8590   36.2730 O.co2     1 BJ1        -0.4611
      9 OAI        46.0650   86.5100   35.9230 O.co2     1 BJ1        -0.4611
     10 CAJ        41.7900   87.9280   32.5020 C.3       1 BJ1         0.0727
     11 CAK        43.6770   93.6370   36.7340 C.3       1 BJ1         0.0944
     12 CAL        45.7890   93.2480   33.3150 C.3       1 BJ1         0.1386
     13 CAM        44.7500   90.6850   34.3820 C.3       1 BJ1         0.1386
     14 OAN        44.9900   87.9200   34.4750 O.3       1 BJ1        -0.2570
     15 CAO        43.1860   87.5070   32.8860 C.3       1 BJ1         0.1090
     16 CAP        46.8090   93.4260   34.4430 C.3       1 BJ1         0.1303
     17 CAQ        43.9810   89.8790   33.3560 C.3       1 BJ1         0.1304
     18 CAR        45.9910   94.0990   35.5800 C.3       1 BJ1         0.1349
     19 CAS        44.8760   93.0740   35.8940 C.3       1 BJ1         0.1711
     20 CAT        43.7650   88.4540   33.9260 C.3       1 BJ1         0.1426
     21 SAU        44.4190   92.4650   34.2410 S.3       1 BJ1         0.0029
     22 SAV        45.0170   87.4590   35.8830 S.o2      1 BJ1        -0.0733
     23 H          41.9853   87.3044   30.6387 H         1 BJ1         0.2095
     24 H          42.7691   94.4575   35.1954 H         1 BJ1         0.2096
     25 H          44.0539   85.9178   33.6896 H         1 BJ1         0.2100
     26 H          48.3303   93.9195   33.2898 H         1 BJ1         0.2101
     27 H          45.5345   89.5181   32.1582 H         1 BJ1         0.2101
     28 H          47.6176   94.7866   36.4472 H         1 BJ1         0.2101
     29 H          41.1069   87.7637   33.3354 H         1 BJ1         0.0584
     30 H          41.7744   88.9888   32.2519 H         1 BJ1         0.0584
     31 H          42.9290   92.8549   36.8637 H         1 BJ1         0.0608
     32 H          44.0413   93.9642   37.7078 H         1 BJ1         0.0608
     33 H          46.1516   92.6634   32.4695 H         1 BJ1         0.0867
     34 H          45.5164   94.1724   32.8058 H         1 BJ1         0.0867
     35 H          45.8146   90.5229   34.2130 H         1 BJ1         0.0867
     36 H          44.4376   90.3588   35.3740 H         1 BJ1         0.0867
     37 H          43.8027   87.5280   31.9875 H         1 BJ1         0.0644
     38 H          47.2661   92.4788   34.7293 H         1 BJ1         0.0668
     39 H          43.0023   90.3208   33.1687 H         1 BJ1         0.0668
     40 H          45.5786   95.0768   35.3312 H         1 BJ1         0.0672
     41 H          45.2164   92.2804   36.5591 H         1 BJ1         0.0928
     42 H          43.0367   88.5414   34.7322 H         1 BJ1         0.0674
@<TRIPOS>BOND
     1   10    1 1  
     2   11    2 1  
     3   15    3 1  
     4   16    4 1  
     5   17    5 1  
     6   18    6 1  
     7   22    7 ar 
     8   22    8 ar 
     9   22    9 ar 
    10   15   10 1  
    11   19   11 1  
    12   16   12 1  
    13   12   21 1  
    14   13   17 1  
    15   21   13 1  
    16   20   14 1  
    17   14   22 1  
    18   20   15 1  
    19   18   16 1  
    20   17   20 1  
    21   18   19 1  
    22   19   21 1  
    23    1   23 1  
    24    2   24 1  
    25    3   25 1  
    26    4   26 1  
    27    5   27 1  
    28    6   28 1  
    29   10   29 1  
    30   10   30 1  
    31   11   31 1  
    32   11   32 1  
    33   12   33 1  
    34   12   34 1  
    35   13   35 1  
    36   13   36 1  
    37   15   37 1  
    38   16   38 1  
    39   17   39 1  
    40   18   40 1  
    41   19   41 1  
    42   20   42 1  
@<TRIPOS>SUBSTRUCTURE
     1 BJ1         1

