### 
### Created by X-TOOL on Mon Sep 10 21:13:03 2018
### 

@<TRIPOS>MOLECULE
3l4u_ligand
   47    47     1     0     0
SMALL
GAST_HUCK


@<TRIPOS>ATOM
      1 OAA        -4.5820  -25.9270  -24.4060 O.3       1 DSK        -0.3924
      2 OAB        -3.5630  -14.2880  -18.6810 O.3       1 DSK        -0.3900
      3 OAC        -2.5250  -23.7780  -24.6300 O.3       1 DSK        -0.3869
      4 OAD        -1.8400  -19.0670  -22.8410 O.3       1 DSK        -0.3845
      5 OAE         1.1590  -14.8040  -20.9000 O.3       1 DSK        -0.3844
      6 OAF        -1.8620  -23.6130  -21.9840 O.3       1 DSK        -0.3865
      7 OAG        -3.4230  -21.1230  -20.3290 O.3       1 DSK        -0.3864
      8 OAH        -4.3410  -21.1410  -22.9860 O.3       1 DSK        -0.3865
      9 OAI         0.1390  -14.8610  -18.2440 O.3       1 DSK        -0.3840
     10 CAJ        -3.8410  -25.3650  -23.3360 C.3       1 DSK         0.0727
     11 CAK        -3.0400  -15.5240  -18.1840 C.3       1 DSK         0.0944
     12 CAL        -1.9870  -18.5410  -20.4420 C.3       1 DSK         0.1385
     13 CAM        -0.9410  -15.9610  -21.6020 C.3       1 DSK         0.1386
     14 CAN        -3.5770  -23.8890  -23.6600 C.3       1 DSK         0.1065
     15 CAO        -2.5440  -19.3660  -21.6440 C.3       1 DSK         0.1280
     16 CAP         0.0950  -15.7140  -20.4860 C.3       1 DSK         0.1303
     17 CAQ        -3.1560  -23.1410  -22.3760 C.3       1 DSK         0.1114
     18 CAR        -2.5020  -20.8730  -21.4050 C.3       1 DSK         0.1137
     19 CAS        -3.0520  -21.6390  -22.6310 C.3       1 DSK         0.1119
     20 CAT        -0.7410  -15.0460  -19.3600 C.3       1 DSK         0.1349
     21 CAU        -1.8490  -16.0810  -19.0120 C.3       1 DSK         0.1711
     22 SAV        -2.2940  -16.7690  -20.6530 S.3       1 DSK         0.0029
     23 H1         -4.0811  -25.8529  -25.2098 H         1 DSK         0.2095
     24 H2         -3.8714  -14.4110  -19.5710 H         1 DSK         0.2096
     25 H3         -2.3696  -22.8610  -24.8234 H         1 DSK         0.2100
     26 H4         -0.9208  -19.2780  -22.7275 H         1 DSK         0.2101
     27 H5          1.6160  -15.1720  -21.6471 H         1 DSK         0.2101
     28 H6         -1.2392  -23.4414  -22.6805 H         1 DSK         0.2100
     29 H7         -4.2922  -20.8377  -20.5849 H         1 DSK         0.2100
     30 H8         -4.6437  -21.5807  -23.7718 H         1 DSK         0.2100
     31 H9         -0.3375  -14.4527  -17.5307 H         1 DSK         0.2101
     32 H10        -2.8855  -25.8984  -23.2240 H         1 DSK         0.0584
     33 H11        -4.4168  -25.4441  -22.4021 H         1 DSK         0.0584
     34 H12        -3.8477  -16.2707  -18.1933 H         1 DSK         0.0608
     35 H13        -2.6991  -15.3653  -17.1503 H         1 DSK         0.0608
     36 H14        -0.9026  -18.7090  -20.3653 H         1 DSK         0.0867
     37 H15        -2.4771  -18.8809  -19.5177 H         1 DSK         0.0867
     38 H16        -0.5428  -16.6255  -22.3829 H         1 DSK         0.0867
     39 H17        -1.2755  -15.0178  -22.0586 H         1 DSK         0.0867
     40 H18        -4.4950  -23.4367  -24.0634 H         1 DSK         0.0643
     41 H19        -3.5961  -19.0763  -21.7826 H         1 DSK         0.0667
     42 H20         0.5349  -16.6639  -20.1481 H         1 DSK         0.0668
     43 H21        -3.8890  -23.3326  -21.5786 H         1 DSK         0.0647
     44 H22        -1.4825  -21.2052  -21.1594 H         1 DSK         0.0647
     45 H23        -2.3640  -21.4763  -23.4737 H         1 DSK         0.0647
     46 H24        -1.1757  -14.0880  -19.6813 H         1 DSK         0.0672
     47 H25        -1.4017  -16.8823  -18.4055 H         1 DSK         0.0928
@<TRIPOS>BOND
     1   10    1 1  
     2   11    2 1  
     3   14    3 1  
     4   15    4 1  
     5   16    5 1  
     6   17    6 1  
     7   18    7 1  
     8   19    8 1  
     9   20    9 1  
    10   14   10 1  
    11   21   11 1  
    12   12   15 1  
    13   22   12 1  
    14   16   13 1  
    15   13   22 1  
    16   17   14 1  
    17   15   18 1  
    18   20   16 1  
    19   19   17 1  
    20   18   19 1  
    21   20   21 1  
    22   21   22 1  
    23    1   23 1  
    24    2   24 1  
    25    3   25 1  
    26    4   26 1  
    27    5   27 1  
    28    6   28 1  
    29    7   29 1  
    30    8   30 1  
    31    9   31 1  
    32   10   32 1  
    33   10   33 1  
    34   11   34 1  
    35   11   35 1  
    36   12   36 1  
    37   12   37 1  
    38   13   38 1  
    39   13   39 1  
    40   14   40 1  
    41   15   41 1  
    42   16   42 1  
    43   17   43 1  
    44   18   44 1  
    45   19   45 1  
    46   20   46 1  
    47   21   47 1  
@<TRIPOS>SUBSTRUCTURE
     1 DSK         1

