### 
### Created by X-TOOL on Mon Sep 10 21:13:03 2018
### 

@<TRIPOS>MOLECULE
3l4v_ligand
   50    50     1     0     0
SMALL
GAST_HUCK


@<TRIPOS>ATOM
      1 OAA        41.2250   84.1420   30.7670 O.3       1 KTL        -0.3924
      2 OAB        42.3740   95.5410   36.1280 O.3       1 KTL        -0.3900
      3 OAC        43.6380   86.1190   30.1980 O.3       1 KTL        -0.3869
      4 OAD        47.0100   95.2460   33.9250 O.3       1 KTL        -0.3844
      5 OAE        44.0500   90.9670   31.9570 O.3       1 KTL        -0.3844
      6 OAF        44.4430   86.3190   32.7790 O.3       1 KTL        -0.3865
      7 OAG        45.9980   95.0850   36.6570 O.3       1 KTL        -0.3840
      8 OAH        41.6830   88.6680   32.1340 O.3       1 KTL        -0.3864
      9 OAI        44.5600   87.0970   35.6750 O.co2     1 KTL        -0.4611
     10 OAJ        44.5260   89.2810   36.5710 O.co2     1 KTL        -0.4611
     11 OAK        42.5550   87.8370   36.8560 O.co2     1 KTL        -0.4611
     12 CAL        42.3750   84.5210   31.5580 C.3       1 KTL         0.0727
     13 CAM        42.9840   94.3280   36.6010 C.3       1 KTL         0.0944
     14 CAN        45.0260   93.7360   33.3090 C.3       1 KTL         0.1386
     15 CAO        43.8750   91.5530   34.3490 C.3       1 KTL         0.1386
     16 OAP        42.9120   88.7710   34.6240 O.3       1 KTL        -0.2570
     17 CAQ        42.6660   86.0020   31.2440 C.3       1 KTL         0.1065
     18 CAR        46.0260   94.2700   34.3540 C.3       1 KTL         0.1303
     19 CAS        43.4240   90.6320   33.1980 C.3       1 KTL         0.1304
     20 CAT        43.1210   86.7560   32.4950 C.3       1 KTL         0.1115
     21 CAU        45.2010   94.8470   35.4960 C.3       1 KTL         0.1349
     22 CAV        43.0560   88.2840   32.3160 C.3       1 KTL         0.1143
     23 CAW        44.1090   93.7960   35.7210 C.3       1 KTL         0.1711
     24 CAX        43.6420   89.1290   33.4620 C.3       1 KTL         0.1429
     25 SAY        43.6850   93.2260   34.1880 S.3       1 KTL         0.0029
     26 SAZ        43.6610   88.2370   35.9660 S.o2      1 KTL        -0.0733
     27 H1         40.4850   84.6885   31.0040 H         1 KTL         0.2095
     28 H2         42.0026   95.3923   35.2663 H         1 KTL         0.2096
     29 H3         43.8020   87.0379   30.0210 H         1 KTL         0.2100
     30 H4         47.5488   94.8702   33.2388 H         1 KTL         0.2101
     31 H5         44.9923   90.8862   32.0469 H         1 KTL         0.2101
     32 H6         45.0066   86.5182   32.0407 H         1 KTL         0.2100
     33 H7         45.4518   95.4437   37.3466 H         1 KTL         0.2101
     34 H8         41.1794   88.4101   32.8971 H         1 KTL         0.2100
     35 H9         43.2415   83.8997   31.2876 H         1 KTL         0.0584
     36 H10        42.1550   84.3975   32.6287 H         1 KTL         0.0584
     37 H11        42.2043   93.5547   36.6652 H         1 KTL         0.0608
     38 H12        43.3944   94.5191   37.6035 H         1 KTL         0.0608
     39 H13        45.4640   92.8939   32.7532 H         1 KTL         0.0867
     40 H14        44.7437   94.5327   32.6051 H         1 KTL         0.0867
     41 H15        44.9468   91.3651   34.5102 H         1 KTL         0.0867
     42 H16        43.3109   91.2499   35.2434 H         1 KTL         0.0867
     43 H17        41.7312   86.4631   30.8926 H         1 KTL         0.0643
     44 H18        46.5905   93.4037   34.7294 H         1 KTL         0.0668
     45 H19        42.3417   90.7885   33.0789 H         1 KTL         0.0668
     46 H20        42.4639   86.4841   33.3342 H         1 KTL         0.0647
     47 H21        44.7447   95.7998   35.1896 H         1 KTL         0.0672
     48 H22        43.6194   88.5308   31.4041 H         1 KTL         0.0648
     49 H23        44.5515   92.9517   36.2699 H         1 KTL         0.0928
     50 H24        44.7143   88.9186   33.5881 H         1 KTL         0.0674
@<TRIPOS>BOND
     1   12    1 1  
     2   13    2 1  
     3   17    3 1  
     4   18    4 1  
     5   19    5 1  
     6   20    6 1  
     7   21    7 1  
     8   22    8 1  
     9   26    9 ar 
    10   26   10 ar 
    11   26   11 ar 
    12   17   12 1  
    13   23   13 1  
    14   14   18 1  
    15   25   14 1  
    16   19   15 1  
    17   15   25 1  
    18   24   16 1  
    19   16   26 1  
    20   20   17 1  
    21   18   21 1  
    22   24   19 1  
    23   22   20 1  
    24   21   23 1  
    25   22   24 1  
    26   23   25 1  
    27    1   27 1  
    28    2   28 1  
    29    3   29 1  
    30    4   30 1  
    31    5   31 1  
    32    6   32 1  
    33    7   33 1  
    34    8   34 1  
    35   12   35 1  
    36   12   36 1  
    37   13   37 1  
    38   13   38 1  
    39   14   39 1  
    40   14   40 1  
    41   15   41 1  
    42   15   42 1  
    43   17   43 1  
    44   18   44 1  
    45   19   45 1  
    46   20   46 1  
    47   21   47 1  
    48   22   48 1  
    49   23   49 1  
    50   24   50 1  
@<TRIPOS>SUBSTRUCTURE
     1 KTL         1

