### 
### Created by X-TOOL on Mon Sep 10 21:13:03 2018
### 

@<TRIPOS>MOLECULE
3l4w_ligand
   32    32     1     0     0
SMALL
GAST_HUCK


@<TRIPOS>ATOM
      1 OAA        42.5010   89.4750   34.0700 O.3       1 MIG        -0.3898
      2 OAB        43.5400   94.0540   36.2930 O.3       1 MIG        -0.3894
      3 OAC        47.3420   92.1970   32.1470 O.3       1 MIG        -0.3838
      4 OAD        48.4860   93.7590   34.4000 O.3       1 MIG        -0.3862
      5 OAE        47.2460   93.4380   36.8280 O.3       1 MIG        -0.3835
      6 CAF        43.2230   90.2150   35.0500 C.3       1 MIG         0.0841
      7 CAG        44.2640   92.9360   36.8730 C.3       1 MIG         0.0894
      8 CAH        43.2040   91.6700   34.5750 C.3       1 MIG        -0.0076
      9 CAI        45.3800   91.6950   33.4780 C.3       1 MIG        -0.0022
     10 CAJ        46.5700   92.6560   33.2520 C.3       1 MIG         0.1231
     11 CAK        47.3930   92.8210   34.5360 C.3       1 MIG         0.1171
     12 CAL        46.4630   93.3330   35.6540 C.3       1 MIG         0.1281
     13 CAM        45.2510   92.3900   35.8350 C.3       1 MIG         0.0319
     14 NAN        44.5500   92.2830   34.5170 N.4       1 MIG         0.2444
     15 H1         42.4820   88.5581   34.3177 H         1 MIG         0.2096
     16 H2         43.0669   93.7587   35.5240 H         1 MIG         0.2097
     17 H3         47.6680   91.3239   32.3308 H         1 MIG         0.2101
     18 H4         48.9558   93.8177   35.2237 H         1 MIG         0.2100
     19 H5         47.9590   94.0478   36.6783 H         1 MIG         0.2102
     20 H6         44.2579   89.8489   35.1202 H         1 MIG         0.0610
     21 H7         42.7354   90.1268   36.0321 H         1 MIG         0.0610
     22 H8         43.5546   92.1455   37.1592 H         1 MIG         0.0614
     23 H9         44.8144   93.2746   37.7631 H         1 MIG         0.0614
     24 H10        42.5828   92.2559   35.2684 H         1 MIG         0.0837
     25 H11        42.7613   91.7033   33.5686 H         1 MIG         0.0837
     26 H12        45.7465   90.7091   33.8001 H         1 MIG         0.0841
     27 H13        44.8012   91.5855   32.5490 H         1 MIG         0.0841
     28 H14        46.1667   93.6455   32.9906 H         1 MIG         0.0674
     29 H15        47.8036   91.8400   34.8171 H         1 MIG         0.0649
     30 H16        46.0857   94.3307   35.3851 H         1 MIG         0.0678
     31 H17        45.6035   91.3984   36.1553 H         1 MIG         0.0901
     32 H18        44.3923   93.2357   34.2281 H         1 MIG         0.2040
@<TRIPOS>BOND
     1    6    1 1  
     2    7    2 1  
     3   10    3 1  
     4   11    4 1  
     5   12    5 1  
     6    8    6 1  
     7   13    7 1  
     8   14    8 1  
     9   10    9 1  
    10    9   14 1  
    11   11   10 1  
    12   12   11 1  
    13   12   13 1  
    14   13   14 1  
    15    1   15 1  
    16    2   16 1  
    17    3   17 1  
    18    4   18 1  
    19    5   19 1  
    20    6   20 1  
    21    6   21 1  
    22    7   22 1  
    23    7   23 1  
    24    8   24 1  
    25    8   25 1  
    26    9   26 1  
    27    9   27 1  
    28   10   28 1  
    29   11   29 1  
    30   12   30 1  
    31   13   31 1  
    32   14   32 1  
@<TRIPOS>SUBSTRUCTURE
     1 MIG         1

