### 
### Created by X-TOOL on Mon Sep 10 21:13:03 2018
### 

@<TRIPOS>MOLECULE
3l4x_ligand
   50    50     1     0     0
SMALL
GAST_HUCK


@<TRIPOS>ATOM
      1 OAA         3.8520  -25.9490   20.8560 O.3       1 NR3        -0.3924
      2 OAB         3.7070  -14.0180   18.5140 O.3       1 NR3        -0.3900
      3 OAC         5.3250  -22.7480   21.4240 O.3       1 NR3        -0.3869
      4 OAD        -0.9850  -14.5900   20.7570 O.3       1 NR3        -0.3844
      5 OAE         2.2010  -18.7470   22.6660 O.3       1 NR3        -0.3844
      6 OAF         1.7340  -23.4440   21.9790 O.3       1 NR3        -0.3865
      7 OAG         0.0640  -14.6200   18.0800 O.3       1 NR3        -0.3840
      8 OAH         4.2710  -20.9270   22.7360 O.3       1 NR3        -0.3864
      9 OAI         1.5370  -20.4540   18.1660 O.co2     1 NR3        -0.4611
     10 OAJ         3.3830  -21.9840   17.7250 O.co2     1 NR3        -0.4611
     11 OAK         1.5710  -22.5760   19.1850 O.co2     1 NR3        -0.4611
     12 CAL         4.4240  -25.0100   21.8050 C.3       1 NR3         0.0727
     13 CAM         3.2050  -15.2750   18.0170 C.3       1 NR3         0.0944
     14 CAN         1.1560  -15.7830   21.4640 C.3       1 NR3         0.1386
     15 CAO         2.2670  -18.2260   20.2920 C.3       1 NR3         0.1386
     16 OAP         3.1310  -20.9840   19.9040 O.3       1 NR3        -0.2570
     17 CAQ         4.1110  -23.5460   21.4060 C.3       1 NR3         0.1065
     18 CAR         0.1450  -15.4450   20.3480 C.3       1 NR3         0.1303
     19 CAS         2.7790  -19.1290   21.4140 C.3       1 NR3         0.1304
     20 CAT         3.0270  -22.9430   22.3280 C.3       1 NR3         0.1115
     21 CAU         0.9430  -14.7780   19.2030 C.3       1 NR3         0.1349
     22 CAV         2.9740  -21.4090   22.3840 C.3       1 NR3         0.1143
     23 CAW         2.0400  -15.8190   18.8590 C.3       1 NR3         0.1711
     24 CAX         2.4720  -20.6200   21.1350 C.3       1 NR3         0.1429
     25 SAY         2.5670  -16.4600   20.4860 S.3       1 NR3         0.0029
     26 SAZ         2.4010  -21.5030   18.7600 S.o2      1 NR3        -0.0733
     27 H1          4.0595  -26.8360   21.1256 H         1 NR3         0.2095
     28 H2          4.0178  -14.1322   19.4045 H         1 NR3         0.2096
     29 H3          5.1186  -21.8540   21.1778 H         1 NR3         0.2100
     30 H4         -1.4769  -15.0244   21.4440 H         1 NR3         0.2101
     31 H5          1.2556  -18.8240   22.6137 H         1 NR3         0.2101
     32 H6          1.5377  -23.2112   21.0792 H         1 NR3         0.2100
     33 H7          0.5365  -14.2110   17.3645 H         1 NR3         0.2101
     34 H8          4.9002  -21.2077   22.0820 H         1 NR3         0.2100
     35 H9          5.5149  -25.1484   21.8330 H         1 NR3         0.0584
     36 H10         4.0037  -25.2073   22.8022 H         1 NR3         0.0584
     37 H11         4.0226  -16.0108   18.0293 H         1 NR3         0.0608
     38 H12         2.8562  -15.1316   16.9837 H         1 NR3         0.0608
     39 H13         0.7517  -16.5336   22.1591 H         1 NR3         0.0867
     40 H14         1.4506  -14.8842   22.0256 H         1 NR3         0.0867
     41 H15         1.1799  -18.3741   20.2127 H         1 NR3         0.0867
     42 H16         2.7500  -18.5469   19.3572 H         1 NR3         0.0867
     43 H17         3.7190  -23.5473   20.3782 H         1 NR3         0.0643
     44 H18        -0.2799  -16.3907   19.9804 H         1 NR3         0.0668
     45 H19         3.8702  -19.0075   21.4803 H         1 NR3         0.0668
     46 H20         3.2572  -23.2889   23.3465 H         1 NR3         0.0647
     47 H21         1.3746  -13.8125   19.5055 H         1 NR3         0.0672
     48 H22         2.2810  -21.1578   23.2005 H         1 NR3         0.0648
     49 H23         1.5822  -16.6363   18.2824 H         1 NR3         0.0928
     50 H24         1.3892  -20.7756   21.0194 H         1 NR3         0.0674
@<TRIPOS>BOND
     1   12    1 1  
     2   13    2 1  
     3   17    3 1  
     4   18    4 1  
     5   19    5 1  
     6   20    6 1  
     7   21    7 1  
     8   22    8 1  
     9   26    9 ar 
    10   26   10 ar 
    11   26   11 ar 
    12   17   12 1  
    13   23   13 1  
    14   14   18 1  
    15   25   14 1  
    16   19   15 1  
    17   15   25 1  
    18   24   16 1  
    19   16   26 1  
    20   20   17 1  
    21   18   21 1  
    22   24   19 1  
    23   22   20 1  
    24   21   23 1  
    25   22   24 1  
    26   23   25 1  
    27    1   27 1  
    28    2   28 1  
    29    3   29 1  
    30    4   30 1  
    31    5   31 1  
    32    6   32 1  
    33    7   33 1  
    34    8   34 1  
    35   12   35 1  
    36   12   36 1  
    37   13   37 1  
    38   13   38 1  
    39   14   39 1  
    40   14   40 1  
    41   15   41 1  
    42   15   42 1  
    43   17   43 1  
    44   18   44 1  
    45   19   45 1  
    46   20   46 1  
    47   21   47 1  
    48   22   48 1  
    49   23   49 1  
    50   24   50 1  
@<TRIPOS>SUBSTRUCTURE
     1 NR3         1

