### 
### Created by X-TOOL on Mon Sep 10 21:13:02 2018
### 

@<TRIPOS>MOLECULE
3l4y_ligand
   50    50     1     0     0
SMALL
GAST_HUCK


@<TRIPOS>ATOM
      1 OAA        -0.5440  -24.4780  -22.7250 O.3       1 NR4        -0.3924
      2 OAB        -3.7160  -13.9230  -18.7190 O.3       1 NR4        -0.3900
      3 OAC        -3.3850  -23.5690  -24.1010 O.3       1 NR4        -0.3869
      4 OAD         1.0140  -14.4210  -20.8550 O.3       1 NR4        -0.3844
      5 OAE        -2.2240  -18.5740  -22.8000 O.3       1 NR4        -0.3844
      6 OAF        -2.8910  -23.2990  -21.6740 O.3       1 NR4        -0.3865
      7 OAG        -0.1040  -14.4500  -18.2140 O.3       1 NR4        -0.3840
      8 OAH        -4.0970  -21.0070  -22.7340 O.3       1 NR4        -0.3864
      9 OAI        -1.3470  -22.4200  -19.4000 O.co2     1 NR4        -0.4611
     10 OAJ        -1.4850  -20.2880  -18.3250 O.co2     1 NR4        -0.4611
     11 OAK        -3.1860  -21.9130  -17.9840 O.co2     1 NR4        -0.4611
     12 CAL        -0.9410  -24.0090  -24.0470 C.3       1 NR4         0.0727
     13 CAM        -3.1480  -15.0910  -18.1410 C.3       1 NR4         0.0944
     14 CAN        -1.1540  -15.4750  -21.6280 C.3       1 NR4         0.1386
     15 CAO        -2.0830  -18.0630  -20.4600 C.3       1 NR4         0.1386
     16 OAP        -3.0880  -20.8320  -20.0970 O.3       1 NR4        -0.2570
     17 CAQ        -2.0830  -23.0050  -23.8940 C.3       1 NR4         0.1065
     18 CAR        -0.1310  -15.2670  -20.5010 C.3       1 NR4         0.1303
     19 CAS        -2.7330  -18.9150  -21.5230 C.3       1 NR4         0.1304
     20 CAT        -2.1040  -22.4550  -22.4940 C.3       1 NR4         0.1115
     21 CAU        -0.9450  -14.6170  -19.3670 C.3       1 NR4         0.1349
     22 CAV        -2.6910  -21.0720  -22.5240 C.3       1 NR4         0.1143
     23 CAW        -2.0270  -15.6800  -19.0430 C.3       1 NR4         0.1711
     24 CAX        -2.3530  -20.3510  -21.2490 C.3       1 NR4         0.1429
     25 SAY        -2.5150  -16.3410  -20.6720 S.3       1 NR4         0.0029
     26 SAZ        -2.2730  -21.3450  -18.9670 S.o2      1 NR4        -0.0733
     27 H1         -1.2853  -24.8960  -22.3027 H         1 NR4         0.2095
     28 H2         -4.0905  -14.1396  -19.5648 H         1 NR4         0.2096
     29 H3         -3.5329  -24.2621  -23.4684 H         1 NR4         0.2100
     30 H4          1.4835  -14.8134  -21.5818 H         1 NR4         0.2101
     31 H5         -1.2853  -18.7192  -22.8146 H         1 NR4         0.2101
     32 H6         -2.9062  -22.9542  -20.7889 H         1 NR4         0.2100
     33 H7         -0.6049  -14.0491  -17.5135 H         1 NR4         0.2101
     34 H8         -4.3102  -21.4072  -23.5688 H         1 NR4         0.2100
     35 H9         -1.2778  -24.8613  -24.6554 H         1 NR4         0.0584
     36 H10        -0.0855  -23.5229  -24.5386 H         1 NR4         0.0584
     37 H11        -3.9370  -15.8464  -18.0108 H         1 NR4         0.0608
     38 H12        -2.7209  -14.8341  -17.1604 H         1 NR4         0.0608
     39 H13        -0.7527  -16.1089  -22.4324 H         1 NR4         0.0867
     40 H14        -1.4963  -14.5189  -22.0508 H         1 NR4         0.0867
     41 H15        -0.9906  -18.1716  -20.5292 H         1 NR4         0.0867
     42 H16        -2.4230  -18.4005  -19.4698 H         1 NR4         0.0867
     43 H17        -1.9239  -22.1897  -24.6151 H         1 NR4         0.0643
     44 H18         0.2552  -16.2450  -20.1779 H         1 NR4         0.0668
     45 H19        -3.8254  -18.7876  -21.5004 H         1 NR4         0.0668
     46 H20        -1.0789  -22.4108  -22.0975 H         1 NR4         0.0647
     47 H21        -1.3861  -13.6574  -19.6744 H         1 NR4         0.0672
     48 H22        -2.2138  -20.5384  -23.3592 H         1 NR4         0.0648
     49 H23        -1.5659  -16.4996  -18.4723 H         1 NR4         0.0928
     50 H24        -1.2755  -20.4371  -21.0450 H         1 NR4         0.0674
@<TRIPOS>BOND
     1   12    1 1  
     2   13    2 1  
     3   17    3 1  
     4   18    4 1  
     5   19    5 1  
     6   20    6 1  
     7   21    7 1  
     8   22    8 1  
     9   26    9 ar 
    10   26   10 ar 
    11   26   11 ar 
    12   17   12 1  
    13   23   13 1  
    14   14   18 1  
    15   25   14 1  
    16   19   15 1  
    17   15   25 1  
    18   24   16 1  
    19   16   26 1  
    20   20   17 1  
    21   18   21 1  
    22   24   19 1  
    23   22   20 1  
    24   21   23 1  
    25   22   24 1  
    26   23   25 1  
    27    1   27 1  
    28    2   28 1  
    29    3   29 1  
    30    4   30 1  
    31    5   31 1  
    32    6   32 1  
    33    7   33 1  
    34    8   34 1  
    35   12   35 1  
    36   12   36 1  
    37   13   37 1  
    38   13   38 1  
    39   14   39 1  
    40   14   40 1  
    41   15   41 1  
    42   15   42 1  
    43   17   43 1  
    44   18   44 1  
    45   19   45 1  
    46   20   46 1  
    47   21   47 1  
    48   22   48 1  
    49   23   49 1  
    50   24   50 1  
@<TRIPOS>SUBSTRUCTURE
     1 NR4         1

