### 
### Created by X-TOOL on Mon Sep 10 21:13:03 2018
### 

@<TRIPOS>MOLECULE
3l4z_ligand
   38    38     1     0     0
SMALL
GAST_HUCK


@<TRIPOS>ATOM
      1 C1         45.5930   94.3270   35.6510 C.3       1 SSD         0.1349
      2 C2         46.4390   93.6620   34.5700 C.3       1 SSD         0.1303
      3 C3         45.4420   93.4090   33.4200 C.3       1 SSD         0.1386
      4 C5         44.4620   93.3080   35.9670 C.3       1 SSD         0.1711
      5 S4         43.9910   92.7450   34.3170 S.3       1 SSD         0.0029
      6 O2         47.4560   94.6280   34.1970 O.3       1 SSD        -0.3844
      7 O1         46.4190   94.5190   36.7990 O.3       1 SSD        -0.3840
      8 C6         43.3230   93.9460   36.7850 C.3       1 SSD         0.0944
      9 O6         42.8480   95.1280   36.1600 O.3       1 SSD        -0.3900
     10 C7         44.3280   90.9610   34.4780 C.3       1 SSD         0.1386
     11 C8         43.7480   90.0630   33.3930 C.3       1 SSD         0.1301
     12 C9         44.0570   88.5990   33.7370 C.3       1 SSD         0.1376
     13 C10        43.5760   87.6740   32.6200 C.3       1 SSD         0.0752
     14 O10        42.2760   88.1380   32.2820 O.3       1 SSD        -0.3923
     15 O8         44.3130   90.3770   32.1290 O.3       1 SSD        -0.3844
     16 O9         43.3690   88.2440   34.9500 O.3       1 SSD        -0.2574
     17 S9         44.0760   87.6120   36.0520 S.o2      1 SSD        -0.0733
     18 O11        45.0180   88.5450   36.7410 O.co2     1 SSD        -0.4611
     19 O12        43.0620   87.1850   37.0990 O.co2     1 SSD        -0.4611
     20 O13        44.8470   86.4340   35.5370 O.co2     1 SSD        -0.4611
     21 H1         45.1782   95.2863   35.3080 H         1 SSD         0.0672
     22 H2         46.8982   92.7236   34.9143 H         1 SSD         0.0668
     23 H3         45.8377   92.6762   32.7014 H         1 SSD         0.0867
     24 H4         45.1939   94.3422   32.8931 H         1 SSD         0.0867
     25 H5         44.8603   92.4629   36.5477 H         1 SSD         0.0928
     26 H6         47.9402   94.3028   33.4472 H         1 SSD         0.2101
     27 H7         47.1052   95.1429   36.5932 H         1 SSD         0.2101
     28 H8         43.6972   94.1955   37.7888 H         1 SSD         0.0608
     29 H9         42.4951   93.2268   36.8705 H         1 SSD         0.0608
     30 H10        42.5203   94.9170   35.2936 H         1 SSD         0.2096
     31 H11        43.9176   90.6283   35.4428 H         1 SSD         0.0867
     32 H12        45.4195   90.8249   34.4773 H         1 SSD         0.0867
     33 H13        42.6585   90.2073   33.3475 H         1 SSD         0.0668
     34 H14        45.1416   88.4770   33.8742 H         1 SSD         0.0670
     35 H15        43.5337   86.6331   32.9732 H         1 SSD         0.0584
     36 H16        44.2464   87.7392   31.7504 H         1 SSD         0.0584
     37 H17        42.3292   89.0402   31.9891 H         1 SSD         0.2095
     38 H18        45.2538   90.2495   32.1634 H         1 SSD         0.2101
@<TRIPOS>BOND
     1    1    2 1  
     2    1    4 1  
     3    1    7 1  
     4    2    3 1  
     5    2    6 1  
     6    3    5 1  
     7    4    5 1  
     8    4    8 1  
     9    5   10 1  
    10    8    9 1  
    11   10   11 1  
    12   11   12 1  
    13   11   15 1  
    14   12   13 1  
    15   12   16 1  
    16   13   14 1  
    17   16   17 1  
    18   17   18 ar 
    19   17   19 ar 
    20   17   20 ar 
    21    1   21 1  
    22    2   22 1  
    23    3   23 1  
    24    3   24 1  
    25    4   25 1  
    26    6   26 1  
    27    7   27 1  
    28    8   28 1  
    29    8   29 1  
    30    9   30 1  
    31   10   31 1  
    32   10   32 1  
    33   11   33 1  
    34   12   34 1  
    35   13   35 1  
    36   13   36 1  
    37   14   37 1  
    38   15   38 1  
@<TRIPOS>SUBSTRUCTURE
     1 SSD         1

