### 
### Created by X-TOOL on Mon Sep 10 21:13:04 2018
### 

@<TRIPOS>MOLECULE
3l54_ligand
   38    42     1     0     0
SMALL
GAST_HUCK


@<TRIPOS>ATOM
      1 C1         27.2000   13.5330   19.0520 C.2       1 LXX         0.0305
      2 N2         28.5530   13.3400   19.0890 N.2       1 LXX        -0.1984
      3 N3         29.0360   12.9930   20.2950 N.pl3     1 LXX        -0.1969
      4 C4         27.9490   12.9630   21.0730 C.ar      1 LXX         0.1598
      5 N5         27.8690   12.6710   22.3760 N.ar      1 LXX        -0.2755
      6 C6         26.5960   12.7500   22.7880 C.ar      1 LXX         0.0097
      7 C7         25.4470   13.0700   22.0860 C.ar      1 LXX         0.0026
      8 C8         25.4890   13.3740   20.7410 C.ar      1 LXX        -0.0358
      9 C9         26.7970   13.2940   20.3410 C.ar      1 LXX         0.0376
     10 C10        24.1670   13.0540   22.7320 C.ar      1 LXX        -0.0116
     11 C11        23.8100   11.9710   23.4920 C.ar      1 LXX        -0.0487
     12 C12        22.5640   11.9090   24.0610 C.ar      1 LXX        -0.0388
     13 C13        21.6440   12.9170   23.9000 C.ar      1 LXX         0.0470
     14 N14        20.4470   12.8030   24.4790 N.ar      1 LXX        -0.2957
     15 C15        19.6030   13.8140   24.2920 C.ar      1 LXX         0.0111
     16 C16        19.8910   14.9350   23.5570 C.ar      1 LXX        -0.0231
     17 C17        21.1260   15.0460   22.9650 C.ar      1 LXX         0.0158
     18 C18        21.4300   16.2380   22.2140 C.ar      1 LXX         0.0114
     19 C19        20.5800   16.7010   21.2380 C.ar      1 LXX        -0.0236
     20 C20        20.9060   17.8610   20.5740 C.ar      1 LXX         0.0127
     21 N21        21.9940   18.6000   20.8020 N.ar      1 LXX        -0.2963
     22 C22        22.7970   18.1250   21.7560 C.ar      1 LXX         0.0127
     23 C23        22.5640   16.9750   22.4720 C.ar      1 LXX        -0.0236
     24 C24        22.0190   14.0130   23.1490 C.ar      1 LXX         0.0149
     25 C25        23.2630   14.0740   22.5660 C.ar      1 LXX        -0.0392
     26 H1         26.5851   13.8118   18.1975 H         1 LXX         0.0738
     27 H2         30.0125   12.7967   20.5574 H         1 LXX         0.2498
     28 H3         26.4419   12.5280   23.8378 H         1 LXX         0.0813
     29 H4         24.6418   13.6295   20.1149 H         1 LXX         0.0738
     30 H5         24.5145   11.1612   23.6437 H         1 LXX         0.0655
     31 H6         22.2975   11.0415   24.6538 H         1 LXX         0.0644
     32 H7         18.6232   13.7472   24.7509 H         1 LXX         0.0857
     33 H8         19.1548   15.7226   23.4445 H         1 LXX         0.0710
     34 H9         19.6707   16.1627   20.9962 H         1 LXX         0.0732
     35 H10        20.2243   18.2024   19.8035 H         1 LXX         0.0826
     36 H11        23.6967   18.6857   21.9824 H         1 LXX         0.0826
     37 H12        23.2660   16.6516   23.2321 H         1 LXX         0.0732
     38 H13        23.5330   14.9373   21.9685 H         1 LXX         0.0645
@<TRIPOS>BOND
     1    1    2 2  
     2    1    9 1  
     3    2    3 1  
     4    3    4 1  
     5    4    5 ar 
     6    4    9 ar 
     7    5    6 ar 
     8    6    7 ar 
     9    7    8 ar 
    10    7   10 1  
    11    8    9 ar 
    12   10   11 ar 
    13   10   25 ar 
    14   11   12 ar 
    15   12   13 ar 
    16   13   14 ar 
    17   13   24 ar 
    18   14   15 ar 
    19   15   16 ar 
    20   16   17 ar 
    21   17   18 1  
    22   17   24 ar 
    23   18   19 ar 
    24   18   23 ar 
    25   19   20 ar 
    26   20   21 ar 
    27   21   22 ar 
    28   22   23 ar 
    29   24   25 ar 
    30    1   26 1  
    31    3   27 1  
    32    6   28 1  
    33    8   29 1  
    34   11   30 1  
    35   12   31 1  
    36   15   32 1  
    37   16   33 1  
    38   19   34 1  
    39   20   35 1  
    40   22   36 1  
    41   23   37 1  
    42   25   38 1  
@<TRIPOS>SUBSTRUCTURE
     1 LXX         1

