### 
### Created by X-TOOL on Mon Sep 10 21:13:03 2018
### 

@<TRIPOS>MOLECULE
3l58_ligand
   84    86     1     0     0
SMALL
GAST_HUCK


@<TRIPOS>ATOM
      1 C1         27.0810   15.4430   24.4790 C.ar      1 CS5        -0.0367
      2 C2         25.7930   15.7870   24.9770 C.ar      1 CS5        -0.0353
      3 C3         24.6770   14.9440   24.7060 C.ar      1 CS5        -0.0367
      4 C4         24.8450   13.7550   23.9370 C.ar      1 CS5         0.0488
      5 C5         26.1390   13.4060   23.4470 C.ar      1 CS5        -0.0289
      6 C6         27.2620   14.2480   23.7230 C.ar      1 CS5         0.0490
      7 C7         28.6220   13.8620   23.3120 C.2       1 CS5         0.2069
      8 N1         28.8520   13.6800   21.9720 N.am      1 CS5        -0.2724
      9 O1         29.5250   13.7050   24.1330 O.2       1 CS5        -0.3844
     10 C8         27.9230   14.1110   20.9160 C.3       1 CS5         0.0331
     11 C9         28.5830   15.0980   19.9700 C.3       1 CS5        -0.0354
     12 C10        29.0380   16.3550   20.6820 C.3       1 CS5        -0.0634
     13 C11        30.1240   13.0590   21.6070 C.3       1 CS5         0.0331
     14 C12        29.9390   11.6090   21.1600 C.3       1 CS5        -0.0354
     15 C13        29.2920   10.7560   22.2160 C.3       1 CS5        -0.0634
     16 C14        23.6820   12.9030   23.6520 C.2       1 CS5         0.2049
     17 N2         23.9790   11.5950   23.5110 N.am      1 CS5        -0.2784
     18 O2         22.5280   13.3310   23.5510 O.2       1 CS5        -0.3846
     19 C15        22.9110   10.6790   23.1130 C.3       1 CS5         0.0817
     20 C16        22.4280    9.8910   24.3390 C.3       1 CS5         0.1192
     21 C17        23.3940    9.7320   22.0030 C.3       1 CS5         0.0048
     22 O3         23.5640    9.3860   25.0430 O.3       1 CS5        -0.3841
     23 C18        21.6150   10.7940   25.2750 C.3       1 CS5        -0.0033
     24 N3         20.9930    9.9750   26.3310 N.4       1 CS5         0.2408
     25 C19        20.0640   10.7720   27.1630 C.3       1 CS5        -0.0023
     26 C20        18.8600   11.2940   26.3940 C.ar      1 CS5        -0.0075
     27 C21        23.9800   10.5300   20.8560 C.ar      1 CS5        -0.0445
     28 C22        25.3320   10.3210   20.4570 C.ar      1 CS5        -0.0310
     29 C23        25.8830   11.0830   19.3870 C.ar      1 CS5         0.1242
     30 C24        25.0840   12.0530   18.7170 C.ar      1 CS5        -0.0019
     31 C25        23.7350   12.2620   19.1190 C.ar      1 CS5         0.1242
     32 C26        23.1830   11.4990   20.1820 C.ar      1 CS5        -0.0310
     33 C27        18.5290   12.6820   26.4550 C.ar      1 CS5        -0.0664
     34 C28        17.4110   13.1800   25.7210 C.ar      1 CS5        -0.0770
     35 C29        16.6210   12.2910   24.9240 C.ar      1 CS5        -0.0401
     36 C30        16.9490   10.9030   24.8610 C.ar      1 CS5         0.0842
     37 C31        18.0690   10.4060   25.6060 C.ar      1 CS5        -0.0272
     38 O4         16.1970   10.0640   24.0490 O.3       1 CS5        -0.3230
     39 C32        15.7950    8.8620   24.7170 C.3       1 CS5         0.0592
     40 C33        25.6190   17.0080   25.7800 C.3       1 CS5        -0.0293
     41 F2         27.1510   10.8930   19.0130 F         1 CS5        -0.1863
     42 F1         22.9910   13.1920   18.5130 F         1 CS5        -0.1863
     43 H1         27.9271   16.0917   24.6751 H         1 CS5         0.0642
     44 H2         23.6965   15.2074   25.0858 H         1 CS5         0.0642
     45 H3         26.2712   12.5013   22.8647 H         1 CS5         0.0665
     46 H4         27.0490   14.5903   21.3813 H         1 CS5         0.0522
     47 H5         27.5969   13.2298   20.3441 H         1 CS5         0.0522
     48 H6         27.8615   15.3755   19.1874 H         1 CS5         0.0282
     49 H7         29.4574   14.6160   19.5084 H         1 CS5         0.0282
     50 H8         29.5081   17.0367   19.9579 H         1 CS5         0.0230
     51 H9         29.7661   16.0909   21.4630 H         1 CS5         0.0230
     52 H10        28.1703   16.8504   21.1420 H         1 CS5         0.0230
     53 H11        30.7940   13.0802   22.4791 H         1 CS5         0.0522
     54 H12        30.5762   13.6308   20.7832 H         1 CS5         0.0522
     55 H13        30.9256   11.1855   20.9209 H         1 CS5         0.0282
     56 H14        29.3064   11.5958   20.2602 H         1 CS5         0.0282
     57 H15        29.1843    9.7274   21.8413 H         1 CS5         0.0230
     58 H16        28.2996   11.1634   22.4592 H         1 CS5         0.0230
     59 H17        29.9188   10.7531   23.1199 H         1 CS5         0.0230
     60 H18        24.9068   11.2598   23.6746 H         1 CS5         0.1851
     61 H19        22.0691   11.2692   22.7221 H         1 CS5         0.0606
     62 H20        21.7980    9.0527   24.0069 H         1 CS5         0.0672
     63 H21        22.5439    9.1381   21.6360 H         1 CS5         0.0448
     64 H22        24.1637    9.0589   22.4085 H         1 CS5         0.0448
     65 H23        23.2722    8.8969   25.8034 H         1 CS5         0.2101
     66 H24        20.8306   11.3071   24.6993 H         1 CS5         0.0840
     67 H25        22.2804   11.5400   25.7339 H         1 CS5         0.0840
     68 H26        21.7175    9.5966   26.9208 H         1 CS5         0.2029
     69 H27        20.4814    9.2204   25.9010 H         1 CS5         0.2029
     70 H28        20.6141   11.6312   27.5743 H         1 CS5         0.0978
     71 H29        19.7035   10.1388   27.9871 H         1 CS5         0.0978
     72 H30        25.9404    9.5830   20.9671 H         1 CS5         0.0508
     73 H31        25.5030   12.6315   17.9016 H         1 CS5         0.0532
     74 H32        22.1527   11.6545   20.4811 H         1 CS5         0.0508
     75 H33        19.1262   13.3563   27.0580 H         1 CS5         0.0466
     76 H34        17.1595   14.2334   25.7670 H         1 CS5         0.0572
     77 H35        15.7725   12.6724   24.3675 H         1 CS5         0.0486
     78 H36        18.3156    9.3510   25.5702 H         1 CS5         0.0480
     79 H37        15.2052    8.2394   24.0281 H         1 CS5         0.0577
     80 H38        15.1837    9.1174   25.5951 H         1 CS5         0.0577
     81 H39        16.6874    8.3063   25.0405 H         1 CS5         0.0577
     82 H40        26.5863   17.5222   25.8796 H         1 CS5         0.0391
     83 H41        25.2418   16.7399   26.7779 H         1 CS5         0.0391
     84 H42        24.8990   17.6745   25.2826 H         1 CS5         0.0391
@<TRIPOS>BOND
     1    1    2 ar 
     2    1    6 ar 
     3    2    3 ar 
     4    2   40 1  
     5    3    4 ar 
     6    4    5 ar 
     7    4   16 1  
     8    5    6 ar 
     9    6    7 1  
    10    7    8 am 
    11    7    9 2  
    12    8   10 1  
    13    8   13 1  
    14   10   11 1  
    15   11   12 1  
    16   13   14 1  
    17   14   15 1  
    18   16   17 am 
    19   16   18 2  
    20   17   19 1  
    21   19   20 1  
    22   19   21 1  
    23   20   22 1  
    24   20   23 1  
    25   21   27 1  
    26   23   24 1  
    27   24   25 1  
    28   25   26 1  
    29   26   33 ar 
    30   26   37 ar 
    31   27   28 ar 
    32   27   32 ar 
    33   28   29 ar 
    34   29   30 ar 
    35   29   41 1  
    36   30   31 ar 
    37   31   32 ar 
    38   31   42 1  
    39   33   34 ar 
    40   34   35 ar 
    41   35   36 ar 
    42   36   37 ar 
    43   36   38 1  
    44   38   39 1  
    45    1   43 1  
    46    3   44 1  
    47    5   45 1  
    48   10   46 1  
    49   10   47 1  
    50   11   48 1  
    51   11   49 1  
    52   12   50 1  
    53   12   51 1  
    54   12   52 1  
    55   13   53 1  
    56   13   54 1  
    57   14   55 1  
    58   14   56 1  
    59   15   57 1  
    60   15   58 1  
    61   15   59 1  
    62   17   60 1  
    63   19   61 1  
    64   20   62 1  
    65   21   63 1  
    66   21   64 1  
    67   22   65 1  
    68   23   66 1  
    69   23   67 1  
    70   24   68 1  
    71   24   69 1  
    72   25   70 1  
    73   25   71 1  
    74   28   72 1  
    75   30   73 1  
    76   32   74 1  
    77   33   75 1  
    78   34   76 1  
    79   35   77 1  
    80   37   78 1  
    81   39   79 1  
    82   39   80 1  
    83   39   81 1  
    84   40   82 1  
    85   40   83 1  
    86   40   84 1  
@<TRIPOS>SUBSTRUCTURE
     1 CS5         1

