### 
### Created by X-TOOL on Mon Sep 10 21:13:03 2018
### 

@<TRIPOS>MOLECULE
3l59_ligand
   32    33     1     0     0
SMALL
GAST_HUCK


@<TRIPOS>ATOM
      1 C1         21.8790   10.2430   24.6060 C.cat     1 BDJ         0.3324
      2 N1         21.8050   10.8280   25.8180 N.pl3     1 BDJ        -0.2323
      3 O1         19.4080   12.4070   23.7710 O.2       1 BDJ        -0.3393
      4 C2         20.2960   11.7210   24.2840 C.2       1 BDJ         0.2531
      5 N2         21.0120   10.7430   23.7050 N.am      1 BDJ        -0.1938
      6 C3         20.7700   11.8420   25.7270 C.3       1 BDJ         0.1835
      7 N3         22.7220    9.2610   24.3100 N.pl3     1 BDJ        -0.2539
      8 C4         19.5620   11.4830   26.6010 C.3       1 BDJ        -0.0103
      9 C5         21.3460   13.2660   25.9330 C.3       1 BDJ        -0.0103
     10 C6         20.8800   10.3020   22.3180 C.3       1 BDJ         0.0698
     11 C7         21.8480   11.0640   21.4370 C.ar      1 BDJ        -0.0204
     12 C8         21.5880   12.4270   21.1030 C.ar      1 BDJ        -0.0583
     13 C9         22.4990   13.1500   20.2760 C.ar      1 BDJ        -0.0680
     14 C10        23.6710   12.5130   19.7850 C.ar      1 BDJ        -0.0548
     15 C11        23.9350   11.1570   20.1150 C.ar      1 BDJ         0.0338
     16 C12        23.0270   10.4300   20.9410 C.ar      1 BDJ        -0.0445
     17 CL1        25.3620   10.3970   19.5100 Cl        1 BDJ        -0.0725
     18 H1         22.3721   10.6001   26.6471 H         1 BDJ         0.3214
     19 H2         23.3704    8.9053   25.0269 H         1 BDJ         0.3199
     20 H3         22.7276    8.8549   23.3635 H         1 BDJ         0.3199
     21 H4         18.7975   12.2687   26.5104 H         1 BDJ         0.0265
     22 H5         19.8804   11.4005   27.6507 H         1 BDJ         0.0265
     23 H6         19.1416   10.5224   26.2688 H         1 BDJ         0.0265
     24 H7         20.5342   14.0044   25.8572 H         1 BDJ         0.0265
     25 H8         22.1016   13.4712   25.1604 H         1 BDJ         0.0265
     26 H9         21.8109   13.3331   26.9276 H         1 BDJ         0.0265
     27 H10        19.8517   10.4864   21.9736 H         1 BDJ         0.0684
     28 H11        21.1003    9.2261   22.2554 H         1 BDJ         0.0684
     29 H12        20.6957   12.9146   21.4787 H         1 BDJ         0.0559
     30 H13        22.2973   14.1844   20.0224 H         1 BDJ         0.0599
     31 H14        24.3639   13.0626   19.1582 H         1 BDJ         0.0565
     32 H15        23.2324    9.3957   21.1921 H         1 BDJ         0.0562
@<TRIPOS>BOND
     1    1    2 ar 
     2    5    1 ar 
     3    1    7 ar 
     4    2    6 1  
     5    4    3 2  
     6    4    5 am 
     7    4    6 1  
     8    5   10 1  
     9    6    8 1  
    10    6    9 1  
    11   10   11 1  
    12   11   12 ar 
    13   11   16 ar 
    14   12   13 ar 
    15   13   14 ar 
    16   14   15 ar 
    17   15   16 ar 
    18   15   17 1  
    19    2   18 1  
    20    7   19 1  
    21    7   20 1  
    22    8   21 1  
    23    8   22 1  
    24    8   23 1  
    25    9   24 1  
    26    9   25 1  
    27    9   26 1  
    28   10   27 1  
    29   10   28 1  
    30   12   29 1  
    31   13   30 1  
    32   14   31 1  
    33   16   32 1  
@<TRIPOS>SUBSTRUCTURE
     1 BDJ         1

