### 
### Created by X-TOOL on Mon Sep 10 21:13:03 2018
### 

@<TRIPOS>MOLECULE
3l5b_ligand
   41    42     1     0     0
SMALL
GAST_HUCK


@<TRIPOS>ATOM
      1 C1         22.1650    9.8130   23.6830 C.cat     1 BDO         0.3324
      2 N1         21.7480    9.3120   22.4990 N.pl3     1 BDO        -0.2321
      3 O1         21.3280   12.8060   22.3370 O.2       1 BDO        -0.3393
      4 C2         21.5340   11.6290   22.6320 C.2       1 BDO         0.2534
      5 N2         22.0270   11.1490   23.7890 N.am      1 BDO        -0.1938
      6 C3         21.2560   10.4370   21.7180 C.3       1 BDO         0.1865
      7 N3         22.6600    9.0730   24.6710 N.pl3     1 BDO        -0.2539
      8 C4         22.0220   10.5800   20.3970 C.3       1 BDO         0.0041
      9 C5         19.7270   10.3550   21.5390 C.3       1 BDO        -0.0100
     10 C6         22.3240   11.9460   24.9790 C.3       1 BDO         0.0698
     11 C7         21.0540   12.3310   25.7030 C.ar      1 BDO        -0.0204
     12 C8         20.6480   11.6140   26.8670 C.ar      1 BDO        -0.0583
     13 C9         19.4310   11.9570   27.5250 C.ar      1 BDO        -0.0680
     14 C10        18.6220   13.0210   27.0240 C.ar      1 BDO        -0.0548
     15 C11        19.0330   13.7440   25.8650 C.ar      1 BDO         0.0338
     16 C12        20.2500   13.4000   25.2080 C.ar      1 BDO        -0.0445
     17 C13        24.3280    9.7900   21.0460 C.3       1 BDO        -0.0626
     18 C14        24.0490   11.6300   19.3430 C.3       1 BDO        -0.0626
     19 C15        23.4890   10.9730   20.5950 C.3       1 BDO        -0.0430
     20 CL1        18.0530   15.0370   25.2450 Cl        1 BDO        -0.0725
     21 H          21.7733    8.3344   22.2090 H         1 BDO         0.3214
     22 H          22.9493    9.5149   25.5436 H         1 BDO         0.3199
     23 H          22.7504    8.0635   24.5561 H         1 BDO         0.3199
     24 H          21.5420   11.3695   19.8188 H         1 BDO         0.0304
     25 H          22.0024    9.6124   19.8955 H         1 BDO         0.0304
     26 H          19.3703   11.2625   21.0518 H         1 BDO         0.0265
     27 H          19.4804    9.4897   20.9237 H         1 BDO         0.0265
     28 H          19.2530   10.2550   22.5154 H         1 BDO         0.0265
     29 H          22.8408   12.8551   24.6714 H         1 BDO         0.0684
     30 H          22.9442   11.3533   25.6514 H         1 BDO         0.0684
     31 H          21.2676   10.8046   27.2530 H         1 BDO         0.0559
     32 H          19.1177   11.4061   28.4118 H         1 BDO         0.0599
     33 H          17.6905   13.2809   27.5269 H         1 BDO         0.0565
     34 H          20.5671   13.9551   24.3252 H         1 BDO         0.0562
     35 H          23.9414    9.4118   21.9924 H         1 BDO         0.0232
     36 H          24.2802    9.0039   20.2924 H         1 BDO         0.0232
     37 H          25.3624   10.1082   21.1757 H         1 BDO         0.0232
     38 H          23.9822   10.9331   18.5076 H         1 BDO         0.0232
     39 H          23.4729   12.5272   19.1164 H         1 BDO         0.0232
     40 H          25.0919   11.8990   19.5108 H         1 BDO         0.0232
     41 H          23.5345   11.7106   21.3963 H         1 BDO         0.0296
@<TRIPOS>BOND
     1    1    2 ar 
     2    5    1 ar 
     3    1    7 ar 
     4    2    6 1  
     5    4    3 2  
     6    4    5 am 
     7    4    6 1  
     8    5   10 1  
     9    6    8 1  
    10    6    9 1  
    11    8   19 1  
    12   10   11 1  
    13   11   12 ar 
    14   11   16 ar 
    15   12   13 ar 
    16   13   14 ar 
    17   14   15 ar 
    18   15   16 ar 
    19   15   20 1  
    20   19   17 1  
    21   19   18 1  
    22    2   21 1  
    23    7   22 1  
    24    7   23 1  
    25    8   24 1  
    26    8   25 1  
    27    9   26 1  
    28    9   27 1  
    29    9   28 1  
    30   10   29 1  
    31   10   30 1  
    32   12   31 1  
    33   13   32 1  
    34   14   33 1  
    35   16   34 1  
    36   17   35 1  
    37   17   36 1  
    38   17   37 1  
    39   18   38 1  
    40   18   39 1  
    41   18   40 1  
    42   19   41 1  
@<TRIPOS>SUBSTRUCTURE
     1 BDO         1

