### 
### Created by X-TOOL on Mon Sep 10 21:13:03 2018
### 

@<TRIPOS>MOLECULE
3l5c_ligand
   61    63     1     0     0
SMALL
GAST_HUCK


@<TRIPOS>ATOM
      1 C1         21.4880   12.3400   25.1460 C.3       1 BDQ         0.1865
      2 N1         22.0970   11.0640   25.4920 N.pl3     1 BDQ        -0.2321
      3 O1         20.3700   12.9330   23.0460 O.2       1 BDQ        -0.3393
      4 C2         21.9300   10.2520   24.4270 C.cat     1 BDQ         0.3323
      5 N2         21.2800   10.8310   23.3920 N.am      1 BDQ        -0.1948
      6 O2         25.6990   13.9260   19.7700 O.2       1 BDQ        -0.3885
      7 C3         20.9650   12.0970   23.7300 C.2       1 BDQ         0.2533
      8 N3         22.3640    8.9960   24.3830 N.pl3     1 BDQ        -0.2539
      9 C4         22.5400   13.4600   25.0550 C.3       1 BDQ        -0.0100
     10 N4         25.1190   13.0410   17.7630 N.am      1 BDQ        -0.2568
     11 C5         20.3320   12.6590   26.0830 C.3       1 BDQ         0.0041
     12 N5         25.1980   15.2910   18.0210 N.am      1 BDQ        -0.2128
     13 C6         19.5980   11.3920   26.5250 C.3       1 BDQ        -0.0430
     14 N6         26.2010   21.0630   21.4960 N.1       1 BDQ        -0.3419
     15 C7         18.1060   11.4860   26.2150 C.3       1 BDQ        -0.0626
     16 C8         19.8800   11.0750   27.9920 C.3       1 BDQ        -0.0626
     17 C9         21.0240   10.2150   22.0890 C.3       1 BDQ         0.0667
     18 C10        22.1110   10.5900   21.1060 C.ar      1 BDQ        -0.0276
     19 C11        23.2850    9.7880   20.9970 C.ar      1 BDQ        -0.0648
     20 C12        24.3090   10.1470   20.0740 C.ar      1 BDQ        -0.0649
     21 C13        24.1650   11.3040   19.2570 C.ar      1 BDQ        -0.0279
     22 C14        22.9890   12.1050   19.3680 C.ar      1 BDQ        -0.0649
     23 C15        21.9650   11.7480   20.2920 C.ar      1 BDQ        -0.0648
     24 C16        25.2630   11.6770   18.2750 C.3       1 BDQ         0.0624
     25 C17        25.4000   16.4440   18.7150 C.ar      1 BDQ         0.0779
     26 C18        24.5830   16.7550   19.8420 C.ar      1 BDQ        -0.0292
     27 C19        26.4300   17.3470   18.3120 C.ar      1 BDQ        -0.0292
     28 C20        24.7930   17.9630   20.5690 C.ar      1 BDQ        -0.0405
     29 C21        26.6410   18.5570   19.0410 C.ar      1 BDQ        -0.0405
     30 C22        25.3610   14.0780   18.5930 C.2       1 BDQ         0.2930
     31 C23        25.8230   18.8650   20.1680 C.ar      1 BDQ         0.0785
     32 C24        26.0340   20.0820   20.9010 C.1       1 BDQ         0.0832
     33 H          22.5604   10.8290   26.3697 H         1 BDQ         0.3214
     34 H          22.2106    8.4324   23.5468 H         1 BDQ         0.3199
     35 H          22.8503    8.5960   25.1855 H         1 BDQ         0.3199
     36 H          23.3484   13.1447   24.3953 H         1 BDQ         0.0265
     37 H          22.0751   14.3619   24.6567 H         1 BDQ         0.0265
     38 H          22.9388   13.6638   26.0488 H         1 BDQ         0.0265
     39 H          24.8405   13.2051   16.7956 H         1 BDQ         0.1879
     40 H          19.6260   13.2984   25.5530 H         1 BDQ         0.0304
     41 H          20.7331   13.1510   26.9691 H         1 BDQ         0.0304
     42 H          24.9158   15.3441   17.0422 H         1 BDQ         0.2306
     43 H          19.9832   10.5514   25.9478 H         1 BDQ         0.0296
     44 H          17.6796   12.3392   26.7426 H         1 BDQ         0.0232
     45 H          17.9666   11.6144   25.1416 H         1 BDQ         0.0232
     46 H          17.6103   10.5713   26.5402 H         1 BDQ         0.0232
     47 H          20.9506   10.9241   28.1305 H         1 BDQ         0.0232
     48 H          19.5457   11.9062   28.6128 H         1 BDQ         0.0232
     49 H          19.3443   10.1692   28.2761 H         1 BDQ         0.0232
     50 H          20.0653   10.5698   21.7107 H         1 BDQ         0.0671
     51 H          21.0089    9.1313   22.2053 H         1 BDQ         0.0671
     52 H          23.3988    8.9006   21.6197 H         1 BDQ         0.0540
     53 H          25.2063    9.5335   19.9930 H         1 BDQ         0.0540
     54 H          22.8740   12.9917   18.7446 H         1 BDQ         0.0540
     55 H          21.0687   12.3626   20.3755 H         1 BDQ         0.0540
     56 H          26.2172   11.6135   18.7980 H         1 BDQ         0.0668
     57 H          25.2036   10.9925   17.4288 H         1 BDQ         0.0668
     58 H          23.7954   16.0666   20.1484 H         1 BDQ         0.0531
     59 H          27.0542   17.1133   17.4495 H         1 BDQ         0.0531
     60 H          24.1674   18.1973   21.4303 H         1 BDQ         0.0678
     61 H          27.4284   19.2461   18.7355 H         1 BDQ         0.0678
@<TRIPOS>BOND
     1    1    2 1  
     2    7    1 1  
     3    1    9 1  
     4    1   11 1  
     5    4    2 ar 
     6    7    3 2  
     7    5    4 ar 
     8    4    8 ar 
     9    5    7 am 
    10   17    5 1  
    11   30    6 2  
    12   10   24 1  
    13   30   10 am 
    14   11   13 1  
    15   25   12 1  
    16   12   30 am 
    17   13   15 1  
    18   13   16 1  
    19   32   14 3  
    20   18   17 1  
    21   19   18 ar 
    22   23   18 ar 
    23   20   19 ar 
    24   21   20 ar 
    25   21   22 ar 
    26   24   21 1  
    27   22   23 ar 
    28   26   25 ar 
    29   27   25 ar 
    30   28   26 ar 
    31   29   27 ar 
    32   31   28 ar 
    33   31   29 ar 
    34   31   32 1  
    35    2   33 1  
    36    8   34 1  
    37    8   35 1  
    38    9   36 1  
    39    9   37 1  
    40    9   38 1  
    41   10   39 1  
    42   11   40 1  
    43   11   41 1  
    44   12   42 1  
    45   13   43 1  
    46   15   44 1  
    47   15   45 1  
    48   15   46 1  
    49   16   47 1  
    50   16   48 1  
    51   16   49 1  
    52   17   50 1  
    53   17   51 1  
    54   19   52 1  
    55   20   53 1  
    56   22   54 1  
    57   23   55 1  
    58   24   56 1  
    59   24   57 1  
    60   26   58 1  
    61   27   59 1  
    62   28   60 1  
    63   29   61 1  
@<TRIPOS>SUBSTRUCTURE
     1 BDQ         1

