### 
### Created by X-TOOL on Mon Sep 10 21:13:03 2018
### 

@<TRIPOS>MOLECULE
3l5d_ligand
   62    63     1     0     0
SMALL
GAST_HUCK


@<TRIPOS>ATOM
      1 C1         20.6810   10.6720   21.7290 C.3       1 BDV         0.1865
      2 N1         21.2830    9.5630   22.4480 N.pl3     1 BDV        -0.2321
      3 O1         20.5470   13.0130   22.4570 O.2       1 BDV        -0.3393
      4 C2         21.7630   10.0660   23.6080 C.cat     1 BDV         0.3323
      5 N2         21.5530   11.3910   23.7570 N.am      1 BDV        -0.1948
      6 O2         28.3810   14.2820   24.6840 O.2       1 BDV        -0.4007
      7 C3         20.9070   11.8540   22.6750 C.2       1 BDV         0.2533
      8 N3         22.3880    9.3370   24.5310 N.pl3     1 BDV        -0.2539
      9 C4         19.1580   10.4820   21.5830 C.3       1 BDV        -0.0100
     10 N4         27.4880   15.0870   22.7670 N.am      1 BDV        -0.2629
     11 C5         21.3900   10.9180   20.3920 C.3       1 BDV         0.0041
     12 N5         29.3240   13.7470   22.6950 N.am      1 BDV        -0.2731
     13 C6         22.8940   11.1590   20.5390 C.3       1 BDV        -0.0430
     14 C7         23.4340   12.0520   19.4210 C.3       1 BDV        -0.0626
     15 C8         23.6780    9.8530   20.6550 C.3       1 BDV        -0.0626
     16 C9         21.9650   12.2050   24.9040 C.3       1 BDV         0.0667
     17 C10        23.1210   13.1300   24.5530 C.ar      1 BDV        -0.0276
     18 C11        23.1860   14.4410   25.1120 C.ar      1 BDV        -0.0648
     19 C12        24.2730   15.3070   24.7810 C.ar      1 BDV        -0.0649
     20 C13        25.2970   14.8650   23.8900 C.ar      1 BDV        -0.0279
     21 C14        25.2310   13.5550   23.3320 C.ar      1 BDV        -0.0649
     22 C15        24.1490   12.6920   23.6630 C.ar      1 BDV        -0.0648
     23 C16        26.4520   15.7820   23.5370 C.3       1 BDV         0.0618
     24 C17        29.2580   13.9080   21.2460 C.3       1 BDV         0.0312
     25 C18        28.4300   12.7910   20.6080 C.3       1 BDV        -0.0332
     26 C19        28.8260   11.4220   21.1330 C.3       1 BDV        -0.0541
     27 C20        28.3980   14.3670   23.4560 C.2       1 BDV         0.2591
     28 C21        28.2520   10.2950   20.2960 C.3       1 BDV        -0.0652
     29 H          21.3339    8.5926   22.1381 H         1 BDV         0.3214
     30 H          22.7265    9.7781   25.3862 H         1 BDV         0.3199
     31 H          22.5282    8.3376   24.3827 H         1 BDV         0.3199
     32 H          18.7233   10.2769   22.5613 H         1 BDV         0.0265
     33 H          18.7176   11.3902   21.1715 H         1 BDV         0.0265
     34 H          18.9601    9.6451   20.9133 H         1 BDV         0.0265
     35 H          27.5198   15.1454   21.7492 H         1 BDV         0.1870
     36 H          20.9549   11.8136   19.9486 H         1 BDV         0.0304
     37 H          21.2579   10.0256   19.7802 H         1 BDV         0.0304
     38 H          30.0543   13.1781   23.1233 H         1 BDV         0.1845
     39 H          23.0396   11.6943   21.4773 H         1 BDV         0.0296
     40 H          23.2543   11.5747   18.4577 H         1 BDV         0.0232
     41 H          22.9263   13.0161   19.4506 H         1 BDV         0.0232
     42 H          24.5049   12.1994   19.5607 H         1 BDV         0.0232
     43 H          23.3353    9.3015   21.5305 H         1 BDV         0.0232
     44 H          23.5162    9.2528   19.7596 H         1 BDV         0.0232
     45 H          24.7400   10.0761   20.7573 H         1 BDV         0.0232
     46 H          22.2909   11.5357   25.7002 H         1 BDV         0.0671
     47 H          21.1174   12.8171   25.2123 H         1 BDV         0.0671
     48 H          22.4056   14.7822   25.7922 H         1 BDV         0.0540
     49 H          24.3206   16.3079   25.2100 H         1 BDV         0.0540
     50 H          26.0105   13.2138   22.6508 H         1 BDV         0.0540
     51 H          24.1043   11.6906   23.2348 H         1 BDV         0.0540
     52 H          26.0651   16.5994   22.9284 H         1 BDV         0.0667
     53 H          26.8988   16.1405   24.4643 H         1 BDV         0.0667
     54 H          30.2699   13.8673   20.8430 H         1 BDV         0.0517
     55 H          28.7867   14.8648   21.0214 H         1 BDV         0.0517
     56 H          28.6044   12.8081   19.5322 H         1 BDV         0.0284
     57 H          27.3814   12.9606   20.8524 H         1 BDV         0.0284
     58 H          28.4358   11.3229   22.1459 H         1 BDV         0.0263
     59 H          29.9130   11.3485   21.0984 H         1 BDV         0.0263
     60 H          27.1638   10.3573   20.3023 H         1 BDV         0.0230
     61 H          28.6163   10.3825   19.2724 H         1 BDV         0.0230
     62 H          28.5649    9.3381   20.7138 H         1 BDV         0.0230
@<TRIPOS>BOND
     1    1    2 1  
     2    7    1 1  
     3    1    9 1  
     4    1   11 1  
     5    4    2 ar 
     6    7    3 2  
     7    5    4 ar 
     8    4    8 ar 
     9    5    7 am 
    10   16    5 1  
    11   27    6 2  
    12   23   10 1  
    13   10   27 am 
    14   11   13 1  
    15   12   24 1  
    16   27   12 am 
    17   13   14 1  
    18   13   15 1  
    19   17   16 1  
    20   18   17 ar 
    21   17   22 ar 
    22   19   18 ar 
    23   20   19 ar 
    24   20   21 ar 
    25   20   23 1  
    26   21   22 ar 
    27   24   25 1  
    28   25   26 1  
    29   26   28 1  
    30    2   29 1  
    31    8   30 1  
    32    8   31 1  
    33    9   32 1  
    34    9   33 1  
    35    9   34 1  
    36   10   35 1  
    37   11   36 1  
    38   11   37 1  
    39   12   38 1  
    40   13   39 1  
    41   14   40 1  
    42   14   41 1  
    43   14   42 1  
    44   15   43 1  
    45   15   44 1  
    46   15   45 1  
    47   16   46 1  
    48   16   47 1  
    49   18   48 1  
    50   19   49 1  
    51   21   50 1  
    52   22   51 1  
    53   23   52 1  
    54   23   53 1  
    55   24   54 1  
    56   24   55 1  
    57   25   56 1  
    58   25   57 1  
    59   26   58 1  
    60   26   59 1  
    61   28   60 1  
    62   28   61 1  
    63   28   62 1  
@<TRIPOS>SUBSTRUCTURE
     1 BDV         1

