### 
### Created by X-TOOL on Mon Sep 10 21:13:03 2018
### 

@<TRIPOS>MOLECULE
3l5e_ligand
   89    93     1     0     0
SMALL
GAST_HUCK


@<TRIPOS>ATOM
      1 C1         20.3470   10.8870   22.0080 C.3       1 BDW         0.1893
      2 N1         21.0260    9.7710   22.6680 N.pl3     1 BDW        -0.2319
      3 O1         20.2880   13.2200   22.7770 O.2       1 BDW        -0.3393
      4 C2         21.6220   10.2740   23.7840 C.cat     1 BDW         0.3323
      5 N2         21.4180   11.5980   23.9550 N.am      1 BDW        -0.1947
      6 O2         28.4740   14.4550   24.7430 O.2       1 BDW        -0.4005
      7 C3         20.6650   12.0640   22.9430 C.2       1 BDW         0.2536
      8 N3         22.3460    9.5500   24.6460 N.pl3     1 BDW        -0.2539
      9 C4         20.9180   11.1270   20.5880 C.3       1 BDW         0.0048
     10 N4         27.5370   15.0610   22.7630 N.am      1 BDW        -0.2471
     11 C5         18.8330   10.6660   21.9340 C.3       1 BDW         0.0023
     12 N5         29.3520   13.8200   22.7360 N.am      1 BDW        -0.2679
     13 C6         22.3870   11.5800   20.5360 C.3       1 BDW        -0.0373
     14 C7         21.9370   12.4150   25.0590 C.3       1 BDW         0.0667
     15 C8         23.0820   13.2950   24.6000 C.ar      1 BDW        -0.0276
     16 C9         22.9760   14.7140   24.6730 C.ar      1 BDW        -0.0648
     17 C10        24.0590   15.5380   24.2370 C.ar      1 BDW        -0.0649
     18 C11        25.2520   14.9460   23.7260 C.ar      1 BDW        -0.0277
     19 C12        25.3490   13.5210   23.6560 C.ar      1 BDW        -0.0649
     20 C13        24.2720   12.7010   24.0900 C.ar      1 BDW        -0.0648
     21 C14        23.3360   10.4030   20.7660 C.3       1 BDW        -0.0502
     22 C15        24.7960   10.7240   20.4620 C.3       1 BDW        -0.0528
     23 C16        24.9600   11.2420   19.0450 C.3       1 BDW        -0.0530
     24 C17        24.1390   12.5040   18.8620 C.3       1 BDW        -0.0528
     25 C18        22.6670   12.2530   19.1830 C.3       1 BDW        -0.0502
     26 C19        18.1750   10.6840   23.3010 C.3       1 BDW        -0.0465
     27 C22        26.4000   15.8400   23.2670 C.3       1 BDW         0.0649
     28 C23        27.7150   14.9140   21.3320 C.3       1 BDW         0.0590
     29 C24        28.9830   14.0280   21.3240 C.3       1 BDW         0.0626
     30 C25        28.4600   14.4450   23.5110 C.2       1 BDW         0.2620
     31 C26        28.6160   12.6810   20.6720 C.3       1 BDW        -0.0285
     32 C27        29.1970   11.4300   21.2870 C.3       1 BDW        -0.0538
     33 C28        28.5700   10.1590   20.6830 C.3       1 BDW        -0.0652
     34 C29        16.7170   10.2260   23.2770 C.3       1 BDW        -0.0410
     35 C30        16.1830   10.1010   24.6990 C.3       1 BDW        -0.0502
     36 C31        14.7050    9.7250   24.7480 C.3       1 BDW        -0.0528
     37 C32        13.8560   10.7110   23.9440 C.3       1 BDW        -0.0530
     38 C33        14.3560   10.8830   22.5120 C.3       1 BDW        -0.0528
     39 C34        15.8540   11.1840   22.4490 C.3       1 BDW        -0.0502
     40 H1         21.0486    8.7919   22.3490 H         1 BDW         0.3214
     41 H2         22.4816    8.5417   24.4849 H         1 BDW         0.3199
     42 H3         22.7676   10.0011   25.4704 H         1 BDW         0.3199
     43 H4         20.3065   11.9019   20.1027 H         1 BDW         0.0304
     44 H5         20.8328   10.1862   20.0244 H         1 BDW         0.0304
     45 H6         18.6416    9.6904   21.4634 H         1 BDW         0.0301
     46 H7         18.3899   11.4631   21.3189 H         1 BDW         0.0301
     47 H8         30.1402   13.2972   23.0607 H         1 BDW         0.1849
     48 H9         22.5536   12.3174   21.3350 H         1 BDW         0.0301
     49 H10        22.2941   11.7506   25.8597 H         1 BDW         0.0671
     50 H11        21.1276   13.0521   25.4449 H         1 BDW         0.0671
     51 H12        22.0718   15.1695   25.0602 H         1 BDW         0.0540
     52 H13        23.9736   16.6171   24.2948 H         1 BDW         0.0540
     53 H14        26.2515   13.0622   23.2687 H         1 BDW         0.0540
     54 H15        24.3564   11.6218   24.0327 H         1 BDW         0.0540
     55 H16        23.0212    9.5714   20.1185 H         1 BDW         0.0268
     56 H17        23.2600   10.0964   21.8197 H         1 BDW         0.0268
     57 H18        25.3968    9.8104   20.5819 H         1 BDW         0.0265
     58 H19        25.1494   11.4905   21.1674 H         1 BDW         0.0265
     59 H20        24.6163   10.4763   18.3340 H         1 BDW         0.0265
     60 H21        26.0206   11.4660   18.8583 H         1 BDW         0.0265
     61 H22        24.2268   12.8417   17.8188 H         1 BDW         0.0265
     62 H23        24.5252   13.2846   19.5339 H         1 BDW         0.0265
     63 H24        22.1487   13.2232   19.1740 H         1 BDW         0.0268
     64 H25        22.2536   11.6090   18.3928 H         1 BDW         0.0268
     65 H26        18.2117   11.7113   23.6925 H         1 BDW         0.0268
     66 H27        18.7394   10.0167   23.9689 H         1 BDW         0.0268
     67 H28        26.0375   16.4990   22.4643 H         1 BDW         0.0670
     68 H29        26.7370   16.4499   24.1181 H         1 BDW         0.0670
     69 H30        27.8871   15.8817   20.8380 H         1 BDW         0.0544
     70 H31        26.8584   14.4093   20.8613 H         1 BDW         0.0544
     71 H32        29.8031   14.5115   20.7730 H         1 BDW         0.0573
     72 H33        28.9500   12.7195   19.6247 H         1 BDW         0.0288
     73 H34        27.5206   12.5864   20.7043 H         1 BDW         0.0288
     74 H35        29.0059   11.4425   22.3702 H         1 BDW         0.0263
     75 H36        30.2819   11.4137   21.1062 H         1 BDW         0.0263
     76 H37        29.0163    9.2707   21.1538 H         1 BDW         0.0230
     77 H38        28.7610   10.1350   19.6000 H         1 BDW         0.0230
     78 H39        27.4850   10.1638   20.8640 H         1 BDW         0.0230
     79 H40        16.6751    9.2335   22.8045 H         1 BDW         0.0301
     80 H41        16.3167   11.0658   25.2101 H         1 BDW         0.0268
     81 H42        16.7599    9.3251   25.2235 H         1 BDW         0.0268
     82 H43        14.3676    9.7318   25.7949 H         1 BDW         0.0265
     83 H44        14.5773    8.7163   24.3281 H         1 BDW         0.0265
     84 H45        13.8816   11.6893   24.4461 H         1 BDW         0.0265
     85 H46        12.8204   10.3414   23.9137 H         1 BDW         0.0265
     86 H47        13.8088   11.7148   22.0444 H         1 BDW         0.0265
     87 H48        14.1586    9.9551   21.9552 H         1 BDW         0.0265
     88 H49        16.1759   11.1200   21.3991 H         1 BDW         0.0268
     89 H50        16.0174   12.2062   22.8210 H         1 BDW         0.0268
@<TRIPOS>BOND
     1    1    2 1  
     2    7    1 1  
     3    1    9 1  
     4    1   11 1  
     5    4    2 ar 
     6    7    3 2  
     7    5    4 ar 
     8    4    8 ar 
     9    5    7 am 
    10   14    5 1  
    11   30    6 2  
    12    9   13 1  
    13   27   10 1  
    14   10   28 1  
    15   10   30 am 
    16   11   26 1  
    17   12   29 1  
    18   30   12 am 
    19   13   21 1  
    20   13   25 1  
    21   15   14 1  
    22   16   15 ar 
    23   15   20 ar 
    24   17   16 ar 
    25   18   17 ar 
    26   18   19 ar 
    27   18   27 1  
    28   19   20 ar 
    29   21   22 1  
    30   22   23 1  
    31   23   24 1  
    32   24   25 1  
    33   26   34 1  
    34   28   29 1  
    35   29   31 1  
    36   31   32 1  
    37   32   33 1  
    38   34   35 1  
    39   34   39 1  
    40   35   36 1  
    41   36   37 1  
    42   37   38 1  
    43   38   39 1  
    44    2   40 1  
    45    8   41 1  
    46    8   42 1  
    47    9   43 1  
    48    9   44 1  
    49   11   45 1  
    50   11   46 1  
    51   12   47 1  
    52   13   48 1  
    53   14   49 1  
    54   14   50 1  
    55   16   51 1  
    56   17   52 1  
    57   19   53 1  
    58   20   54 1  
    59   21   55 1  
    60   21   56 1  
    61   22   57 1  
    62   22   58 1  
    63   23   59 1  
    64   23   60 1  
    65   24   61 1  
    66   24   62 1  
    67   25   63 1  
    68   25   64 1  
    69   26   65 1  
    70   26   66 1  
    71   27   67 1  
    72   27   68 1  
    73   28   69 1  
    74   28   70 1  
    75   29   71 1  
    76   31   72 1  
    77   31   73 1  
    78   32   74 1  
    79   32   75 1  
    80   33   76 1  
    81   33   77 1  
    82   33   78 1  
    83   34   79 1  
    84   35   80 1  
    85   35   81 1  
    86   36   82 1  
    87   36   83 1  
    88   37   84 1  
    89   37   85 1  
    90   38   86 1  
    91   38   87 1  
    92   39   88 1  
    93   39   89 1  
@<TRIPOS>SUBSTRUCTURE
     1 BDW         1

