### 
### Created by X-TOOL on Mon Sep 10 21:13:03 2018
### 

@<TRIPOS>MOLECULE
3l5f_ligand
   57    59     1     0     0
SMALL
GAST_HUCK


@<TRIPOS>ATOM
      1 C1         21.8760   10.0680   23.9510 C.cat     1 BDX         0.3302
      2 N1         21.8230   11.4090   24.1020 N.am      1 BDX        -0.2083
      3 O1         20.8220   13.1100   22.9070 O.2       1 BDX        -0.3394
      4 C2         21.0900   11.9250   23.0950 C.2       1 BDX         0.2516
      5 N2         21.2030    9.6030   22.8680 N.pl3     1 BDX        -0.2320
      6 C3         20.6170   10.7640   22.2050 C.3       1 BDX         0.1892
      7 N3         22.5410    9.2920   24.8060 N.pl3     1 BDX        -0.2540
      8 C4         19.0830   10.7130   22.2210 C.3       1 BDX         0.0023
      9 C5         22.5190   11.3120   20.4990 C.3       1 BDX        -0.0373
     10 C6         23.5300   10.2400   20.8960 C.3       1 BDX        -0.0502
     11 C7         24.9510   10.5350   20.4320 C.3       1 BDX        -0.0528
     12 C8         24.9910   10.7910   18.9350 C.3       1 BDX        -0.0530
     13 C9         24.1130   11.9600   18.5710 C.3       1 BDX        -0.0528
     14 C10        22.6810   11.7280   19.0270 C.3       1 BDX        -0.0502
     15 C11        21.0760   10.8830   20.7450 C.3       1 BDX         0.0048
     16 C12        18.4870   10.6260   23.6120 C.3       1 BDX        -0.0465
     17 C13        17.0040   10.2220   23.6080 C.3       1 BDX        -0.0410
     18 C14        16.4470   10.0440   25.0170 C.3       1 BDX        -0.0502
     19 C15        14.9700    9.6640   25.0330 C.3       1 BDX        -0.0528
     20 C16        14.1380   10.6630   24.2380 C.3       1 BDX        -0.0530
     21 C17        14.6570   10.8360   22.8070 C.3       1 BDX        -0.0528
     22 C18        16.1470   11.1820   22.7800 C.3       1 BDX        -0.0502
     23 C19        22.4480   12.1690   25.1650 C.3       1 BDX         0.0246
     24 H1         21.1214    8.6201   22.5711 H         1 BDX         0.3214
     25 H2         23.0310    9.7121   25.6087 H         1 BDX         0.3199
     26 H3         22.5650    8.2721   24.6642 H         1 BDX         0.3199
     27 H4         18.7596    9.8304   21.6496 H         1 BDX         0.0301
     28 H5         18.7009   11.6237   21.7366 H         1 BDX         0.0301
     29 H6         22.7170   12.1949   21.1245 H         1 BDX         0.0301
     30 H7         23.2126    9.2834   20.4554 H         1 BDX         0.0268
     31 H8         23.5336   10.1554   21.9927 H         1 BDX         0.0268
     32 H9         25.5928    9.6731   20.6671 H         1 BDX         0.0265
     33 H10        25.3245   11.4250   20.9595 H         1 BDX         0.0265
     34 H11        24.6362    9.8944   18.4057 H         1 BDX         0.0265
     35 H12        26.0261   11.0092   18.6335 H         1 BDX         0.0265
     36 H13        24.1258   12.0934   17.4792 H         1 BDX         0.0265
     37 H14        24.5025   12.8673   19.0559 H         1 BDX         0.0265
     38 H15        22.1202   12.6619   18.8741 H         1 BDX         0.0268
     39 H16        22.2492   10.9341   18.4000 H         1 BDX         0.0268
     40 H17        20.4238   11.6191   20.2523 H         1 BDX         0.0304
     41 H18        20.9390    9.8984   20.2741 H         1 BDX         0.0304
     42 H19        18.5806   11.6097   24.0952 H         1 BDX         0.0268
     43 H20        19.0518    9.8789   24.1889 H         1 BDX         0.0268
     44 H21        16.9458    9.2393   23.1171 H         1 BDX         0.0301
     45 H22        16.5710   10.9899   25.5646 H         1 BDX         0.0268
     46 H23        17.0180    9.2507   25.5215 H         1 BDX         0.0268
     47 H24        14.6143    9.6481   26.0738 H         1 BDX         0.0265
     48 H25        14.8514    8.6644   24.5896 H         1 BDX         0.0265
     49 H26        14.1714   11.6373   24.7475 H         1 BDX         0.0265
     50 H27        13.0984   10.3059   24.1974 H         1 BDX         0.0265
     51 H28        14.0947   11.6463   22.3200 H         1 BDX         0.0265
     52 H29        14.4996    9.8974   22.2554 H         1 BDX         0.0265
     53 H30        16.4945   11.1497   21.7368 H         1 BDX         0.0268
     54 H31        16.2769   12.1990   23.1785 H         1 BDX         0.0268
     55 H32        22.9793   11.4839   25.8420 H         1 BDX         0.0484
     56 H33        21.6767   12.7154   25.7276 H         1 BDX         0.0484
     57 H34        23.1627   12.8848   24.7327 H         1 BDX         0.0484
@<TRIPOS>BOND
     1    1    2 ar 
     2    5    1 ar 
     3    1    7 ar 
     4    4    2 am 
     5    2   23 1  
     6    4    3 2  
     7    6    4 1  
     8    6    5 1  
     9    6    8 1  
    10   15    6 1  
    11    8   16 1  
    12    9   10 1  
    13    9   14 1  
    14    9   15 1  
    15   10   11 1  
    16   11   12 1  
    17   12   13 1  
    18   13   14 1  
    19   16   17 1  
    20   17   18 1  
    21   17   22 1  
    22   18   19 1  
    23   19   20 1  
    24   20   21 1  
    25   21   22 1  
    26    5   24 1  
    27    7   25 1  
    28    7   26 1  
    29    8   27 1  
    30    8   28 1  
    31    9   29 1  
    32   10   30 1  
    33   10   31 1  
    34   11   32 1  
    35   11   33 1  
    36   12   34 1  
    37   12   35 1  
    38   13   36 1  
    39   13   37 1  
    40   14   38 1  
    41   14   39 1  
    42   15   40 1  
    43   15   41 1  
    44   16   42 1  
    45   16   43 1  
    46   17   44 1  
    47   18   45 1  
    48   18   46 1  
    49   19   47 1  
    50   19   48 1  
    51   20   49 1  
    52   20   50 1  
    53   21   51 1  
    54   21   52 1  
    55   22   53 1  
    56   22   54 1  
    57   23   55 1  
    58   23   56 1  
    59   23   57 1  
@<TRIPOS>SUBSTRUCTURE
     1 BDX         1

