### 
### Created by X-TOOL on Mon Sep 10 21:13:03 2018
### 

@<TRIPOS>MOLECULE
3l5r_ligand
   30    32     1     0     0
SMALL
GAST_HUCK


@<TRIPOS>ATOM
      1 CAA        14.8700  -33.3140  -20.6430 C.ar      1 47X        -0.0357
      2 CAB        14.9420  -34.2350  -19.6020 C.ar      1 47X         0.0869
      3 CAC        15.1470  -35.5840  -19.8770 C.ar      1 47X         0.0091
      4 CAD        14.9990  -33.7410  -21.9620 C.ar      1 47X        -0.0574
      5 CAE        15.2010  -35.0910  -22.2380 C.ar      1 47X         0.0525
      6 CAF        15.2770  -36.0100  -21.1950 C.ar      1 47X         0.1413
      7 OAG        15.4870  -37.3290  -21.4600 O.3       1 47X        -0.2370
      8 CAH        15.7960  -37.7410  -22.7210 C.2       1 47X         0.1189
      9 CAI        15.7020  -36.8580  -23.7920 C.2       1 47X         0.0473
     10 CAJ        15.3220  -35.5400  -23.5500 C.2       1 47X         0.1190
     11 CAK        15.9960  -37.2990  -25.0780 C.ar      1 47X        -0.0471
     12 CAL        17.1970  -36.9350  -25.6820 C.ar      1 47X        -0.0422
     13 CAM        17.5020  -37.3890  -26.9620 C.ar      1 47X         0.1113
     14 CAN        16.6050  -38.2100  -27.6400 C.ar      1 47X         0.1119
     15 CAO        15.4040  -38.5750  -27.0390 C.ar      1 47X        -0.0457
     16 CAP        15.1000  -38.1200  -25.7590 C.ar      1 47X        -0.0813
     17 OAQ        16.9040  -38.6570  -28.8900 O.3       1 47X        -0.3393
     18 OAR        18.6760  -37.0300  -27.5480 O.3       1 47X        -0.3381
     19 OAS        14.7890  -33.8260  -18.3150 O.3       1 47X        -0.3321
     20 OAT        15.2080  -34.7500  -24.4860 O.2       1 47X        -0.4123
     21 H1         14.7134  -32.2634  -20.4267 H         1 47X         0.0490
     22 H2         15.2052  -36.3010  -19.0661 H         1 47X         0.0494
     23 H3         14.9423  -33.0237  -22.7728 H         1 47X         0.0619
     24 H4         16.1184  -38.7671  -22.8918 H         1 47X         0.1313
     25 H5         17.8960  -36.2965  -25.1540 H         1 47X         0.0456
     26 H6         14.7054  -39.2135  -27.5675 H         1 47X         0.0502
     27 H7         14.1645  -38.4050  -25.2914 H         1 47X         0.0453
     28 H8         17.7526  -38.3193  -29.1513 H         1 47X         0.2434
     29 H9         19.1671  -36.4730  -26.9554 H         1 47X         0.2441
     30 H10        15.5674  -34.0493  -17.8183 H         1 47X         0.2497
@<TRIPOS>BOND
     1    1    2 ar 
     2    1    4 ar 
     3    2    3 ar 
     4    2   19 1  
     5    3    6 ar 
     6    4    5 ar 
     7    5    6 ar 
     8    5   10 1  
     9    6    7 1  
    10    7    8 1  
    11    8    9 2  
    12    9   10 1  
    13    9   11 1  
    14   10   20 2  
    15   11   12 ar 
    16   11   16 ar 
    17   12   13 ar 
    18   13   14 ar 
    19   13   18 1  
    20   14   15 ar 
    21   14   17 1  
    22   15   16 ar 
    23    1   21 1  
    24    3   22 1  
    25    4   23 1  
    26    8   24 1  
    27   12   25 1  
    28   15   26 1  
    29   16   27 1  
    30   17   28 1  
    31   18   29 1  
    32   19   30 1  
@<TRIPOS>SUBSTRUCTURE
     1 47X         1

