### 
### Created by X-TOOL on Fri Sep 26 17:34:47 2014
### 

@<TRIPOS>MOLECULE
3l6h_ligand
   19    18     1     0     0
SMALL
GAST_HUCK


@<TRIPOS>ATOM
      1 N          19.3700   -4.7470   50.0060 N.4       1 BET         0.2484
      2 CA         20.2490   -4.1690   48.9660 C.3       1 BET         0.0222
      3 C          21.4130   -3.3540   49.4900 C.2       1 BET         0.0813
      4 O1         21.3630   -2.8290   50.6290 O.co2     1 BET        -0.5645
      5 O2         22.4060   -3.2320   48.7390 O.co2     1 BET        -0.5645
      6 C1         18.5440   -5.7970   49.3880 C.3       1 BET        -0.0405
      7 C2         18.4800   -3.7070   50.5470 C.3       1 BET        -0.0405
      8 C3         20.1420   -5.3570   51.1030 C.3       1 BET        -0.0405
      9 H1         19.6367   -3.5165   48.3262 H         1 BET         0.0989
     10 H2         20.6551   -4.9958   48.3648 H         1 BET         0.0989
     11 H3         17.8830   -6.2385   50.1484 H         1 BET         0.0778
     12 H4         19.1961   -6.5784   48.9707 H         1 BET         0.0778
     13 H5         17.9356   -5.3587   48.5832 H         1 BET         0.0778
     14 H6         19.0835   -2.9140   51.0129 H         1 BET         0.0778
     15 H7         17.8131   -4.1509   51.3008 H         1 BET         0.0778
     16 H8         17.8784   -3.2788   49.7317 H         1 BET         0.0778
     17 H9         20.8062   -6.1337   50.6962 H         1 BET         0.0778
     18 H10        19.4515   -5.8091   51.8301 H         1 BET         0.0778
     19 H11        20.7447   -4.5836   51.6015 H         1 BET         0.0778
@<TRIPOS>BOND
     1    1    2 1  
     2    1    6 1  
     3    1    7 1  
     4    1    8 1  
     5    2    3 1  
     6    3    4 ar 
     7    3    5 ar 
     8    2    9 1  
     9    2   10 1  
    10    6   11 1  
    11    6   12 1  
    12    6   13 1  
    13    7   14 1  
    14    7   15 1  
    15    7   16 1  
    16    8   17 1  
    17    8   18 1  
    18    8   19 1  
@<TRIPOS>SUBSTRUCTURE
     1 BET         1

