### 
### Created by X-TOOL on Fri Sep 26 17:34:47 2014
### 

@<TRIPOS>MOLECULE
3l79_ligand
   32    33     1     0     0
SMALL
GAST_HUCK


@<TRIPOS>ATOM
      1 C1         33.3790   22.8650   27.7770 C.3       1 DKX         0.2061
      2 N1         34.2690   23.5770   28.7220 N.am      1 DKX        -0.1592
      3 C2         33.7620   23.0570   26.2970 C.3       1 DKX         0.1438
      4 N2         34.4670   24.8990   30.7290 N.am      1 DKX        -0.1865
      5 O2         33.8460   24.4570   25.9890 O.3       1 DKX        -0.3833
      6 C3         32.7410   22.3520   25.3860 C.3       1 DKX         0.1600
      7 F3         33.2030   22.3390   24.0830 F         1 DKX        -0.2398
      8 C4         32.4510   20.9180   25.8740 C.3       1 DKX         0.1170
      9 O4         31.2630   20.4540   25.2380 O.3       1 DKX        -0.3862
     10 C5         32.2910   20.8210   27.4180 C.3       1 DKX         0.1137
     11 O5         33.3950   21.4610   28.0930 O.3       1 DKX        -0.3366
     12 C6         32.2670   19.3730   27.9320 C.3       1 DKX         0.0730
     13 O6         33.3510   18.6570   27.3190 O.3       1 DKX        -0.3924
     14 C7         35.6730   23.6180   28.5520 C.2       1 DKX         0.0591
     15 C8         36.4730   24.2970   29.4740 C.2       1 DKX         0.0062
     16 C9         35.8580   24.9460   30.5550 C.2       1 DKX         0.1822
     17 O9         36.5290   25.5650   31.3790 O.2       1 DKX        -0.4124
     18 C10        33.6660   24.2100   29.8140 C.2       1 DKX         0.3328
     19 O10        32.4430   24.1690   29.9560 O.2       1 DKX        -0.3815
     20 H1         32.3580   23.2503   27.9153 H         1 DKX         0.0997
     21 H2         34.7497   22.6032   26.1282 H         1 DKX         0.0679
     22 H3         34.0468   25.3601   31.5106 H         1 DKX         0.2259
     23 H4         34.0824   24.5655   25.0753 H         1 DKX         0.2101
     24 H5         31.8002   22.9212   25.4160 H         1 DKX         0.0706
     25 H6         33.2918   20.2743   25.5762 H         1 DKX         0.0650
     26 H7         31.0730   19.5703   25.5305 H         1 DKX         0.2100
     27 H8         31.3503   21.3182   27.6968 H         1 DKX         0.0647
     28 H9         31.3108   18.8996   27.6648 H         1 DKX         0.0584
     29 H10        32.3874   19.3647   29.0253 H         1 DKX         0.0584
     30 H11        34.1739   19.0713   27.5507 H         1 DKX         0.2095
     31 H12        36.1314   23.1186   27.6997 H         1 DKX         0.1178
     32 H13        37.5553   24.3221   29.3557 H         1 DKX         0.0258
@<TRIPOS>BOND
     1    2    1 1  
     2    1    3 1  
     3    1   11 1  
     4    2   14 1  
     5   18    2 am 
     6    3    5 1  
     7    3    6 1  
     8    4   16 am 
     9    4   18 am 
    10    6    7 1  
    11    6    8 1  
    12    8    9 1  
    13    8   10 1  
    14   10   11 1  
    15   10   12 1  
    16   12   13 1  
    17   14   15 2  
    18   15   16 1  
    19   16   17 2  
    20   18   19 2  
    21    1   20 1  
    22    3   21 1  
    23    4   22 1  
    24    5   23 1  
    25    6   24 1  
    26    8   25 1  
    27    9   26 1  
    28   10   27 1  
    29   12   28 1  
    30   12   29 1  
    31   13   30 1  
    32   14   31 1  
    33   15   32 1  
@<TRIPOS>SUBSTRUCTURE
     1 DKX         1

