### 
### Created by X-TOOL on Fri Sep 26 17:34:47 2014
### 

@<TRIPOS>MOLECULE
3l7a_ligand
   45    47     1     0     0
SMALL
GAST_HUCK


@<TRIPOS>ATOM
      1 C1         33.5050   23.0120   27.8130 C.3       1 DKY         0.2115
      2 N1         34.3980   23.6190   28.8290 N.am      1 DKY        -0.1666
      3 C2         33.9080   23.1720   26.3340 C.3       1 DKY         0.1458
      4 N2         34.5880   24.6950   30.9500 N.2       1 DKY        -0.2799
      5 O2         34.0050   24.5640   25.9920 O.3       1 DKY        -0.3831
      6 C3         32.9000   22.4480   25.4120 C.3       1 DKY         0.1602
      7 F3         33.3890   22.3890   24.1180 F         1 DKY        -0.2398
      8 N3         36.6040   25.3240   31.8530 N.am      1 DKY        -0.2109
      9 C4         32.5580   21.0270   25.9220 C.3       1 DKY         0.1171
     10 O4         31.3810   20.5430   25.2730 O.3       1 DKY        -0.3862
     11 C5         32.3660   20.9550   27.4620 C.3       1 DKY         0.1139
     12 O5         33.4620   21.5930   28.1440 O.3       1 DKY        -0.3350
     13 C6         32.3180   19.5000   27.9330 C.3       1 DKY         0.0730
     14 O6         33.4380   18.8020   27.3630 O.3       1 DKY        -0.3924
     15 C7         35.7990   23.6640   28.6800 C.2       1 DKY         0.0780
     16 C8         36.5680   24.2390   29.6950 C.2       1 DKY         0.0113
     17 C9         35.9280   24.7690   30.8310 C.2       1 DKY         0.1144
     18 C10        33.8120   24.1430   29.9980 C.2       1 DKY         0.2475
     19 O10        32.5890   24.1130   30.1510 O.2       1 DKY        -0.4078
     20 C11        37.8590   25.7970   31.7850 C.2       1 DKY         0.2422
     21 O11        38.5480   25.8010   30.7620 O.2       1 DKY        -0.3678
     22 C12        38.4210   26.3660   33.1040 C.ar      1 DKY         0.0581
     23 C13        39.7850   26.6670   33.2040 C.ar      1 DKY        -0.0412
     24 C14        40.3190   27.1730   34.3920 C.ar      1 DKY        -0.0561
     25 C15        39.4770   27.3780   35.4880 C.ar      1 DKY        -0.0575
     26 C16        38.1190   27.0760   35.3970 C.ar      1 DKY        -0.0561
     27 C17        37.5930   26.5700   34.2070 C.ar      1 DKY        -0.0412
     28 H1         32.5039   23.4526   27.9303 H         1 DKY         0.1024
     29 H2         34.8968   22.7112   26.1924 H         1 DKY         0.0681
     30 H3         34.2537   24.6480   25.0790 H         1 DKY         0.2102
     31 H4         31.9701   23.0355   25.4019 H         1 DKY         0.0706
     32 H5         36.1346   25.3896   32.7335 H         1 DKY         0.2376
     33 H6         33.3972   20.3669   25.6573 H         1 DKY         0.0650
     34 H7         31.1801   19.6712   25.5928 H         1 DKY         0.2100
     35 H8         31.4248   21.4588   27.7272 H         1 DKY         0.0647
     36 H9         31.3799   19.0322   27.5996 H         1 DKY         0.0584
     37 H10        32.3765   19.4626   29.0308 H         1 DKY         0.0584
     38 H11        34.2452   19.2114   27.6518 H         1 DKY         0.2095
     39 H12        36.2741   23.2573   27.7885 H         1 DKY         0.1315
     40 H13        37.6529   24.2767   29.6079 H         1 DKY         0.0370
     41 H14        40.4336   26.5057   32.3506 H         1 DKY         0.0670
     42 H15        41.3757   27.4041   34.4626 H         1 DKY         0.0629
     43 H16        39.8813   27.7735   36.4128 H         1 DKY         0.0653
     44 H17        37.4708   27.2343   36.2513 H         1 DKY         0.0629
     45 H18        36.5369   26.3348   34.1403 H         1 DKY         0.0670
@<TRIPOS>BOND
     1    2    1 1  
     2    1    3 1  
     3    1   12 1  
     4    2   15 1  
     5   18    2 am 
     6    3    5 1  
     7    3    6 1  
     8    4   17 2  
     9    4   18 1  
    10    6    7 1  
    11    6    9 1  
    12   17    8 am 
    13    8   20 am 
    14    9   10 1  
    15    9   11 1  
    16   11   12 1  
    17   11   13 1  
    18   13   14 1  
    19   15   16 2  
    20   16   17 1  
    21   18   19 2  
    22   20   21 2  
    23   20   22 1  
    24   22   23 ar 
    25   22   27 ar 
    26   23   24 ar 
    27   24   25 ar 
    28   25   26 ar 
    29   26   27 ar 
    30    1   28 1  
    31    3   29 1  
    32    5   30 1  
    33    6   31 1  
    34    8   32 1  
    35    9   33 1  
    36   10   34 1  
    37   11   35 1  
    38   13   36 1  
    39   13   37 1  
    40   14   38 1  
    41   15   39 1  
    42   16   40 1  
    43   23   41 1  
    44   24   42 1  
    45   25   43 1  
    46   26   44 1  
    47   27   45 1  
@<TRIPOS>SUBSTRUCTURE
     1 DKY         1

