#	Name:			3l7b_ligand
#	Creating user name:	wangrx
#	Creation time:		Sat Apr 16 12:08:17 2016

#	Modifying user name:	wangrx
#	Modification time:	Sat Apr 16 12:08:50 2016

@<TRIPOS>MOLECULE
3l7b_ligand
   33    34     1     0     0
SMALL
GAST_HUCK


@<TRIPOS>ATOM
      1 C1         33.5240   23.0750   27.9440 C.3       1 DKZ         0.2122 
      2 N1         34.4430   23.6190   28.9700 N.am      1 DKZ        -0.1649 
      3 C2         33.9200   23.2540   26.4660 C.3       1 DKZ         0.1460 
      4 N2         34.6850   24.6950   31.0670 N.2       1 DKZ        -0.2774 
      5 O2         34.0220   24.6580   26.1230 O.3       1 DKZ        -0.3831 
      6 C3         32.9030   22.5180   25.5640 C.3       1 DKZ         0.1602 
      7 F3         33.3660   22.4660   24.2700 F         1 DKZ        -0.2398 
      8 N3         36.7690   25.1020   31.9630 N.pl3     1 DKZ        -0.3156 
      9 C4         32.6270   21.0760   26.0550 C.3       1 DKZ         0.1171 
     10 O4         31.4530   20.5980   25.4070 O.3       1 DKZ        -0.3862 
     11 C5         32.4370   20.9640   27.5870 C.3       1 DKZ         0.1139 
     12 O5         33.5080   21.6490   28.2840 O.3       1 DKZ        -0.3348 
     13 C6         32.4400   19.4970   28.0600 C.3       1 DKZ         0.0730 
     14 O6         33.5580   18.8170   27.4710 O.3       1 DKZ        -0.3924 
     15 C7         35.8480   23.5100   28.8480 C.2       1 DKZ         0.0795 
     16 C8         36.6580   24.0250   29.8600 C.2       1 DKZ         0.0083 
     17 C9         36.0320   24.6140   30.9690 C.2       1 DKZ         0.0850 
     18 C10        33.8780   24.2030   30.1050 C.2       1 DKZ         0.2512 
     19 O10        32.6450   24.2800   30.2020 O.2       1 DKZ        -0.4066 
     20 H1         32.5273   23.5204   28.0789 H         1 DKZ         0.1026 
     21 H2         34.9084   22.7956   26.3144 H         1 DKZ         0.0682 
     22 H4         34.2667   24.7426   25.2090 H         1 DKZ         0.2102 
     23 H5         31.9574   23.0798   25.5815 H         1 DKZ         0.0706 
     24 H7         33.4813   20.4450   25.7687 H         1 DKZ         0.0650 
     25 H8         31.2700   19.7125   25.6984 H         1 DKZ         0.2100 
     26 H9         31.4749   21.4257   27.8537 H         1 DKZ         0.0647 
     27 H10        31.5054   19.0075   27.7488 H         1 DKZ         0.0584 
     28 H11        32.5242   19.4634   29.1562 H         1 DKZ         0.0584 
     29 H12        33.5645   17.9119   27.7595 H         1 DKZ         0.2095 
     30 H13        36.2910   23.0307   27.9762 H         1 DKZ         0.1328 
     31 H14        37.7435   23.9716   29.7915 H         1 DKZ         0.0373 
     32 H3         37.7967   25.0533   31.9141 H         1 DKZ         0.1833 
     33 H6         36.3120   25.5285   32.7816 H         1 DKZ         0.1833 
@<TRIPOS>BOND
     1    2    1 1    
     2    1    3 1    
     3    1   12 1    
     4    2   15 1    
     5   18    2 am   
     6    3    5 1    
     7    3    6 1    
     8    4   17 2    
     9    4   18 1    
    10    6    7 1    
    11    6    9 1    
    12   17    8 1    
    13    9   10 1    
    14    9   11 1    
    15   11   12 1    
    16   11   13 1    
    17   13   14 1    
    18   15   16 2    
    19   16   17 1    
    20   18   19 2    
    21    1   20 1    
    22    3   21 1    
    23    5   22 1    
    24    6   23 1    
    25    9   24 1    
    26   10   25 1    
    27   11   26 1    
    28   13   27 1    
    29   13   28 1    
    30   14   29 1    
    31   15   30 1    
    32   16   31 1    
    33    8   32 1    
    34    8   33 1    
@<TRIPOS>SUBSTRUCTURE
     1 DKZ         1 PERM              0 ****  ****    0 ROOT 
