### 
### Created by X-TOOL on Fri Sep 26 17:34:46 2014
### 

@<TRIPOS>MOLECULE
3l7c_ligand
   32    33     1     0     0
SMALL
GAST_HUCK


@<TRIPOS>ATOM
      1 C1         33.3430   22.9030   27.7890 C.3       1 DK4         0.2038
      2 N1         34.1780   23.5970   28.7930 N.am      1 DK4        -0.1635
      3 C2         33.7820   23.1050   26.3240 C.3       1 DK4         0.1433
      4 N2         34.3500   24.9300   30.8100 N.am      1 DK4        -0.1842
      5 O2         33.8490   24.5030   26.0120 O.3       1 DK4        -0.3833
      6 C3         32.8160   22.3780   25.3640 C.3       1 DK4         0.1600
      7 F3         33.3240   22.3630   24.0780 F         1 DK4        -0.2398
      8 C4         32.4890   20.9500   25.8580 C.3       1 DK4         0.1170
      9 O4         31.2910   20.4920   25.2390 O.3       1 DK4        -0.3862
     10 C5         32.3120   20.8650   27.3990 C.3       1 DK4         0.1137
     11 O5         33.4040   21.5030   28.0840 O.3       1 DK4        -0.3370
     12 C6         32.2650   19.4230   27.8750 C.3       1 DK4         0.0730
     13 O6         33.3550   18.7210   27.2680 O.3       1 DK4        -0.3924
     14 C7         35.5820   23.5700   28.6990 C.2       1 DK4         0.0880
     15 C8         36.3570   24.2230   29.6550 C.2       1 DK4         0.1931
     16 F8         37.6930   24.1890   29.5400 F         1 DK4        -0.2165
     17 C9         35.7440   24.9090   30.7110 C.2       1 DK4         0.2212
     18 O9         36.4070   25.4970   31.5670 O.2       1 DK4        -0.4071
     19 C10        33.5580   24.2730   29.8580 C.2       1 DK4         0.3295
     20 O10        32.3330   24.3060   29.9580 O.2       1 DK4        -0.3830
     21 H1         32.3078   23.2607   27.8905 H         1 DK4         0.0991
     22 H2         34.7857   22.6726   26.1988 H         1 DK4         0.0679
     23 H3         33.9139   25.4178   31.5663 H         1 DK4         0.2260
     24 H4         34.1202   24.6119   25.1081 H         1 DK4         0.2101
     25 H5         31.8740   22.9457   25.3451 H         1 DK4         0.0706
     26 H6         33.3186   20.2887   25.5676 H         1 DK4         0.0650
     27 H7         31.0933   19.6146   25.5448 H         1 DK4         0.2100
     28 H8         31.3710   21.3665   27.6692 H         1 DK4         0.0647
     29 H9         31.3118   18.9622   27.5765 H         1 DK4         0.0584
     30 H10        32.3621   19.3880   28.9701 H         1 DK4         0.0584
     31 H11        34.1744   19.1259   27.5269 H         1 DK4         0.2095
     32 H12        36.0626   23.0386   27.8789 H         1 DK4         0.1107
@<TRIPOS>BOND
     1    2    1 1  
     2    1    3 1  
     3    1   11 1  
     4    2   14 1  
     5   19    2 am 
     6    3    5 1  
     7    3    6 1  
     8    4   17 am 
     9    4   19 am 
    10    6    7 1  
    11    6    8 1  
    12    8    9 1  
    13    8   10 1  
    14   10   11 1  
    15   10   12 1  
    16   12   13 1  
    17   14   15 2  
    18   15   16 1  
    19   15   17 1  
    20   17   18 2  
    21   19   20 2  
    22    1   21 1  
    23    3   22 1  
    24    4   23 1  
    25    5   24 1  
    26    6   25 1  
    27    8   26 1  
    28    9   27 1  
    29   10   28 1  
    30   12   29 1  
    31   12   30 1  
    32   13   31 1  
    33   14   32 1  
@<TRIPOS>SUBSTRUCTURE
     1 DK4         1

