### 
### Created by X-TOOL on Fri Sep 26 17:34:47 2014
### 

@<TRIPOS>MOLECULE
3l7d_ligand
   44    46     1     0     0
SMALL
GAST_HUCK


@<TRIPOS>ATOM
      1 C1         33.5220   23.1290   27.9090 C.3       1 DK5         0.1855
      2 N1         34.4410   23.7540   28.8990 N.am      1 DK5        -0.1692
      3 C2         33.7940   23.4130   26.4090 C.3       1 DK5         0.0388
      4 N2         34.6430   24.8070   31.0200 N.2       1 DK5        -0.2799
      5 C3         32.8590   22.5810   25.5040 C.3       1 DK5         0.1344
      6 F3         33.3790   22.4900   24.2340 F         1 DK5        -0.2425
      7 N3         36.6350   25.5080   31.8950 N.am      1 DK5        -0.2109
      8 C4         32.6010   21.1530   26.0200 C.3       1 DK5         0.1146
      9 O4         31.4590   20.6440   25.3200 O.3       1 DK5        -0.3863
     10 C5         32.3620   21.0750   27.5480 C.3       1 DK5         0.1137
     11 O5         33.4750   21.7000   28.2340 O.3       1 DK5        -0.3371
     12 C6         32.2950   19.6070   28.0180 C.3       1 DK5         0.0730
     13 O6         33.4630   18.9110   27.5450 O.3       1 DK5        -0.3924
     14 C7         35.8420   23.8310   28.7150 C.2       1 DK5         0.0778
     15 C8         36.6220   24.4290   29.7170 C.2       1 DK5         0.0113
     16 C9         35.9780   24.9220   30.8750 C.2       1 DK5         0.1144
     17 C10        33.8640   24.2450   30.0790 C.2       1 DK5         0.2474
     18 O10        32.6380   24.1700   30.2400 O.2       1 DK5        -0.4078
     19 C11        37.9040   25.9590   31.8300 C.2       1 DK5         0.2422
     20 O11        38.6270   25.8850   30.8320 O.2       1 DK5        -0.3678
     21 C12        38.4370   26.6060   33.1230 C.ar      1 DK5         0.0581
     22 C13        39.3810   27.6400   33.0380 C.ar      1 DK5        -0.0412
     23 C14        39.8790   28.2370   34.2010 C.ar      1 DK5        -0.0561
     24 C15        39.4280   27.8100   35.4520 C.ar      1 DK5        -0.0575
     25 C16        38.4810   26.7880   35.5340 C.ar      1 DK5        -0.0561
     26 C17        37.9890   26.1830   34.3730 C.ar      1 DK5        -0.0412
     27 H1         32.5217   23.5428   28.1045 H         1 DK5         0.0997
     28 H2         34.8384   23.1556   26.1788 H         1 DK5         0.0350
     29 H3         33.6275   24.4820   26.2103 H         1 DK5         0.0350
     30 H4         31.8928   23.1044   25.4535 H         1 DK5         0.0680
     31 H5         36.1471   25.6160   32.7612 H         1 DK5         0.2376
     32 H6         33.4779   20.5330   25.7818 H         1 DK5         0.0649
     33 H7         31.2741   19.7610   25.6177 H         1 DK5         0.2100
     34 H8         31.4234   21.5905   27.7997 H         1 DK5         0.0647
     35 H9         31.3912   19.1301   27.6110 H         1 DK5         0.0584
     36 H10        32.2647   19.5724   29.1170 H         1 DK5         0.0584
     37 H11        34.2418   19.3259   27.8971 H         1 DK5         0.2095
     38 H12        36.3060   23.4339   27.8134 H         1 DK5         0.1315
     39 H13        37.7020   24.5116   29.6047 H         1 DK5         0.0370
     40 H14        39.7259   27.9778   32.0674 H         1 DK5         0.0670
     41 H15        40.6143   29.0304   34.1313 H         1 DK5         0.0629
     42 H16        39.8118   28.2703   36.3553 H         1 DK5         0.0653
     43 H17        38.1244   26.4610   36.5040 H         1 DK5         0.0629
     44 H18        37.2590   25.3849   34.4455 H         1 DK5         0.0670
@<TRIPOS>BOND
     1    2    1 1  
     2    1    3 1  
     3    1   11 1  
     4    2   14 1  
     5   17    2 am 
     6    3    5 1  
     7    4   16 2  
     8    4   17 1  
     9    5    6 1  
    10    5    8 1  
    11   16    7 am 
    12    7   19 am 
    13    8    9 1  
    14    8   10 1  
    15   10   11 1  
    16   10   12 1  
    17   12   13 1  
    18   14   15 2  
    19   15   16 1  
    20   17   18 2  
    21   19   20 2  
    22   19   21 1  
    23   21   22 ar 
    24   21   26 ar 
    25   22   23 ar 
    26   23   24 ar 
    27   24   25 ar 
    28   25   26 ar 
    29    1   27 1  
    30    3   28 1  
    31    3   29 1  
    32    5   30 1  
    33    7   31 1  
    34    8   32 1  
    35    9   33 1  
    36   10   34 1  
    37   12   35 1  
    38   12   36 1  
    39   13   37 1  
    40   14   38 1  
    41   15   39 1  
    42   22   40 1  
    43   23   41 1  
    44   24   42 1  
    45   25   43 1  
    46   26   44 1  
@<TRIPOS>SUBSTRUCTURE
     1 DK5         1

