### 
### Created by X-TOOL on Mon Sep 10 21:13:03 2018
### 

@<TRIPOS>MOLECULE
3l8v_ligand
   49    52     1     0     0
SMALL
GAST_HUCK


@<TRIPOS>ATOM
      1 N1         -1.0800   12.6670   59.4050 N.ar      1 L8V        -0.3008
      2 C2          0.1640   13.1890   59.4510 C.ar      1 L8V         0.0968
      3 C3          1.1450   12.7510   58.5530 C.ar      1 L8V         0.0137
      4 C4          0.7660   11.7540   57.6200 C.ar      1 L8V         0.1205
      5 O5          1.7840   11.3410   56.7350 O.3       1 L8V        -0.2587
      6 C6          1.6480   10.1220   56.0550 C.ar      1 L8V         0.1412
      7 C7          1.8910    8.8670   56.6850 C.ar      1 L8V        -0.0381
      8 C8          1.7390    7.6710   55.9570 C.ar      1 L8V        -0.0492
      9 C9          1.3510    7.7180   54.6080 C.ar      1 L8V         0.0516
     10 C10         1.1130    8.9410   53.9780 C.ar      1 L8V        -0.0117
     11 C11         1.2610   10.1180   54.7060 C.ar      1 L8V         0.1566
     12 F12         1.0220   11.2600   54.0730 F         1 L8V        -0.1915
     13 N13         1.2300    6.5300   53.9840 N.pl3     1 L8V        -0.2624
     14 C14         0.8820    6.1930   52.7140 C.ar      1 L8V         0.1509
     15 C15         0.4760    4.8700   52.4940 C.ar      1 L8V         0.1041
     16 C16         0.1210    4.5360   51.1730 C.ar      1 L8V        -0.0330
     17 C17         0.1570    5.4470   50.1170 C.ar      1 L8V        -0.0419
     18 C18         0.5750    6.7420   50.4390 C.ar      1 L8V         0.0012
     19 N19         0.9260    7.1010   51.7000 N.ar      1 L8V        -0.2756
     20 C20         0.4260    3.8780   53.5830 C.2       1 L8V         0.2309
     21 O21         0.6860    4.1310   54.7620 O.2       1 L8V        -0.3781
     22 N22         0.0680    2.6320   53.2070 N.am      1 L8V        -0.2358
     23 C23        -0.0170    1.6110   54.1220 C.ar      1 L8V         0.0960
     24 C24        -1.0350    1.5510   55.1340 C.ar      1 L8V        -0.0440
     25 C25        -1.0530    0.4560   56.0480 C.ar      1 L8V        -0.0457
     26 C26        -0.0510   -0.5530   55.9240 C.ar      1 L8V         0.1142
     27 C27         0.9430   -0.5190   54.9570 C.ar      1 L8V        -0.0079
     28 C28         0.9430    0.5620   54.0720 C.ar      1 L8V         0.1503
     29 F29         0.0090   -1.6100   56.7300 F         1 L8V        -0.1972
     30 C30        -1.4470   11.7160   58.5190 C.ar      1 L8V        -0.0139
     31 C31        -0.5540   11.2180   57.5930 C.ar      1 L8V        -0.0155
     32 F32         1.9090    0.5700   53.1520 F         1 L8V        -0.1945
     33 N33         0.3990   14.1410   60.3990 N.pl3     1 L8V        -0.3250
     34 H1          2.1501   13.1567   58.5707 H         1 L8V         0.0528
     35 H2          2.1931    8.8329   57.7255 H         1 L8V         0.0518
     36 H3          1.9211    6.7162   56.4368 H         1 L8V         0.0479
     37 H4          0.8169    8.9734   52.9357 H         1 L8V         0.0497
     38 H5          1.4421    5.7211   54.5854 H         1 L8V         0.2121
     39 H6         -0.1961    3.5203   50.9662 H         1 L8V         0.0751
     40 H7         -0.1223    5.1677   49.1075 H         1 L8V         0.0613
     41 H8          0.6204    7.4866   49.6525 H         1 L8V         0.0818
     42 H9         -0.1389    2.4491   52.2459 H         1 L8V         0.2226
     43 H10        -1.7837    2.3319   55.2025 H         1 L8V         0.0482
     44 H11        -1.8112    0.3915   56.8200 H         1 L8V         0.0532
     45 H12         1.6908   -1.3009   54.8906 H         1 L8V         0.0551
     46 H13        -2.4624   11.3369   58.5359 H         1 L8V         0.0748
     47 H14        -0.8427   10.4553   56.8789 H         1 L8V         0.0538
     48 H15         1.3315   14.5714   60.4765 H         1 L8V         0.1761
     49 H16        -0.3561   14.4295   61.0374 H         1 L8V         0.1761
@<TRIPOS>BOND
     1    1    2 ar 
     2    1   30 ar 
     3    2    3 ar 
     4    2   33 1  
     5    3    4 ar 
     6    4    5 1  
     7    4   31 ar 
     8    5    6 1  
     9    6    7 ar 
    10    6   11 ar 
    11    7    8 ar 
    12    8    9 ar 
    13    9   10 ar 
    14    9   13 1  
    15   10   11 ar 
    16   11   12 1  
    17   13   14 1  
    18   14   15 ar 
    19   14   19 ar 
    20   15   16 ar 
    21   15   20 1  
    22   16   17 ar 
    23   17   18 ar 
    24   18   19 ar 
    25   20   21 2  
    26   20   22 am 
    27   22   23 1  
    28   23   24 ar 
    29   23   28 ar 
    30   24   25 ar 
    31   25   26 ar 
    32   26   27 ar 
    33   26   29 1  
    34   27   28 ar 
    35   28   32 1  
    36   30   31 ar 
    37    3   34 1  
    38    7   35 1  
    39    8   36 1  
    40   10   37 1  
    41   13   38 1  
    42   16   39 1  
    43   17   40 1  
    44   18   41 1  
    45   22   42 1  
    46   24   43 1  
    47   25   44 1  
    48   27   45 1  
    49   30   46 1  
    50   31   47 1  
    51   33   48 1  
    52   33   49 1  
@<TRIPOS>SUBSTRUCTURE
     1 L8V         1

