### 
### Created by X-TOOL on Sun Sep  9 21:51:21 2018
### 

@<TRIPOS>MOLECULE
3l8x_ligand
   45    48     1     0     0
SMALL
GAST_HUCK


@<TRIPOS>ATOM
      1 C13        -5.2150   -3.0400  -22.0500 C.ar      1 NON        -0.0157
      2 C18        -2.1980   -1.2630  -24.5530 C.2       1 NON         0.1972
      3 C17        -3.0880   -4.3910  -19.7370 C.ar      1 NON         0.1482
      4 C16        -2.4540   -5.4030  -17.6440 C.ar      1 NON         0.1796
      5 C15        -3.8690   -3.4770  -21.9610 C.ar      1 NON         0.0747
      6 C19        -6.2990   -3.6360  -21.1910 C.3       1 NON        -0.0309
      7 C20        -1.5870    0.5520  -26.0480 C.3       1 NON         0.0189
      8 C11        -2.8940   -5.5480  -18.9540 C.ar      1 NON         0.0863
      9 C12        -3.2490   -1.8770  -23.6990 C.ar      1 NON         0.0337
     10 C1         -1.2680   -7.9590  -13.1920 C.ar      1 NON        -0.0697
     11 C2         -0.8310   -6.7290  -13.6690 C.ar      1 NON        -0.0670
     12 C3         -2.0510   -8.7560  -14.0170 C.ar      1 NON        -0.0670
     13 C4         -4.5790   -1.4530  -23.7790 C.ar      1 NON        -0.0596
     14 C5         -5.5520   -2.0290  -22.9600 C.ar      1 NON        -0.0631
     15 C6         -1.1730   -6.2930  -14.9610 C.ar      1 NON        -0.0274
     16 C7         -2.3960   -8.3290  -15.3060 C.ar      1 NON        -0.0274
     17 C8         -2.8910   -2.8890  -22.7860 C.ar      1 NON        -0.0239
     18 C9         -3.0170   -6.9370  -19.1270 C.2       1 NON         0.0327
     19 C10        -2.4100   -3.1870  -17.8710 C.ar      1 NON         0.0580
     20 C14        -1.9560   -7.0910  -15.7960 C.ar      1 NON         0.1099
     21 N21        -2.6970   -7.6210  -18.0320 N.2       1 NON        -0.1866
     22 N22        -2.2020   -4.2220  -17.0400 N.ar      1 NON        -0.2645
     23 N23        -2.8220   -3.1990  -19.1580 N.ar      1 NON        -0.2620
     24 N24        -2.3390   -6.6840  -17.1120 N.pl3     1 NON        -0.1379
     25 N25        -3.5200   -4.4930  -21.0590 N.pl3     1 NON        -0.2530
     26 N26        -2.5870   -0.3070  -25.4620 N.am      1 NON        -0.2903
     27 O27        -1.0380   -1.6150  -24.4150 O.2       1 NON        -0.3878
     28 H1         -7.2590   -3.1519  -21.4237 H         1 NON         0.0380
     29 H2         -6.0556   -3.4764  -20.1302 H         1 NON         0.0380
     30 H3         -6.3743   -4.7149  -21.3917 H         1 NON         0.0380
     31 H4         -2.0686    1.2517  -26.7469 H         1 NON         0.0483
     32 H5         -0.8507   -0.0593  -26.5903 H         1 NON         0.0483
     33 H6         -1.0793    1.1187  -25.2536 H         1 NON         0.0483
     34 H7         -1.0026   -8.2902  -12.1945 H         1 NON         0.0549
     35 H8         -0.2181   -6.0972  -13.0363 H         1 NON         0.0597
     36 H9         -2.3989   -9.7185  -13.6598 H         1 NON         0.0597
     37 H10        -4.8558   -0.6738  -24.4799 H         1 NON         0.0559
     38 H11        -6.5795   -1.6904  -23.0288 H         1 NON         0.0539
     39 H12        -0.8253   -5.3281  -15.3118 H         1 NON         0.0576
     40 H13        -3.0113   -8.9641  -15.9329 H         1 NON         0.0576
     41 H14        -1.8596   -3.2158  -22.7186 H         1 NON         0.0569
     42 H15        -3.3394   -7.4031  -20.0569 H         1 NON         0.0747
     43 H16        -2.2211   -2.2058  -17.4507 H         1 NON         0.1030
     44 H17        -3.5934   -5.4526  -21.4260 H         1 NON         0.2180
     45 H18        -3.5499   -0.2087  -25.7133 H         1 NON         0.1839
@<TRIPOS>BOND
     1    5    1 ar 
     2    1    6 1  
     3    1   14 ar 
     4    9    2 1  
     5    2   26 am 
     6    2   27 2  
     7    8    3 ar 
     8    3   23 ar 
     9    3   25 1  
    10    4    8 ar 
    11    4   22 ar 
    12   24    4 1  
    13    5   17 ar 
    14   25    5 1  
    15   26    7 1  
    16    8   18 1  
    17    9   13 ar 
    18   17    9 ar 
    19   11   10 ar 
    20   12   10 ar 
    21   15   11 ar 
    22   16   12 ar 
    23   14   13 ar 
    24   20   15 ar 
    25   20   16 ar 
    26   18   21 2  
    27   22   19 ar 
    28   19   23 ar 
    29   20   24 1  
    30   21   24 1  
    31    6   28 1  
    32    6   29 1  
    33    6   30 1  
    34    7   31 1  
    35    7   32 1  
    36    7   33 1  
    37   10   34 1  
    38   11   35 1  
    39   12   36 1  
    40   13   37 1  
    41   14   38 1  
    42   15   39 1  
    43   16   40 1  
    44   17   41 1  
    45   18   42 1  
    46   19   43 1  
    47   25   44 1  
    48   26   45 1  
@<TRIPOS>SUBSTRUCTURE
     1 NON         1

