### 
### Created by X-TOOL on Mon Sep 10 21:13:04 2018
### 

@<TRIPOS>MOLECULE
3l9h_ligand
   66    69     1     0     0
SMALL
GAST_HUCK


@<TRIPOS>ATOM
      1 N1         26.4770   10.1400   18.7660 N.am      1 EMQ        -0.2707
      2 C2         26.0020   10.2040   11.1550 C.ar      1 EMQ         0.0197
      3 C3         26.5190    8.9540   10.7500 C.ar      1 EMQ        -0.0464
      4 C4         27.4600    8.2800   11.5360 C.ar      1 EMQ        -0.0119
      5 C5         26.4360   10.7750   12.3620 C.ar      1 EMQ        -0.0390
      6 C6         27.3780   10.1070   13.1540 C.ar      1 EMQ         0.0396
      7 C7         27.8960    8.8530   12.7430 C.ar      1 EMQ         0.0867
      8 N8         28.8550    8.1720   13.5300 N.pl3     1 EMQ        -0.2880
      9 C9         29.3050    8.7270   14.8420 C.3       1 EMQ         0.0834
     10 C10        27.8330   10.7500   14.4410 C.3       1 EMQ         0.1046
     11 C11        29.2510   10.2770   14.8070 C.3       1 EMQ         0.0284
     12 C12        29.6860   10.9190   16.1540 C.3       1 EMQ        -0.0397
     13 C13        28.5960   10.8360   17.2440 C.3       1 EMQ        -0.0238
     14 C14        27.2110   11.2350   16.6460 C.3       1 EMQ         0.0812
     15 O15        26.9240   10.4080   15.4930 O.3       1 EMQ        -0.3595
     16 C16        30.7180    8.2660   15.1380 C.ar      1 EMQ        -0.0164
     17 C17        30.9250    7.4160   16.2280 C.ar      1 EMQ        -0.0580
     18 C18        32.2190    6.9630   16.5510 C.ar      1 EMQ        -0.0685
     19 C19        33.3220    7.3630   15.7800 C.ar      1 EMQ        -0.0687
     20 C20        33.1250    8.2200   14.6790 C.ar      1 EMQ        -0.0685
     21 C21        31.8260    8.6780   14.3490 C.ar      1 EMQ        -0.0580
     22 C22        24.9940   10.9230   10.2720 C.3       1 EMQ         0.3546
     23 F23        24.2240    9.9750    9.5820 F         1 EMQ        -0.2385
     24 F24        24.1650   11.7510   11.0340 F         1 EMQ        -0.2385
     25 F25        25.6870   11.7130    9.3470 F         1 EMQ        -0.2385
     26 C26        26.0700   11.0700   17.6970 C.3       1 EMQ         0.0576
     27 C27        26.8630   10.5730   20.0010 C.2       1 EMQ         0.2576
     28 N28        27.2750    9.6370   20.9030 N.am      1 EMQ        -0.2681
     29 O29        26.8660   11.7900   20.2760 O.2       1 EMQ        -0.4008
     30 C30        27.7540   10.0170   22.2320 C.3       1 EMQ         0.0712
     31 C31        26.9170    9.3460   23.3370 C.3       1 EMQ        -0.0120
     32 N32        27.7260    9.1440   24.5700 N.4       1 EMQ         0.2323
     33 C33        28.1200   10.4540   25.0690 C.3       1 EMQ        -0.0433
     34 C34        26.8260    8.5800   25.6010 C.3       1 EMQ        -0.0433
     35 H1         26.4699    9.1576   18.5795 H         1 EMQ         0.1846
     36 H2         26.1829    8.5114    9.8193 H         1 EMQ         0.0782
     37 H3         27.8507    7.3209   11.2157 H         1 EMQ         0.0619
     38 H4         26.0418   11.7331   12.6808 H         1 EMQ         0.0723
     39 H5         29.2482    7.2814   13.1936 H         1 EMQ         0.1930
     40 H6         28.6351    8.3626   15.6347 H         1 EMQ         0.0738
     41 H7         27.8423   11.8424   14.3124 H         1 EMQ         0.0752
     42 H8         29.9454   10.6218   14.0267 H         1 EMQ         0.0392
     43 H9         29.9236   11.9782   15.9765 H         1 EMQ         0.0273
     44 H10        30.5841   10.3975   16.5166 H         1 EMQ         0.0273
     45 H11        28.8493   11.5224   18.0654 H         1 EMQ         0.0291
     46 H12        28.5436    9.8069   17.6290 H         1 EMQ         0.0291
     47 H13        27.2527   12.2884   16.3320 H         1 EMQ         0.0618
     48 H14        30.0808    7.1021   16.8312 H         1 EMQ         0.0557
     49 H15        32.3638    6.3028   17.3984 H         1 EMQ         0.0599
     50 H16        34.3178    7.0151   16.0299 H         1 EMQ         0.0559
     51 H17        33.9736    8.5309   14.0804 H         1 EMQ         0.0599
     52 H18        31.6781    9.3375   13.5015 H         1 EMQ         0.0557
     53 H19        25.8418   12.0510   18.1393 H         1 EMQ         0.0543
     54 H20        25.1730   10.6755   17.1972 H         1 EMQ         0.0543
     55 H21        27.2491    8.6697   20.6505 H         1 EMQ         0.1847
     56 H22        27.6825   11.1093   22.3407 H         1 EMQ         0.0570
     57 H23        28.8038    9.7059   22.3379 H         1 EMQ         0.0570
     58 H24        26.5613    8.3697   22.9762 H         1 EMQ         0.0834
     59 H25        26.0543    9.9860   23.5736 H         1 EMQ         0.0834
     60 H26        28.5229    8.5513   24.3977 H         1 EMQ         0.2028
     61 H27        28.7207   10.3329   25.9825 H         1 EMQ         0.0777
     62 H28        27.2208   11.0451   25.2972 H         1 EMQ         0.0777
     63 H29        28.7161   10.9736   24.3044 H         1 EMQ         0.0777
     64 H30        26.4876    7.5819   25.2860 H         1 EMQ         0.0777
     65 H31        25.9548    9.2394   25.7277 H         1 EMQ         0.0777
     66 H32        27.3668    8.4994   26.5555 H         1 EMQ         0.0777
@<TRIPOS>BOND
     1   26    1 1  
     2    1   27 am 
     3    2    3 ar 
     4    5    2 ar 
     5    2   22 1  
     6    4    3 ar 
     7    7    4 ar 
     8    6    5 ar 
     9    6    7 ar 
    10   10    6 1  
    11    7    8 1  
    12    9    8 1  
    13   11    9 1  
    14    9   16 1  
    15   10   11 1  
    16   15   10 1  
    17   12   11 1  
    18   13   12 1  
    19   14   13 1  
    20   14   15 1  
    21   14   26 1  
    22   16   17 ar 
    23   16   21 ar 
    24   17   18 ar 
    25   18   19 ar 
    26   19   20 ar 
    27   20   21 ar 
    28   22   23 1  
    29   22   24 1  
    30   22   25 1  
    31   27   28 am 
    32   27   29 2  
    33   28   30 1  
    34   30   31 1  
    35   31   32 1  
    36   32   33 1  
    37   32   34 1  
    38    1   35 1  
    39    3   36 1  
    40    4   37 1  
    41    5   38 1  
    42    8   39 1  
    43    9   40 1  
    44   10   41 1  
    45   11   42 1  
    46   12   43 1  
    47   12   44 1  
    48   13   45 1  
    49   13   46 1  
    50   14   47 1  
    51   17   48 1  
    52   18   49 1  
    53   19   50 1  
    54   20   51 1  
    55   21   52 1  
    56   26   53 1  
    57   26   54 1  
    58   28   55 1  
    59   30   56 1  
    60   30   57 1  
    61   31   58 1  
    62   31   59 1  
    63   32   60 1  
    64   33   61 1  
    65   33   62 1  
    66   33   63 1  
    67   34   64 1  
    68   34   65 1  
    69   34   66 1  
@<TRIPOS>SUBSTRUCTURE
     1 EMQ         1

