### 
### Created by X-TOOL on Mon Sep 10 21:13:07 2018
### 

@<TRIPOS>MOLECULE
3l9l_ligand
   50    53     1     0     0
SMALL
GAST_HUCK


@<TRIPOS>ATOM
      1 C1         28.9430    7.0250    6.4340 C.ar      1 L9L        -0.0767
      2 F1         28.6550    3.7990   11.8450 F         1 L9L        -0.2274
      3 N1         32.0410    1.4530    6.1440 N.pl3     1 L9L        -0.2783
      4 O1         25.3400    8.4900   10.7180 O.2       1 L9L        -0.3884
      5 S1         30.4850    3.3240    7.4590 S.3       1 L9L         0.0161
      6 C2         28.0410    8.0320    6.8960 C.ar      1 L9L        -0.0476
      7 F2         27.3350    2.2900   12.8090 F         1 L9L        -0.2274
      8 N2         31.9030    3.7860    5.3270 N.2       1 L9L        -0.3181
      9 C3         27.5230    7.8480    8.2330 C.ar      1 L9L         0.0715
     10 F3         26.4330    3.6470   11.1910 F         1 L9L        -0.2274
     11 N3         30.5480   -1.0390    5.3660 N.4       1 L9L         0.2243
     12 C4         27.8710    6.7480    9.0430 C.ar      1 L9L        -0.0030
     13 N4         26.5810    8.5670    8.8350 N.am      1 L9L        -0.2355
     14 C5         28.7780    5.7380    8.5770 C.ar      1 L9L        -0.0665
     15 C6         29.3600    5.8680    7.2270 C.ar      1 L9L        -0.0386
     16 C7         30.2010   -0.1500    6.5220 C.3       1 L9L         0.0112
     17 C8         26.2330    8.0430   10.0240 C.2       1 L9L         0.2094
     18 C9         30.3570    4.8600    6.7270 C.2       1 L9L         0.0301
     19 C10        31.2020    4.9580    5.5640 C.2       1 L9L        -0.0338
     20 C11        31.6230    2.8360    6.2550 C.2       1 L9L         0.1808
     21 C12        31.4900    0.4680    7.0710 C.3       1 L9L         0.0787
     22 C13        27.8380    0.8960    8.2950 C.ar      1 L9L        -0.0280
     23 C14        27.4180    1.8890    9.2580 C.ar      1 L9L        -0.0372
     24 C15        28.0290    1.9740   10.5960 C.ar      1 L9L         0.0385
     25 C16        29.1460    1.0400   10.8900 C.ar      1 L9L        -0.0372
     26 C17        29.5610    0.0230    9.9600 C.ar      1 L9L        -0.0280
     27 C18        28.9070    0.0330    8.6730 C.ar      1 L9L        -0.0059
     28 C19        27.5650    3.0040   11.6880 C.3       1 L9L         0.3684
     29 C20        29.4060   -0.9170    7.5860 C.3       1 L9L         0.0412
     30 C21        27.1220    6.8330   10.3540 C.3       1 L9L         0.0719
     31 H1         29.3442    7.1244    5.4319 H         1 L9L         0.0505
     32 H2         32.7174    1.1685    5.4212 H         1 L9L         0.1908
     33 H3         27.7624    8.8810    6.2823 H         1 L9L         0.0487
     34 H4         31.0690   -0.5128    4.6821 H         1 L9L         0.2000
     35 H5         29.7015   -1.3901    4.9462 H         1 L9L         0.2000
     36 H6         31.1069   -1.8118    5.6923 H         1 L9L         0.2000
     37 H7         26.1792    9.3979    8.4501 H         1 L9L         0.2261
     38 H8         29.0316    4.8929    9.2068 H         1 L9L         0.0492
     39 H9         29.5620    0.6660    6.1535 H         1 L9L         0.0904
     40 H10        31.2807    5.8493    4.9433 H         1 L9L         0.0517
     41 H11        31.2713    0.9608    8.0298 H         1 L9L         0.0589
     42 H12        32.2310   -0.3295    7.2292 H         1 L9L         0.0589
     43 H13        27.3597    0.8115    7.3259 H         1 L9L         0.0652
     44 H14        26.6344    2.5881    8.9891 H         1 L9L         0.0836
     45 H15        29.6662    1.1273   11.8370 H         1 L9L         0.0836
     46 H16        30.3207   -0.7082   10.2114 H         1 L9L         0.0652
     47 H17        30.0546   -1.6794    8.0421 H         1 L9L         0.0556
     48 H18        28.5436   -1.4064    7.1099 H         1 L9L         0.0556
     49 H19        27.7926    7.0297   11.2035 H         1 L9L         0.0646
     50 H20        26.5320    5.9266   10.5548 H         1 L9L         0.0646
@<TRIPOS>BOND
     1    1    6 ar 
     2   15    1 ar 
     3   28    2 1  
     4    3   20 1  
     5   21    3 1  
     6   17    4 2  
     7    5   18 1  
     8   20    5 1  
     9    6    9 ar 
    10   28    7 1  
    11    8   19 1  
    12   20    8 2  
    13   12    9 ar 
    14    9   13 1  
    15   28   10 1  
    16   16   11 1  
    17   14   12 ar 
    18   12   30 1  
    19   17   13 am 
    20   15   14 ar 
    21   18   15 1  
    22   16   21 1  
    23   29   16 1  
    24   30   17 1  
    25   19   18 2  
    26   22   23 ar 
    27   27   22 ar 
    28   23   24 ar 
    29   25   24 ar 
    30   24   28 1  
    31   26   25 ar 
    32   27   26 ar 
    33   27   29 1  
    34    1   31 1  
    35    3   32 1  
    36    6   33 1  
    37   11   34 1  
    38   11   35 1  
    39   11   36 1  
    40   13   37 1  
    41   14   38 1  
    42   16   39 1  
    43   19   40 1  
    44   21   41 1  
    45   21   42 1  
    46   22   43 1  
    47   23   44 1  
    48   25   45 1  
    49   26   46 1  
    50   29   47 1  
    51   29   48 1  
    52   30   49 1  
    53   30   50 1  
@<TRIPOS>SUBSTRUCTURE
     1 L9L         1

