### 
### Created by X-TOOL on Mon Sep 10 21:13:07 2018
### 

@<TRIPOS>MOLECULE
3l9m_ligand
   50    53     1     0     0
SMALL
GAST_HUCK


@<TRIPOS>ATOM
      1 C1         27.7810    1.1500    8.8420 C.ar      1 L9M        -0.0666
      2 N1         25.6970    8.4820    9.3970 N.2       1 L9M        -0.2177
      3 S1         30.0540    3.5020    7.6100 S.3       1 L9M         0.0562
      4 C2         27.3810    2.0450    9.9040 C.ar      1 L9M        -0.0671
      5 N2         31.5370    4.0450    5.6520 N.2       1 L9M        -0.2577
      6 C3         28.1870    2.0530   11.1160 C.ar      1 L9M        -0.0528
      7 N3         30.5300   -0.8930    5.7050 N.4       1 L9M         0.2236
      8 C4         29.3640    1.2250   11.3350 C.ar      1 L9M        -0.0671
      9 N4         26.2750    9.0600    8.3410 N.pl3     1 L9M        -0.2222
     10 C5         29.7520    0.3440   10.2740 C.ar      1 L9M        -0.0666
     11 N5         30.8120    5.0500    5.7470 N.2       1 L9M        -0.2707
     12 C6         28.9600    0.3250    9.0570 C.ar      1 L9M        -0.0443
     13 N6         31.9660    1.7630    6.3140 N.pl3     1 L9M        -0.2768
     14 C7         31.4970    0.7340    7.2850 C.3       1 L9M         0.0778
     15 C8         29.4160   -0.6210    7.9330 C.3       1 L9M         0.0228
     16 C9         26.1770    7.2750    9.6450 C.2       1 L9M         0.0332
     17 C10        30.2030    0.0630    6.8040 C.3       1 L9M         0.0055
     18 C11        29.0360    7.3230    6.2970 C.ar      1 L9M        -0.0563
     19 C12        31.3030    2.9930    6.4540 C.2       1 L9M         0.1963
     20 C13        28.1390    8.4110    6.6210 C.ar      1 L9M        -0.0327
     21 C14        27.2330    8.2640    7.7620 C.ar      1 L9M         0.0870
     22 C15        27.1860    7.0510    8.6160 C.ar      1 L9M         0.0191
     23 C16        28.0920    5.9700    8.2750 C.ar      1 L9M        -0.0479
     24 C17        29.0030    6.1150    7.1230 C.ar      1 L9M         0.0079
     25 C18        25.7470    6.4170   10.7630 C.3       1 L9M        -0.0222
     26 C19        29.9220    5.0400    6.7610 C.2       1 L9M         0.1156
     27 CL1        27.6800    3.1600   12.3800 C.3       1 L9M        -0.0343
     28 H1         27.2209    1.0952    7.9155 H         1 L9M         0.0540
     29 H2         26.5131    2.6864    9.8017 H         1 L9M         0.0540
     30 H3         31.0446   -0.4124    4.9837 H         1 L9M         0.1999
     31 H4         29.6767   -1.2648    5.3180 H         1 L9M         0.1999
     32 H5         31.0895   -1.6473    6.0711 H         1 L9M         0.1999
     33 H6         29.9236    1.2730   12.2622 H         1 L9M         0.0540
     34 H7         26.0293    9.9997    7.9983 H         1 L9M         0.2404
     35 H8         30.6205   -0.2964   10.3777 H         1 L9M         0.0540
     36 H9         32.7004    1.5898    5.6129 H         1 L9M         0.1906
     37 H10        31.3112    1.2159    8.2562 H         1 L9M         0.0587
     38 H11        32.2772   -0.0329    7.3994 H         1 L9M         0.0587
     39 H12        28.5224   -1.0889    7.4942 H         1 L9M         0.0469
     40 H13        30.0564   -1.3977    8.3764 H         1 L9M         0.0469
     41 H14        29.5553    0.8489    6.3883 H         1 L9M         0.0893
     42 H15        29.7191    7.4009    5.4589 H         1 L9M         0.0607
     43 H16        28.1376    9.3193    6.0293 H         1 L9M         0.0565
     44 H17        28.0996    5.0599    8.8639 H         1 L9M         0.0641
     45 H18        26.3061    5.4701   10.7346 H         1 L9M         0.0388
     46 H19        24.6704    6.2099   10.6732 H         1 L9M         0.0388
     47 H20        25.9435    6.9303   11.7158 H         1 L9M         0.0388
     48 H21        26.7815    3.7036   12.0526 H         1 L9M         0.0378
     49 H22        28.4882    3.8775   12.5850 H         1 L9M         0.0378
     50 H23        27.4524    2.5928   13.2946 H         1 L9M         0.0378
@<TRIPOS>BOND
     1    1    4 ar 
     2   12    1 ar 
     3    9    2 1  
     4   16    2 2  
     5    3   19 1  
     6   26    3 1  
     7    4    6 ar 
     8   11    5 1  
     9    5   19 2  
    10    8    6 ar 
    11    6   27 1  
    12   17    7 1  
    13   10    8 ar 
    14   21    9 1  
    15   12   10 ar 
    16   26   11 2  
    17   15   12 1  
    18   13   14 1  
    19   19   13 1  
    20   14   17 1  
    21   17   15 1  
    22   22   16 1  
    23   16   25 1  
    24   18   20 ar 
    25   24   18 ar 
    26   20   21 ar 
    27   22   21 ar 
    28   23   22 ar 
    29   24   23 ar 
    30   24   26 1  
    31    1   28 1  
    32    4   29 1  
    33    7   30 1  
    34    7   31 1  
    35    7   32 1  
    36    8   33 1  
    37    9   34 1  
    38   10   35 1  
    39   13   36 1  
    40   14   37 1  
    41   14   38 1  
    42   15   39 1  
    43   15   40 1  
    44   17   41 1  
    45   18   42 1  
    46   20   43 1  
    47   23   44 1  
    48   25   45 1  
    49   25   46 1  
    50   25   47 1  
    51   27   48 1  
    52   27   49 1  
    53   27   50 1  
@<TRIPOS>SUBSTRUCTURE
     1 L9M         1

