### 
### Created by X-TOOL on Mon Sep 10 21:13:07 2018
### 

@<TRIPOS>MOLECULE
3l9n_ligand
   47    50     1     0     0
SMALL
GAST_HUCK


@<TRIPOS>ATOM
      1 C1         33.2850   19.8420   57.4660 C.ar      1 L9N        -0.0666
      2 N1         34.7850   12.6360   55.9320 N.pl3     1 L9N        -0.2445
      3 S1         31.0860   17.6540   58.9400 S.3       1 L9N         0.0591
      4 C2         34.2570   18.7700   57.5560 C.ar      1 L9N        -0.0671
      5 N2         28.6840   17.3840   59.3000 N.2       1 L9N        -0.2530
      6 C3         34.9850   18.6460   58.8070 C.ar      1 L9N        -0.0528
      7 N3         29.6000   22.2690   58.5680 N.4       1 L9N         0.2236
      8 C4         34.8130   19.5120   59.9510 C.ar      1 L9N        -0.0671
      9 N4         33.5410   12.1190   55.8610 N.2       1 L9N        -0.3332
     10 C5         33.8510   20.5700   59.8560 C.ar      1 L9N        -0.0666
     11 N5         28.9930   16.2070   58.6980 N.2       1 L9N        -0.2639
     12 C6         33.1040   20.7110   58.6180 C.ar      1 L9N        -0.0443
     13 N6         29.4300   19.6270   60.1750 N.pl3     1 L9N        -0.2759
     14 C7         30.4600   20.6520   60.1920 C.3       1 L9N         0.0781
     15 C8         32.0450   21.8180   58.5330 C.3       1 L9N         0.0228
     16 C9         34.6460   13.8420   56.5680 C.2       1 L9N         0.1098
     17 C10        30.6360   21.2270   58.7690 C.3       1 L9N         0.0056
     18 C11        30.3580   13.8280   57.2290 C.ar      1 L9N        -0.0483
     19 C12        29.6280   18.3220   59.5400 C.2       1 L9N         0.1986
     20 C13        31.0830   12.7200   56.5520 C.ar      1 L9N        -0.0559
     21 C14        32.5250   12.8370   56.3860 C.ar      1 L9N        -0.0118
     22 C15        33.2650   14.0390   56.8860 C.ar      1 L9N         0.0356
     23 C16        32.5200   15.0970   57.5440 C.ar      1 L9N        -0.0333
     24 C17        31.0550   15.0350   57.7380 C.ar      1 L9N         0.0182
     25 C18        30.3390   16.1750   58.4130 C.2       1 L9N         0.1236
     26 CL1        36.1800   17.3630   59.0120 C.3       1 L9N        -0.0343
     27 H1         32.7069   19.9922   56.5614 H         1 L9N         0.0540
     28 H2         35.6564   12.2131   55.5817 H         1 L9N         0.2935
     29 H3         34.4324   18.0925   56.7282 H         1 L9N         0.0540
     30 H4         28.6876   21.8703   58.7249 H         1 L9N         0.1999
     31 H5         29.6554   22.6204   57.6249 H         1 L9N         0.1999
     32 H6         29.7527   23.0244   59.2176 H         1 L9N         0.1999
     33 H7         35.3943   19.3657   60.8542 H         1 L9N         0.0540
     34 H8         33.6851   21.2472   60.6860 H         1 L9N         0.0540
     35 H9         28.5260   19.8258   60.6268 H         1 L9N         0.1912
     36 H10        31.4099   20.2121   60.5300 H         1 L9N         0.0588
     37 H11        30.1641   21.4582   60.8794 H         1 L9N         0.0588
     38 H12        32.0825   22.2812   57.5360 H         1 L9N         0.0469
     39 H13        32.2528   22.5794   59.2992 H         1 L9N         0.0469
     40 H14        35.4539   14.5363   56.7942 H         1 L9N         0.1370
     41 H15        30.4782   20.4174   58.0413 H         1 L9N         0.0893
     42 H16        29.2841   13.7513   57.3549 H         1 L9N         0.0645
     43 H17        30.5513   11.8470   56.1911 H         1 L9N         0.0623
     44 H18        33.0578   15.9654   57.9069 H         1 L9N         0.0656
     45 H19        36.2356   16.7633   58.0915 H         1 L9N         0.0378
     46 H20        35.8848   16.7179   59.8526 H         1 L9N         0.0378
     47 H21        37.1642   17.8083   59.2195 H         1 L9N         0.0378
@<TRIPOS>BOND
     1    1    4 ar 
     2   12    1 ar 
     3    9    2 1  
     4   16    2 1  
     5    3   19 1  
     6   25    3 1  
     7    4    6 ar 
     8   11    5 1  
     9    5   19 2  
    10    8    6 ar 
    11   17    7 1  
    12   10    8 ar 
    13   21    9 2  
    14   12   10 ar 
    15   25   11 2  
    16   15   12 1  
    17   13   14 1  
    18   19   13 1  
    19   14   17 1  
    20   17   15 1  
    21   22   16 2  
    22   18   20 ar 
    23   24   18 ar 
    24   20   21 ar 
    25   22   21 ar 
    26   23   22 ar 
    27   24   23 ar 
    28   24   25 1  
    29    6   26 1  
    30    1   27 1  
    31    2   28 1  
    32    4   29 1  
    33    7   30 1  
    34    7   31 1  
    35    7   32 1  
    36    8   33 1  
    37   10   34 1  
    38   13   35 1  
    39   14   36 1  
    40   14   37 1  
    41   15   38 1  
    42   15   39 1  
    43   16   40 1  
    44   17   41 1  
    45   18   42 1  
    46   20   43 1  
    47   23   44 1  
    48   26   45 1  
    49   26   46 1  
    50   26   47 1  
@<TRIPOS>SUBSTRUCTURE
     1 L9N         1

