### 
### Created by X-TOOL on Mon Sep 10 21:13:03 2018
### 

@<TRIPOS>MOLECULE
3lau_ligand
   39    41     1     0     0
SMALL
GAST_HUCK


@<TRIPOS>ATOM
      1 C1         -5.5510   -8.0930   18.7460 C.ar      1 OFI         0.0758
      2 C2         -5.2880   -8.4740   17.3670 C.ar      1 OFI        -0.0580
      3 C3         -5.2240   -9.2830   19.5620 C.2       1 OFI         0.2662
      4 C4         -6.0070   -6.7830   18.9720 C.ar      1 OFI        -0.0405
      5 C5         -5.4820   -7.5790   16.3160 C.ar      1 OFI        -0.0618
      6 N6         -4.8640   -9.7810   17.4600 N.2       1 OFI        -0.4521
      7 N7         -4.8320  -10.2290   18.7220 N.pl3     1 OFI        -0.2598
      8 N8         -5.3270   -9.3550   21.0430 N.am      1 OFI        -0.1555
      9 C9         -6.2010   -5.8750   17.8880 C.ar      1 OFI        -0.0551
     10 C10        -5.9380   -6.2550   16.5520 C.ar      1 OFI        -0.0252
     11 C11        -6.2740   -8.8930   21.8910 C.2       1 OFI         0.2355
     12 C12        -6.1250   -5.2810   15.4280 C.ar      1 OFI        -0.0280
     13 C13        -5.9200   -9.2000   23.3530 C.3       1 OFI         0.0495
     14 O14        -7.3020   -8.2840   21.5910 O.2       1 OFI        -0.3696
     15 C15        -7.3470   -5.1670   14.7320 C.ar      1 OFI        -0.0616
     16 C16        -5.0560   -4.4360   15.0370 C.ar      1 OFI        -0.0616
     17 C17        -7.0780   -9.8540   24.1110 C.3       1 OFI        -0.0378
     18 C18        -7.5000   -4.2320   13.6750 C.ar      1 OFI        -0.0314
     19 C19        -5.1990   -3.5000   13.9830 C.ar      1 OFI        -0.0314
     20 C20        -6.7090  -10.1510   25.5710 C.3       1 OFI        -0.0631
     21 C21        -6.4270   -3.3950   13.2980 C.ar      1 OFI         0.0894
     22 O22        -6.6030   -2.4940   12.2730 O.3       1 OFI        -0.3319
     23 H1         -6.2145   -6.4573   19.9849 H         1 OFI         0.0630
     24 H2         -5.2811   -7.8995   15.3001 H         1 OFI         0.0603
     25 H3         -4.5427  -11.1775   19.0005 H         1 OFI         0.2460
     26 H4         -4.5656   -9.8257   21.4889 H         1 OFI         0.2695
     27 H5         -6.5577   -4.8722   18.0936 H         1 OFI         0.0609
     28 H6         -5.6552   -8.2589   23.8571 H         1 OFI         0.0514
     29 H7         -5.0567   -9.8814   23.3715 H         1 OFI         0.0514
     30 H8         -8.1807   -5.8023   15.0083 H         1 OFI         0.0601
     31 H9         -4.1072   -4.5076   15.5564 H         1 OFI         0.0601
     32 H10        -7.3423  -10.7978   23.6117 H         1 OFI         0.0287
     33 H11        -7.9433   -9.1751   24.0937 H         1 OFI         0.0287
     34 H12        -8.4475   -4.1600   13.1534 H         1 OFI         0.0548
     35 H13        -4.3656   -2.8656   13.7036 H         1 OFI         0.0548
     36 H14        -7.5659  -10.6189   26.0778 H         1 OFI         0.0231
     37 H15        -6.4489   -9.2121   26.0818 H         1 OFI         0.0231
     38 H16        -5.8479  -10.8349   25.5998 H         1 OFI         0.0231
     39 H17        -6.4599   -1.6133   12.5990 H         1 OFI         0.2490
@<TRIPOS>BOND
     1    1    2 ar 
     2    1    3 2  
     3    1    4 ar 
     4    2    5 ar 
     5    2    6 2  
     6    3    7 1  
     7    3    8 1  
     8    4    9 ar 
     9    5   10 ar 
    10    6    7 1  
    11    8   11 am 
    12    9   10 ar 
    13   10   12 1  
    14   11   13 1  
    15   11   14 2  
    16   12   15 ar 
    17   12   16 ar 
    18   13   17 1  
    19   15   18 ar 
    20   16   19 ar 
    21   17   20 1  
    22   18   21 ar 
    23   19   21 ar 
    24   21   22 1  
    25    4   23 1  
    26    5   24 1  
    27    7   25 1  
    28    8   26 1  
    29    9   27 1  
    30   13   28 1  
    31   13   29 1  
    32   15   30 1  
    33   16   31 1  
    34   17   32 1  
    35   17   33 1  
    36   18   34 1  
    37   19   35 1  
    38   20   36 1  
    39   20   37 1  
    40   20   38 1  
    41   22   39 1  
@<TRIPOS>SUBSTRUCTURE
     1 OFI         1

