### 
### Created by X-TOOL on Fri Sep 26 17:34:46 2014
### 

@<TRIPOS>MOLECULE
3lbj_ligand
   84    89     1     0     0
SMALL
GAST_HUCK


@<TRIPOS>ATOM
      1 C1         15.4330   -6.5810    4.9840 C.ar      1 WW8        -0.0254
      2 C2         16.4450   -6.3180    5.9000 C.ar      1 WW8         0.0289
      3 CL3        16.9210   -7.5330    7.0300 Cl        1 WW8        -0.0771
      4 C4         17.0910   -5.0870    5.8940 C.ar      1 WW8        -0.0616
      5 C5         16.7210   -4.0870    4.9890 C.ar      1 WW8        -0.0686
      6 C6         15.7130   -4.3590    4.0730 C.ar      1 WW8        -0.0037
      7 C7         15.0650   -5.5890    4.0970 C.ar      1 WW8         0.0712
      8 N8         14.1750   -5.6050    3.1360 N.pl3     1 WW8        -0.2643
      9 C9         14.1750   -4.4420    2.5120 C.2       1 WW8         0.1462
     10 C10        13.2140   -4.2420    1.3740 C.2       1 WW8         0.2304
     11 O11        12.9040   -5.2480    0.7270 O.2       1 WW8        -0.3850
     12 N12        12.6710   -3.0850    1.0600 N.am      1 WW8        -0.2660
     13 C13        12.8390   -1.8290    1.8120 C.3       1 WW8         0.0759
     14 C14        11.5690   -1.0950    1.4220 C.3       1 WW8         0.0014
     15 N15        11.6450    0.3280    1.7340 N.4       1 WW8         0.2368
     16 C16        12.0730    0.7380    3.0620 C.3       1 WW8        -0.0269
     17 C17        12.7070    2.1190    3.1440 C.3       1 WW8         0.0277
     18 C18        13.0530    2.2500    4.6170 C.3       1 WW8        -0.0275
     19 N19        13.2080    3.6120    5.0680 N.4       1 WW8         0.2310
     20 C20        13.4130    4.0040    6.4330 C.3       1 WW8        -0.0433
     21 C21        14.5030    4.0160    4.5180 C.3       1 WW8        -0.0433
     22 C22        10.8070    1.2150    0.9420 C.3       1 WW8        -0.0428
     23 C23        11.3520   -1.4460   -0.0600 C.3       1 WW8         0.0125
     24 C24        11.7160   -2.9390   -0.0660 C.3       1 WW8         0.0385
     25 C25        15.1110   -3.5930    3.0880 C.2       1 WW8         0.0356
     26 C26        15.5830   -2.3260    2.7040 C.2       1 WW8         0.0852
     27 C27        15.7760   -1.1580    3.4410 C.2       1 WW8         0.0297
     28 C28        15.3500   -0.8220    4.7210 C.ar      1 WW8        -0.0299
     29 C29        16.0340    0.1950    5.3760 C.ar      1 WW8        -0.0626
     30 C30        15.6210    0.6210    6.6400 C.ar      1 WW8        -0.0677
     31 C31        14.5210    0.0060    7.2570 C.ar      1 WW8        -0.0676
     32 C32        13.8580   -1.0160    6.5800 C.ar      1 WW8        -0.0677
     33 C33        14.2740   -1.4480    5.3270 C.ar      1 WW8        -0.0626
     34 N34        16.3590   -0.2480    2.6450 N.2       1 WW8        -0.3181
     35 C35        16.6040   -0.8210    1.4760 C.2       1 WW8         0.1011
     36 N36        16.1620   -2.0590    1.5200 N.pl3     1 WW8        -0.2315
     37 C37        16.2950   -2.9700    0.3860 C.3       1 WW8         0.0921
     38 C38        17.3100   -4.0810    0.7390 C.ar      1 WW8        -0.0124
     39 C39        16.9410   -5.4090    0.6070 C.ar      1 WW8        -0.0570
     40 C40        17.8310   -6.4330    0.9180 C.ar      1 WW8        -0.0545
     41 C41        19.1030   -6.1490    1.3930 C.ar      1 WW8         0.0330
     42 CL42       20.2250   -7.4080    1.7940 Cl        1 WW8        -0.0771
     43 C43        19.4720   -4.8300    1.5460 C.ar      1 WW8        -0.0545
     44 C44        18.5750   -3.7920    1.2360 C.ar      1 WW8        -0.0570
     45 H1         14.9418   -7.5472    4.9664 H         1 WW8         0.0558
     46 H2         17.8920   -4.8998    6.6000 H         1 WW8         0.0530
     47 H3         17.2106   -3.1200    5.0022 H         1 WW8         0.0564
     48 H4         13.5677   -6.4036    2.9028 H         1 WW8         0.2279
     49 H5         13.7379   -1.2819    1.4915 H         1 WW8         0.0577
     50 H6         12.8863   -2.0090    2.8961 H         1 WW8         0.0577
     51 H7         10.7266   -1.5038    1.9993 H         1 WW8         0.0872
     52 H8         12.5154    0.5187    1.2627 H         1 WW8         0.2034
     53 H9         12.8087    0.0045    3.4234 H         1 WW8         0.0816
     54 H10        11.1921    0.7290    3.7207 H         1 WW8         0.0816
     55 H11        11.9962    2.8992    2.8341 H         1 WW8         0.0369
     56 H12        13.6105    2.1769    2.5192 H         1 WW8         0.0369
     57 H13        13.9978    1.7167    4.7985 H         1 WW8         0.0816
     58 H14        12.2489    1.7816    5.2035 H         1 WW8         0.0816
     59 H15        12.4384    4.1457    4.6952 H         1 WW8         0.2028
     60 H16        13.4981    5.0992    6.4911 H         1 WW8         0.0777
     61 H17        14.3375    3.5438    6.8118 H         1 WW8         0.0777
     62 H18        12.5606    3.6696    7.0425 H         1 WW8         0.0777
     63 H19        14.5328    3.7853    3.4429 H         1 WW8         0.0777
     64 H20        15.3067    3.4691    5.0327 H         1 WW8         0.0777
     65 H21        14.6426    5.0971    4.6650 H         1 WW8         0.0777
     66 H22        10.5847    0.7420   -0.0259 H         1 WW8         0.0778
     67 H23        11.3354    2.1649    0.7732 H         1 WW8         0.0778
     68 H24         9.8672    1.4087    1.4798 H         1 WW8         0.0778
     69 H25        12.0189   -0.8653   -0.7142 H         1 WW8         0.0340
     70 H26        10.3075   -1.2840   -0.3645 H         1 WW8         0.0340
     71 H27        10.8223   -3.5591    0.0975 H         1 WW8         0.0523
     72 H28        12.1891   -3.2214   -1.0180 H         1 WW8         0.0523
     73 H29        16.8919    0.6596    4.9036 H         1 WW8         0.0569
     74 H30        16.1482    1.4238    7.1427 H         1 WW8         0.0601
     75 H31        14.1931    0.3198    8.2414 H         1 WW8         0.0568
     76 H32        12.9970   -1.4851    7.0423 H         1 WW8         0.0601
     77 H33        13.7628   -2.2646    4.8301 H         1 WW8         0.0569
     78 H34        17.0889   -0.3475    0.6236 H         1 WW8         0.1240
     79 H35        16.6512   -2.4129   -0.4930 H         1 WW8         0.0784
     80 H36        15.3179   -3.4228    0.1620 H         1 WW8         0.0784
     81 H37        15.9451   -5.6546    0.2565 H         1 WW8         0.0558
     82 H38        17.5264   -7.4651    0.7874 H         1 WW8         0.0606
     83 H39        20.4647   -4.5899    1.9093 H         1 WW8         0.0606
     84 H40        18.8723   -2.7604    1.3857 H         1 WW8         0.0558
@<TRIPOS>BOND
     1    1    2 ar 
     2    1    7 ar 
     3    2    3 1  
     4    2    4 ar 
     5    4    5 ar 
     6    5    6 ar 
     7    6    7 ar 
     8    6   25 1  
     9    7    8 1  
    10    8    9 1  
    11    9   10 1  
    12    9   25 2  
    13   10   11 2  
    14   10   12 am 
    15   12   13 1  
    16   12   24 1  
    17   13   14 1  
    18   14   15 1  
    19   14   23 1  
    20   15   16 1  
    21   15   22 1  
    22   16   17 1  
    23   17   18 1  
    24   18   19 1  
    25   19   20 1  
    26   19   21 1  
    27   23   24 1  
    28   25   26 1  
    29   26   27 2  
    30   26   36 1  
    31   27   28 1  
    32   27   34 1  
    33   28   29 ar 
    34   28   33 ar 
    35   29   30 ar 
    36   30   31 ar 
    37   31   32 ar 
    38   32   33 ar 
    39   34   35 2  
    40   35   36 1  
    41   36   37 1  
    42   37   38 1  
    43   38   39 ar 
    44   38   44 ar 
    45   39   40 ar 
    46   40   41 ar 
    47   41   42 1  
    48   41   43 ar 
    49   43   44 ar 
    50    1   45 1  
    51    4   46 1  
    52    5   47 1  
    53    8   48 1  
    54   13   49 1  
    55   13   50 1  
    56   14   51 1  
    57   15   52 1  
    58   16   53 1  
    59   16   54 1  
    60   17   55 1  
    61   17   56 1  
    62   18   57 1  
    63   18   58 1  
    64   19   59 1  
    65   20   60 1  
    66   20   61 1  
    67   20   62 1  
    68   21   63 1  
    69   21   64 1  
    70   21   65 1  
    71   22   66 1  
    72   22   67 1  
    73   22   68 1  
    74   23   69 1  
    75   23   70 1  
    76   24   71 1  
    77   24   72 1  
    78   29   73 1  
    79   30   74 1  
    80   31   75 1  
    81   32   76 1  
    82   33   77 1  
    83   35   78 1  
    84   37   79 1  
    85   37   80 1  
    86   39   81 1  
    87   40   82 1  
    88   43   83 1  
    89   44   84 1  
@<TRIPOS>SUBSTRUCTURE
     1 WW8         1

