### 
### Created by X-TOOL on Mon Sep 10 21:13:04 2018
### 

@<TRIPOS>MOLECULE
3lbk_ligand
   48    52     1     0     0
SMALL
GAST_HUCK


@<TRIPOS>ATOM
      1 C1         19.3890   15.1240    3.3630 C.ar      1 K23         0.0279
      2 CL2        19.8380   13.7230    4.2620 Cl        1 K23        -0.0780
      3 C3         19.6630   16.3950    3.7780 C.ar      1 K23        -0.0626
      4 C4         19.2800   17.4870    3.0140 C.ar      1 K23        -0.0701
      5 C5         18.6040   17.2920    1.8150 C.ar      1 K23        -0.0068
      6 C6         18.3430   15.9980    1.4010 C.ar      1 K23         0.0701
      7 C7         18.7350   14.9180    2.1640 C.ar      1 K23        -0.0264
      8 N8         17.7030   16.0300    0.2640 N.pl3     1 K23        -0.2666
      9 C9         17.5480   17.2960   -0.1130 C.2       1 K23         0.1087
     10 C10        16.8080   17.5960   -1.4360 C.2       1 K23         0.0897
     11 O11        16.1340   16.6590   -1.9010 O.co2     1 K23        -0.5586
     12 O12        16.8590   18.7050   -1.9680 O.co2     1 K23        -0.5586
     13 C13        18.0530   18.1340    0.8610 C.2       1 K23         0.0294
     14 C14        18.1610   19.5260    0.9100 C.2       1 K23         0.0822
     15 C15        17.5110   20.4480    1.7510 C.2       1 K23         0.0275
     16 C16        16.5290   20.2190    2.7060 C.ar      1 K23        -0.0313
     17 C17        16.5750   20.9180    3.8990 C.ar      1 K23        -0.0632
     18 C18        15.6070   20.7620    4.8740 C.ar      1 K23        -0.0682
     19 C19        14.5390   19.9150    4.6420 C.ar      1 K23        -0.0680
     20 C20        14.4720   19.2340    3.4340 C.ar      1 K23        -0.0682
     21 C21        15.4610   19.3910    2.4730 C.ar      1 K23        -0.0632
     22 N22        17.9720   21.6750    1.4750 N.2       1 K23        -0.3201
     23 C23        18.8840   21.5630    0.5100 C.2       1 K23         0.1000
     24 N24        19.0050   20.2670    0.1910 N.pl3     1 K23        -0.2325
     25 C25        19.8810   19.7410   -0.8460 C.3       1 K23         0.0919
     26 C26        21.0330   18.9670   -0.2960 C.ar      1 K23        -0.0124
     27 C27        21.4040   17.8070   -0.9410 C.ar      1 K23        -0.0570
     28 C28        22.4660   17.0810   -0.4430 C.ar      1 K23        -0.0545
     29 C29        23.1340   17.5120    0.6680 C.ar      1 K23         0.0330
     30 CL30       24.4730   16.6010    1.2070 Cl        1 K23        -0.0771
     31 C31        22.7740   18.6820    1.3270 C.ar      1 K23        -0.0545
     32 C32        21.7000   19.4050    0.8330 C.ar      1 K23        -0.0570
     33 H          20.1884   16.5533    4.7198 H         1 K23         0.0527
     34 H          19.5088   18.4973    3.3532 H         1 K23         0.0556
     35 H          18.5291   13.9039    1.8215 H         1 K23         0.0557
     36 H          17.3742   15.2144   -0.2529 H         1 K23         0.2288
     37 H          17.3975   21.6112    4.0753 H         1 K23         0.0565
     38 H          15.6852   21.3022    5.8175 H         1 K23         0.0600
     39 H          13.7622   19.7841    5.3954 H         1 K23         0.0565
     40 H          13.6320   18.5676    3.2378 H         1 K23         0.0600
     41 H          15.3884   18.8531    1.5277 H         1 K23         0.0565
     42 H          19.4375   22.3856    0.0571 H         1 K23         0.1231
     43 H          20.2839   20.5874   -1.4023 H         1 K23         0.0784
     44 H          19.2929   19.0659   -1.4677 H         1 K23         0.0784
     45 H          20.8682   17.4694   -1.8282 H         1 K23         0.0558
     46 H          22.7734   16.1598   -0.9379 H         1 K23         0.0606
     47 H          23.3208   19.0209    2.2069 H         1 K23         0.0606
     48 H          21.3812   20.3188    1.3344 H         1 K23         0.0558
@<TRIPOS>BOND
     1    1    2 1  
     2    1    3 ar 
     3    1    7 ar 
     4    3    4 ar 
     5    4    5 ar 
     6    5    6 ar 
     7    5   13 1  
     8    6    7 ar 
     9    6    8 1  
    10    8    9 1  
    11    9   10 1  
    12    9   13 2  
    13   10   11 ar 
    14   10   12 ar 
    15   13   14 1  
    16   14   15 2  
    17   14   24 1  
    18   15   16 1  
    19   15   22 1  
    20   16   17 ar 
    21   16   21 ar 
    22   17   18 ar 
    23   18   19 ar 
    24   19   20 ar 
    25   20   21 ar 
    26   22   23 2  
    27   23   24 1  
    28   24   25 1  
    29   25   26 1  
    30   26   27 ar 
    31   26   32 ar 
    32   27   28 ar 
    33   28   29 ar 
    34   29   30 1  
    35   29   31 ar 
    36   31   32 ar 
    37    3   33 1  
    38    4   34 1  
    39    7   35 1  
    40    8   36 1  
    41   17   37 1  
    42   18   38 1  
    43   19   39 1  
    44   20   40 1  
    45   21   41 1  
    46   23   42 1  
    47   25   43 1  
    48   25   44 1  
    49   27   45 1  
    50   28   46 1  
    51   31   47 1  
    52   32   48 1  
@<TRIPOS>SUBSTRUCTURE
     1 K23         1

