### 
### Created by X-TOOL on Mon Sep 10 21:13:03 2018
### 

@<TRIPOS>MOLECULE
3lbl_ligand
   56    59     1     0     0
SMALL
GAST_HUCK


@<TRIPOS>ATOM
      1 C1        -13.6040    3.6600  -18.5500 C.ar      1 MI6         0.0940
      2 C2        -12.8400    4.7960  -18.7890 C.ar      1 MI6         0.0042
      3 C3        -11.7930    5.1400  -17.9500 C.ar      1 MI6         0.0579
      4 CL4       -10.8820    6.5690  -18.3070 Cl        1 MI6        -0.0481
      5 C5        -11.5150    4.3300  -16.8510 C.ar      1 MI6        -0.0343
      6 C6        -12.2720    3.1770  -16.5990 C.ar      1 MI6        -0.0548
      7 C7        -13.3360    2.8340  -17.4390 C.ar      1 MI6        -0.0202
      8 C8        -14.3840    1.7070  -17.5500 C.3       1 MI6         0.0941
      9 C9        -15.1480    2.1160  -18.7510 C.2       1 MI6         0.2158
     10 O10       -16.1070    1.4800  -19.1780 O.2       1 MI6        -0.3202
     11 N11       -14.6360    3.2170  -19.2730 N.am      1 MI6        -0.2203
     12 C12       -13.8270    0.2960  -17.8780 C.3       1 MI6        -0.0373
     13 C13       -12.6350    0.3320  -18.8850 C.3       1 MI6        -0.0158
     14 C14       -11.4510   -0.6270  -18.7400 C.3       1 MI6        -0.0339
     15 C15       -10.8500   -0.7770  -20.1340 C.3       1 MI6        -0.0599
     16 C16       -10.4100    0.0060  -17.8270 C.3       1 MI6        -0.0599
     17 C17       -11.8420   -2.0140  -18.2170 C.3       1 MI6        -0.0599
     18 N18       -13.6520   -0.3580  -16.5620 N.4       1 MI6         0.2407
     19 C19       -14.9400   -0.0540  -15.8890 C.3       1 MI6         0.0670
     20 C20       -14.8500   -0.3780  -14.3920 C.2       1 MI6         0.2231
     21 O21       -15.3270    0.3400  -13.5260 O.2       1 MI6        -0.3909
     22 N22       -14.3020   -1.5660  -14.1460 N.am      1 MI6        -0.2961
     23 C31       -15.4100    1.3420  -16.4370 C.3       1 MI6         0.0374
     24 C32       -16.0800    2.5630  -15.6900 C.ar      1 MI6        -0.0093
     25 C33       -15.5880    3.5780  -14.8320 C.ar      1 MI6         0.1466
     26 F34       -14.3260    3.6400  -14.3650 F         1 MI6        -0.1883
     27 C35       -16.4730    4.5770  -14.3870 C.ar      1 MI6         0.0668
     28 CL36      -15.9740    5.8310  -13.3140 Cl        1 MI6        -0.0741
     29 C37       -17.7990    4.6200  -14.7900 C.ar      1 MI6        -0.0566
     30 C38       -18.2820    3.6550  -15.6510 C.ar      1 MI6        -0.0720
     31 C39       -17.4160    2.6710  -16.0920 C.ar      1 MI6        -0.0624
     32 H         -13.0680    5.4254  -19.6492 H         1 MI6         0.0594
     33 H         -10.6991    4.5959  -16.1789 H         1 MI6         0.0595
     34 H         -12.0300    2.5452  -15.7444 H         1 MI6         0.0770
     35 H         -14.9838    3.6697  -20.1183 H         1 MI6         0.2402
     36 H         -14.4983   -0.3332  -18.4624 H         1 MI6         0.0704
     37 H         -12.1953    1.3186  -18.7388 H         1 MI6         0.0312
     38 H         -13.0855    0.0535  -19.8377 H         1 MI6         0.0312
     39 H         -11.6022   -1.1821  -20.8109 H         1 MI6         0.0235
     40 H         -10.5229    0.1984  -20.4941 H         1 MI6         0.0235
     41 H          -9.9970   -1.4541  -20.0896 H         1 MI6         0.0235
     42 H         -10.0712    0.9465  -18.2616 H         1 MI6         0.0235
     43 H         -10.8530    0.1949  -16.8491 H         1 MI6         0.0235
     44 H          -9.5632   -0.6717  -17.7189 H         1 MI6         0.0235
     45 H         -12.3017   -1.9138  -17.2338 H         1 MI6         0.0235
     46 H         -12.5507   -2.4741  -18.9056 H         1 MI6         0.0235
     47 H         -10.9507   -2.6368  -18.1411 H         1 MI6         0.0235
     48 H         -12.8390   -0.0183  -16.0482 H         1 MI6         0.2027
     49 H         -13.4596   -1.3573  -16.6311 H         1 MI6         0.2027
     50 H         -15.7901   -0.6943  -16.1245 H         1 MI6         0.1112
     51 H         -14.2643   -1.9223  -13.1910 H         1 MI6         0.1816
     52 H         -13.9199   -2.1199  -14.9125 H         1 MI6         0.1816
     53 H         -16.4544    1.1098  -16.6454 H         1 MI6         0.0399
     54 H         -18.4562    5.4111  -14.4291 H         1 MI6         0.0555
     55 H         -19.3224    3.6683  -15.9759 H         1 MI6         0.0565
     56 H         -17.7983    1.9330  -16.7972 H         1 MI6         0.0547
@<TRIPOS>BOND
     1    1    2 ar 
     2    1    7 ar 
     3    1   11 1  
     4    2    3 ar 
     5    3    4 1  
     6    3    5 ar 
     7    5    6 ar 
     8    6    7 ar 
     9    7    8 1  
    10    8    9 1  
    11    8   12 1  
    12    8   23 1  
    13    9   10 2  
    14    9   11 am 
    15   12   13 1  
    16   12   18 1  
    17   13   14 1  
    18   14   15 1  
    19   14   16 1  
    20   14   17 1  
    21   18   19 1  
    22   19   20 1  
    23   19   23 1  
    24   20   21 2  
    25   20   22 am 
    26   23   24 1  
    27   24   25 ar 
    28   24   31 ar 
    29   25   26 1  
    30   25   27 ar 
    31   27   28 1  
    32   27   29 ar 
    33   29   30 ar 
    34   30   31 ar 
    35    2   32 1  
    36    5   33 1  
    37    6   34 1  
    38   11   35 1  
    39   12   36 1  
    40   13   37 1  
    41   13   38 1  
    42   15   39 1  
    43   15   40 1  
    44   15   41 1  
    45   16   42 1  
    46   16   43 1  
    47   16   44 1  
    48   17   45 1  
    49   17   46 1  
    50   17   47 1  
    51   18   48 1  
    52   18   49 1  
    53   19   50 1  
    54   22   51 1  
    55   22   52 1  
    56   23   53 1  
    57   29   54 1  
    58   30   55 1  
    59   31   56 1  
@<TRIPOS>SUBSTRUCTURE
     1 MI6         1

