### 
### Created by X-TOOL on Fri Sep 26 17:34:48 2014
### 

@<TRIPOS>MOLECULE
3lbz_ligand
   33    35     1     0     0
SMALL
GAST_HUCK


@<TRIPOS>ATOM
      1 C          -5.8640    6.9850   20.3670 C.2       1 Z89         0.0690
      2 N          -5.4560    5.2670   18.8240 N.am      1 Z89        -0.1647
      3 O          -6.4920    6.0600   20.9680 O.co2     1 Z89        -0.5660
      4 CA         -4.8740    6.5840   19.2700 C.3       1 Z89         0.1373
      5 CB         -3.4770    6.5540   19.9250 C.3       1 Z89         0.0416
      6 CG         -2.9580    7.9740   20.1740 C.2       1 Z89         0.0392
      7 CAA        -4.1380   -0.2320   18.9500 C.ar      1 Z89         0.0751
      8 CAB        -4.1090    1.1540   19.0870 C.ar      1 Z89         0.0119
      9 CAC        -2.9920    1.8170   19.6220 C.ar      1 Z89        -0.0597
     10 CAD        -1.8710    1.0990   20.0470 C.ar      1 Z89        -0.0041
     11 BRAE       -0.3140    1.9250   20.8020 Br        1 Z89        -0.0638
     12 CAF        -1.9140   -0.2780   19.9040 C.ar      1 Z89        -0.0673
     13 CAG        -3.0250   -0.9210   19.3760 C.ar      1 Z89        -0.0393
     14 CAH        -5.3240    1.5950   18.5780 C.2       1 Z89         0.0841
     15 CAI        -6.0160    0.4740   18.1640 C.2       1 Z89         0.2290
     16 NAJ        -5.3120   -0.6460   18.3940 N.am      1 Z89        -0.2334
     17 OAK        -7.1820    0.4550   17.6350 O.2       1 Z89        -0.3746
     18 CAL        -5.7460    2.9440   18.5110 C.2       1 Z89         0.1477
     19 CAM        -4.9350    4.0280   18.9710 C.2       1 Z89         0.2698
     20 CAW        -6.7000    5.0920   18.2730 C.2       1 Z89         0.1692
     21 SAX        -7.6560    6.5660   17.9670 S.2       1 Z89        -0.2491
     22 SAY        -7.2990    3.4720   17.8520 S.3       1 Z89         0.0401
     23 OAZ        -3.7360    3.9040   19.4760 O.2       1 Z89        -0.3623
     24 OD1        -2.7970    8.4080   21.3470 O.co2     1 Z89        -0.5688
     25 OD2        -2.7190    8.7030   19.1830 O.co2     1 Z89        -0.5688
     26 OXT        -6.0800    8.2020   20.6580 O.co2     1 Z89        -0.5660
     27 H1         -4.8638    7.2972   18.4326 H         1 Z89         0.0826
     28 H2         -2.7782    6.0271   19.2586 H         1 Z89         0.0477
     29 H3         -3.5409    6.0207   20.8849 H         1 Z89         0.0477
     30 H4         -2.9997    2.8977   19.7061 H         1 Z89         0.0595
     31 H5         -1.0586   -0.8683   20.2121 H         1 Z89         0.0591
     32 H6         -3.0159   -2.0020   19.2964 H         1 Z89         0.0506
     33 H7         -5.5904   -1.5864   18.1985 H         1 Z89         0.2264
@<TRIPOS>BOND
     1    1    3 ar 
     2    4    1 1  
     3    1   26 ar 
     4    2    4 1  
     5   19    2 am 
     6    2   20 am 
     7    4    5 1  
     8    5    6 1  
     9    6   24 ar 
    10    6   25 ar 
    11    8    7 ar 
    12    7   13 ar 
    13   16    7 1  
    14    8    9 ar 
    15   14    8 1  
    16    9   10 ar 
    17   10   11 1  
    18   10   12 ar 
    19   13   12 ar 
    20   14   15 1  
    21   18   14 2  
    22   15   16 am 
    23   15   17 2  
    24   18   19 1  
    25   18   22 1  
    26   19   23 2  
    27   20   21 2  
    28   20   22 1  
    29    4   27 1  
    30    5   28 1  
    31    5   29 1  
    32    9   30 1  
    33   12   31 1  
    34   13   32 1  
    35   16   33 1  
@<TRIPOS>SUBSTRUCTURE
     1 Z89         1

