### 
### Created by X-TOOL on Fri Sep 26 17:34:47 2014
### 

@<TRIPOS>MOLECULE
3lc3_ligand
   39    41     1     0     0
SMALL
GAST_HUCK


@<TRIPOS>ATOM
      1 C1         24.2260  -14.8210   18.5720 C.ar      1 IYX        -0.0259
      2 C2         23.5690  -13.6300   18.7900 C.ar      1 IYX         0.0371
      3 C3         23.5320  -16.0040   18.3500 C.ar      1 IYX        -0.0612
      4 C4         22.1760  -13.6090   18.8060 C.ar      1 IYX        -0.0500
      5 C5         22.1420  -16.0090   18.3420 C.ar      1 IYX        -0.0368
      6 C6         21.4590  -14.8000   18.5790 C.ar      1 IYX        -0.0647
      7 C7         25.6010  -14.6820   18.5940 C.2       1 IYX        -0.0555
      8 C8         25.9910  -13.3700   18.8360 C.2       1 IYX         0.0847
      9 S9         24.6580  -12.4430   18.9970 S.3       1 IYX        -0.0329
     10 C10        21.4320  -17.2990   18.1180 C.ar      1 IYX        -0.0416
     11 C11        21.9120  -18.4070   18.8080 C.ar      1 IYX        -0.0741
     12 C12        20.3460  -17.4530   17.2580 C.ar      1 IYX        -0.0345
     13 C13        21.3220  -19.6560   18.6590 C.ar      1 IYX        -0.0400
     14 C14        19.7330  -18.7140   17.1150 C.ar      1 IYX         0.1201
     15 C15        20.2450  -19.8070   17.8150 C.ar      1 IYX         0.1206
     16 O16        18.6670  -18.9010   16.2670 O.3       1 IYX        -0.3249
     17 C17        17.6870  -17.8980   15.9600 C.3       1 IYX         0.0569
     18 O18        19.7200  -21.0650   17.7390 O.3       1 IYX        -0.3241
     19 C19        18.8850  -21.5650   16.6900 C.3       1 IYX         0.0573
     20 C20        27.3940  -12.8940   18.8890 C.cat     1 IYX         0.2497
     21 N21        27.6570  -11.6450   19.0610 N.pl3     1 IYX        -0.2706
     22 N22        28.4720  -13.7380   18.7040 N.pl3     1 IYX        -0.2706
     23 H1         24.0764  -16.9263   18.1825 H         1 IYX         0.0563
     24 H2         21.6470  -12.6813   18.9921 H         1 IYX         0.0570
     25 H3         20.3751  -14.7861   18.5867 H         1 IYX         0.0564
     26 H4         26.2977  -15.5046   18.4397 H         1 IYX         0.0422
     27 H5         22.7605  -18.2943   19.4731 H         1 IYX         0.0503
     28 H6         19.9727  -16.6026   16.6989 H         1 IYX         0.0507
     29 H7         21.7084  -20.5087   19.2055 H         1 IYX         0.0514
     30 H8         16.9475  -18.3107   15.2579 H         1 IYX         0.0573
     31 H9         18.1825  -17.0293   15.5019 H         1 IYX         0.0573
     32 H10        17.1800  -17.5855   16.8848 H         1 IYX         0.0573
     33 H11        18.6174  -22.6108   16.9014 H         1 IYX         0.0574
     34 H12        19.4258  -21.5111   15.7336 H         1 IYX         0.0574
     35 H13        17.9700  -20.9576   16.6286 H         1 IYX         0.0574
     36 H14        28.6353  -11.3248   19.0963 H         1 IYX         0.3182
     37 H15        26.8890  -10.9663   19.1632 H         1 IYX         0.3182
     38 H16        28.3181  -14.7465   18.5619 H         1 IYX         0.3182
     39 H17        29.4296  -13.3588   18.7082 H         1 IYX         0.3182
@<TRIPOS>BOND
     1    1    2 ar 
     2    1    3 ar 
     3    1    7 1  
     4    2    4 ar 
     5    2    9 1  
     6    3    5 ar 
     7    4    6 ar 
     8    5    6 ar 
     9    5   10 1  
    10    7    8 2  
    11    8    9 1  
    12    8   20 1  
    13   10   11 ar 
    14   10   12 ar 
    15   11   13 ar 
    16   12   14 ar 
    17   13   15 ar 
    18   14   15 ar 
    19   14   16 1  
    20   15   18 1  
    21   16   17 1  
    22   18   19 1  
    23   20   21 ar 
    24   20   22 ar 
    25    3   23 1  
    26    4   24 1  
    27    6   25 1  
    28    7   26 1  
    29   11   27 1  
    30   12   28 1  
    31   13   29 1  
    32   17   30 1  
    33   17   31 1  
    34   17   32 1  
    35   19   33 1  
    36   19   34 1  
    37   19   35 1  
    38   21   36 1  
    39   21   37 1  
    40   22   38 1  
    41   22   39 1  
@<TRIPOS>SUBSTRUCTURE
     1 IYX         1

