### 
### Created by X-TOOL on Mon Sep 10 21:13:04 2018
### 

@<TRIPOS>MOLECULE
3lc5_ligand
   50    54     1     0     0
SMALL
GAST_HUCK


@<TRIPOS>ATOM
      1 C1        -13.4080   -6.4310    6.8510 C.ar      1 IZX         0.0076
      2 C2        -13.0670   -5.6320    7.9280 C.ar      1 IZX         0.0297
      3 C3        -13.7070   -5.8640    5.6190 C.ar      1 IZX         0.0978
      4 C4        -13.0130   -4.2580    7.8260 C.ar      1 IZX        -0.0615
      5 C5        -13.6570   -4.4660    5.5050 C.ar      1 IZX        -0.0419
      6 C6        -13.3110   -3.6690    6.5950 C.ar      1 IZX        -0.0801
      7 C7        -13.3990   -7.7840    7.1740 C.2       1 IZX        -0.0586
      8 C8        -13.0490   -7.9790    8.5020 C.2       1 IZX         0.0787
      9 S9        -12.7810   -6.5520    9.2000 S.3       1 IZX        -0.0401
     10 C10       -12.9410   -9.2690    9.1940 C.cat     1 IZX         0.2461
     11 N11       -13.3050  -10.3860    8.6300 N.pl3     1 IZX        -0.2713
     12 N12       -12.4410   -9.2840   10.4770 N.pl3     1 IZX        -0.2713
     13 O13       -14.0320   -6.7140    4.5960 O.3       1 IZX        -0.2802
     14 C14       -14.2620   -6.4510    3.2120 C.3       1 IZX         0.2100
     15 C15       -15.7440   -6.5890    2.9150 C.ar      1 IZX         0.0117
     16 C16       -16.4190   -5.6240    2.1770 C.ar      1 IZX        -0.0544
     17 C17       -16.4350   -7.6690    3.4440 C.ar      1 IZX        -0.0544
     18 C18       -17.7760   -5.7590    1.9460 C.ar      1 IZX        -0.0678
     19 C19       -17.7920   -7.8070    3.2120 C.ar      1 IZX        -0.0678
     20 C20       -18.4580   -6.8520    2.4680 C.ar      1 IZX        -0.0683
     21 C21       -13.3470   -7.3860    2.4450 C.2       1 IZX         0.2634
     22 O22       -13.5990   -8.4610    1.9120 O.3       1 IZX        -0.1271
     23 N23       -12.5710   -8.9280    1.3960 N.2       1 IZX        -0.1207
     24 N24       -12.0570   -7.0700    2.3240 N.2       1 IZX        -0.2689
     25 C25       -11.5570   -8.0770    1.6340 C.2       1 IZX         0.1095
     26 C26       -10.1350   -8.1710    1.2340 C.ar      1 IZX         0.0008
     27 C27        -9.1820   -7.3190    1.8040 C.ar      1 IZX        -0.0529
     28 C28        -9.7420   -9.0980    0.2800 C.ar      1 IZX        -0.0529
     29 C29        -7.8450   -7.3950    1.4250 C.ar      1 IZX        -0.0614
     30 C30        -8.4050   -9.1720   -0.0940 C.ar      1 IZX        -0.0614
     31 C31        -7.4590   -8.3250    0.4720 C.ar      1 IZX        -0.0620
     32 H         -12.7439   -3.6454    8.6864 H         1 IZX         0.0469
     33 H         -13.8922   -3.9965    4.5498 H         1 IZX         0.0468
     34 H         -13.2729   -2.5851    6.4866 H         1 IZX         0.0540
     35 H         -13.6360   -8.5861    6.4750 H         1 IZX         0.0414
     36 H         -13.6777  -10.3802    7.6805 H         1 IZX         0.3181
     37 H         -13.2172  -11.2661    9.1380 H         1 IZX         0.3181
     38 H         -12.1563   -8.4123   10.9236 H         1 IZX         0.3181
     39 H         -12.3553  -10.1668   10.9807 H         1 IZX         0.3181
     40 H         -14.0201   -5.4332    2.9060 H         1 IZX         0.1097
     41 H         -15.8804   -4.7630    1.7813 H         1 IZX         0.0564
     42 H         -15.9078   -8.4108    4.0439 H         1 IZX         0.0564
     43 H         -18.3082   -5.0118    1.3573 H         1 IZX         0.0600
     44 H         -18.3325   -8.6641    3.6138 H         1 IZX         0.0600
     45 H         -19.5281   -6.9567    2.2887 H         1 IZX         0.0562
     46 H          -9.4900   -6.5887    2.5522 H         1 IZX         0.0622
     47 H         -10.4763   -9.7639   -0.1733 H         1 IZX         0.0622
     48 H          -7.1078   -6.7291    1.8735 H         1 IZX         0.0617
     49 H          -8.0946   -9.9033   -0.8403 H         1 IZX         0.0617
     50 H          -6.4148   -8.3920    0.1668 H         1 IZX         0.0615
@<TRIPOS>BOND
     1    1    2 ar 
     2    1    3 ar 
     3    1    7 1  
     4    2    4 ar 
     5    2    9 1  
     6    3    5 ar 
     7    3   13 1  
     8    4    6 ar 
     9    5    6 ar 
    10    7    8 2  
    11    8    9 1  
    12    8   10 1  
    13   10   11 ar 
    14   10   12 ar 
    15   13   14 1  
    16   14   15 1  
    17   14   21 1  
    18   15   16 ar 
    19   15   17 ar 
    20   16   18 ar 
    21   17   19 ar 
    22   18   20 ar 
    23   19   20 ar 
    24   21   22 1  
    25   21   24 2  
    26   22   23 1  
    27   23   25 2  
    28   24   25 1  
    29   25   26 1  
    30   26   27 ar 
    31   26   28 ar 
    32   27   29 ar 
    33   28   30 ar 
    34   29   31 ar 
    35   30   31 ar 
    36    4   32 1  
    37    5   33 1  
    38    6   34 1  
    39    7   35 1  
    40   11   36 1  
    41   11   37 1  
    42   12   38 1  
    43   12   39 1  
    44   14   40 1  
    45   16   41 1  
    46   17   42 1  
    47   18   43 1  
    48   19   44 1  
    49   20   45 1  
    50   27   46 1  
    51   28   47 1  
    52   29   48 1  
    53   30   49 1  
    54   31   50 1  
@<TRIPOS>SUBSTRUCTURE
     1 IZX         1

