### 
### Created by X-TOOL on Mon Sep 10 21:13:04 2018
### 

@<TRIPOS>MOLECULE
3lcd_ligand
   67    71     1     0     0
SMALL
GAST_HUCK


@<TRIPOS>ATOM
      1 N1        -19.9480    4.8310  -17.4700 N.pl3     1 BDY        -0.3180
      2 N3        -20.1390    2.7060  -18.4450 N.ar      1 BDY        -0.2740
      3 C4        -20.9560    1.7200  -18.8190 C.ar      1 BDY         0.0173
      4 C5        -22.3160    1.7730  -18.6510 C.ar      1 BDY         0.0520
      5 C7        -22.1230    3.8530  -17.7240 C.ar      1 BDY         0.1648
      6 C10       -24.6870    4.4610  -15.8140 C.ar      1 BDY         0.0068
      7 C13       -26.3390    2.9640  -14.8590 C.ar      1 BDY        -0.0544
      8 C15       -24.7760    4.0420  -13.4470 C.ar      1 BDY        -0.0544
      9 C20       -25.1860   -0.5970  -18.7170 C.ar      1 BDY        -0.0414
     10 C21       -24.8410   -1.4230  -19.7630 C.ar      1 BDY         0.0498
     11 C22       -23.6700   -1.1990  -20.4550 C.ar      1 BDY        -0.0414
     12 C24       -25.7730   -2.5160  -20.1080 C.2       1 BDY         0.2076
     13 C28       -24.0240   -5.6960  -20.0830 C.3       1 BDY        -0.0303
     14 C2        -20.7490    3.7660  -17.8930 C.ar      1 BDY         0.1627
     15 N6        -22.9140    2.8420  -18.1080 N.ar      1 BDY        -0.2709
     16 N8        -22.6480    5.0260  -17.1270 N.pl3     1 BDY        -0.2934
     17 C9        -24.1070    5.1310  -17.0360 C.3       1 BDY         0.0615
     18 C11       -25.7620    3.5950  -15.9400 C.ar      1 BDY         0.0437
     19 CL12      -26.4560    3.2720  -17.4780 Cl        1 BDY        -0.0771
     20 C14       -25.8400    3.1830  -13.5970 C.ar      1 BDY        -0.0677
     21 C16       -24.2100    4.6750  -14.5330 C.ar      1 BDY         0.0437
     22 CL17      -22.8930    5.7390  -14.2040 Cl        1 BDY        -0.0771
     23 C18       -23.1750    0.6770  -19.0420 C.ar      1 BDY        -0.0031
     24 C19       -24.3560    0.4450  -18.3630 C.ar      1 BDY        -0.0479
     25 C23       -22.8420   -0.1570  -20.0910 C.ar      1 BDY        -0.0479
     26 O25       -26.9580   -2.2710  -19.9230 O.2       1 BDY        -0.3847
     27 N26       -25.2870   -3.7300  -20.6080 N.am      1 BDY        -0.2643
     28 C27       -23.9500   -4.2040  -20.3270 C.3       1 BDY         0.0340
     29 C29       -25.4690   -6.0870  -20.2300 C.3       1 BDY        -0.0229
     30 C30       -26.2080   -4.8490  -20.6890 C.3       1 BDY         0.0842
     31 C31       -26.7740   -5.1040  -22.0770 C.3       1 BDY        -0.0082
     32 N32       -27.2850   -3.8900  -22.7060 N.4       1 BDY         0.2369
     33 C33       -27.2390   -4.1170  -24.1510 C.3       1 BDY        -0.0316
     34 C34       -28.5550   -3.6600  -24.7390 C.3       1 BDY        -0.0077
     35 C35       -29.4850   -3.4220  -23.5760 C.3       1 BDY        -0.0077
     36 C36       -28.6860   -3.7040  -22.3260 C.3       1 BDY        -0.0316
     37 H1        -20.3802    5.6620  -17.0415 H         1 BDY         0.1769
     38 H2        -18.9257    4.7846  -17.5868 H         1 BDY         0.1769
     39 H3        -20.5253    0.8367  -19.2765 H         1 BDY         0.0766
     40 H4        -27.1822    2.2983  -15.0033 H         1 BDY         0.0607
     41 H5        -24.3752    4.2245  -12.4565 H         1 BDY         0.0607
     42 H6        -26.1083   -0.7657  -18.1730 H         1 BDY         0.0668
     43 H7        -23.3997   -1.8415  -21.2852 H         1 BDY         0.0668
     44 H8        -23.6686   -5.9324  -19.0692 H         1 BDY         0.0285
     45 H9        -23.4094   -6.2318  -20.8213 H         1 BDY         0.0285
     46 H10       -22.0318    5.7715  -16.7728 H         1 BDY         0.1825
     47 H11       -24.3777    6.1968  -17.0095 H         1 BDY         0.0684
     48 H12       -24.5455    4.6634  -17.9299 H         1 BDY         0.0684
     49 H13       -26.2764    2.6884  -12.7368 H         1 BDY         0.0560
     50 H14       -24.6340    1.0925  -17.5392 H         1 BDY         0.0637
     51 H15       -21.9191    0.0089  -20.6350 H         1 BDY         0.0637
     52 H16       -23.2931   -3.9982  -21.1850 H         1 BDY         0.0522
     53 H17       -23.5551   -3.6988  -19.4333 H         1 BDY         0.0522
     54 H18       -25.8689   -6.4316  -19.2650 H         1 BDY         0.0290
     55 H19       -25.5712   -6.8884  -20.9765 H         1 BDY         0.0290
     56 H20       -27.0498   -4.6521  -20.0088 H         1 BDY         0.0611
     57 H21       -27.5956   -5.8307  -21.9945 H         1 BDY         0.0837
     58 H22       -25.9778   -5.5211  -22.7111 H         1 BDY         0.0837
     59 H23       -26.7341   -3.0876  -22.4438 H         1 BDY         0.2034
     60 H24       -27.0905   -5.1875  -24.3560 H         1 BDY         0.0814
     61 H25       -26.4128   -3.5409  -24.5931 H         1 BDY         0.0814
     62 H26       -28.9655   -4.4368  -25.4008 H         1 BDY         0.0319
     63 H27       -28.4138   -2.7298  -25.3089 H         1 BDY         0.0319
     64 H28       -30.3496   -4.0994  -23.6356 H         1 BDY         0.0319
     65 H29       -29.8353   -2.3793  -23.5763 H         1 BDY         0.0319
     66 H30       -28.7730   -2.8564  -21.6303 H         1 BDY         0.0814
     67 H31       -29.0639   -4.6163  -21.8414 H         1 BDY         0.0814
@<TRIPOS>BOND
     1   14    1 1  
     2    3    2 ar 
     3    2   14 ar 
     4    4    3 ar 
     5    4   15 ar 
     6   23    4 1  
     7    5   14 ar 
     8   15    5 ar 
     9    5   16 1  
    10   17    6 1  
    11    6   18 ar 
    12    6   21 ar 
    13   18    7 ar 
    14    7   20 ar 
    15    8   20 ar 
    16   21    8 ar 
    17   10    9 ar 
    18    9   24 ar 
    19   10   11 ar 
    20   12   10 1  
    21   11   25 ar 
    22   12   26 2  
    23   27   12 am 
    24   28   13 1  
    25   13   29 1  
    26   16   17 1  
    27   18   19 1  
    28   21   22 1  
    29   24   23 ar 
    30   25   23 ar 
    31   27   28 1  
    32   27   30 1  
    33   29   30 1  
    34   30   31 1  
    35   31   32 1  
    36   32   33 1  
    37   32   36 1  
    38   33   34 1  
    39   34   35 1  
    40   35   36 1  
    41    1   37 1  
    42    1   38 1  
    43    3   39 1  
    44    7   40 1  
    45    8   41 1  
    46    9   42 1  
    47   11   43 1  
    48   13   44 1  
    49   13   45 1  
    50   16   46 1  
    51   17   47 1  
    52   17   48 1  
    53   20   49 1  
    54   24   50 1  
    55   25   51 1  
    56   28   52 1  
    57   28   53 1  
    58   29   54 1  
    59   29   55 1  
    60   30   56 1  
    61   31   57 1  
    62   31   58 1  
    63   32   59 1  
    64   33   60 1  
    65   33   61 1  
    66   34   62 1  
    67   34   63 1  
    68   35   64 1  
    69   35   65 1  
    70   36   66 1  
    71   36   67 1  
@<TRIPOS>SUBSTRUCTURE
     1 BDY         1

