### 
### Created by X-TOOL on Mon Sep 10 21:13:02 2018
### 

@<TRIPOS>MOLECULE
3lce_ligand
   24    25     1     0     0
SMALL
GAST_HUCK


@<TRIPOS>ATOM
      1 CAA        13.4730    0.7340   37.4450 C.3       1 LCE         0.0380
      2 OAD        16.5880    3.2070   38.5160 O.co2     1 LCE        -0.5686
      3 OAE        14.5700    3.3970   37.7440 O.co2     1 LCE        -0.5686
      4 OAF        18.3460    4.0900   35.3120 O.3       1 LCE        -0.3884
      5 CLAG       17.2190    4.4960   32.1470 Cl        1 LCE        -0.0970
      6 CLAH       17.8020    1.9810   33.5270 Cl        1 LCE        -0.0970
      7 OAK        13.9770    1.8130   36.6430 O.3       1 LCE        -0.3673
      8 SAM        15.3490    1.3280   34.2900 S.3       1 LCE        -0.1208
      9 CAN        15.7420    3.1210   37.6450 C.2       1 LCE         0.0416
     10 CAP        15.2640    1.4280   36.0880 C.3       1 LCE         0.1186
     11 CAQ        15.4620    3.1380   33.9300 C.3       1 LCE         0.0501
     12 CAR        16.1540    2.6370   36.3040 C.3       1 LCE         0.0537
     13 CAS        15.7670    3.7450   35.3240 C.3       1 LCE         0.0201
     14 CAT        16.8920    3.5400   33.5640 C.3       1 LCE         0.1565
     15 CAU        17.0470    4.4430   34.7680 C.3       1 LCE         0.0947
     16 H          13.3557   -0.1543   36.8243 H         1 LCE         0.0524
     17 H          14.1747    0.5246   38.2524 H         1 LCE         0.0524
     18 H          12.5073    1.0154   37.8650 H         1 LCE         0.0524
     19 H          18.5064    3.1539   35.1725 H         1 LCE         0.2099
     20 H          15.5044    0.4658   36.5402 H         1 LCE         0.0734
     21 H          14.6331    3.3895   33.2683 H         1 LCE         0.0448
     22 H          17.2111    2.3970   36.1902 H         1 LCE         0.0504
     23 H          15.0099    4.3225   35.8545 H         1 LCE         0.0360
     24 H          17.0707    5.5314   34.8228 H         1 LCE         0.0628
@<TRIPOS>BOND
     1    7    1 1  
     2    9    2 ar 
     3    9    3 ar 
     4   15    4 1  
     5   14    5 1  
     6   14    6 1  
     7   10    7 1  
     8   10    8 1  
     9   11    8 1  
    10   12    9 1  
    11   12   10 1  
    12   13   11 1  
    13   11   14 1  
    14   13   12 1  
    15   13   15 1  
    16   14   15 1  
    17    1   16 1  
    18    1   17 1  
    19    1   18 1  
    20    4   19 1  
    21   10   20 1  
    22   11   21 1  
    23   12   22 1  
    24   13   23 1  
    25   15   24 1  
@<TRIPOS>SUBSTRUCTURE
     1 LCE         1

