### 
### Created by X-TOOL on Mon Sep 10 21:13:04 2018
### 

@<TRIPOS>MOLECULE
3lco_ligand
   57    60     1     0     0
SMALL
GAST_HUCK


@<TRIPOS>ATOM
      1 C4         -9.7000   21.6150  -15.0520 C.ar      1 LC0        -0.0662
      2 C5        -10.6110   19.4170  -15.2280 C.ar      1 LC0        -0.0662
      3 C6        -10.6600   21.9410  -14.1190 C.ar      1 LC0        -0.0395
      4 C7        -11.5760   19.7320  -14.2970 C.ar      1 LC0        -0.0395
      5 C8         -4.9340   17.8360  -16.9560 C.ar      1 LC0        -0.0096
      6 C10        -7.1200   18.0230  -18.5290 C.ar      1 LC0         0.0201
      7 C13        -8.6260   20.0100  -16.6180 C.3       1 LC0         0.0973
      8 C15        -9.6710   20.3530  -15.6080 C.ar      1 LC0        -0.0240
      9 C17        -4.8980   17.6110  -18.3140 C.ar      1 LC0         0.0362
     10 C20        -7.2540   18.2730  -17.1810 C.ar      1 LC0         0.1424
     11 C21         0.2150   17.9440  -18.7840 C.ar      1 LC0         0.0362
     12 C22        -1.5260   19.8730  -19.2660 C.ar      1 LC0         0.1673
     13 C1          4.4880   15.5800  -18.2030 C.3       1 LC0         0.0618
     14 C2        -12.0460   20.8940  -11.5550 C.3       1 LC0         0.0579
     15 C3         -4.9300   18.6080  -14.5300 C.3       1 LC0         0.0599
     16 C9          1.0110   15.6190  -17.9830 C.2       1 LC0         0.0077
     17 C11         0.5480   19.2710  -18.6430 C.ar      1 LC0         0.0106
     18 C12         2.5430   17.0860  -18.6370 C.2       1 LC0         0.0662
     19 C14        -3.5900   17.2410  -18.9220 C.3       1 LC0         0.1146
     20 C16       -11.5900   20.9950  -13.7450 C.ar      1 LC0         0.0837
     21 C18        -6.1390   18.1730  -16.3790 C.ar      1 LC0         0.1344
     22 C19         1.1860   16.9300  -18.4870 C.2       1 LC0         0.0138
     23 C23        -1.8450   18.5410  -19.4070 C.ar      1 LC0         0.2105
     24 N24        -2.5140   20.8220  -19.5410 N.pl3     1 LC0        -0.3202
     25 N25        -5.9650   17.6940  -19.1190 N.ar      1 LC0        -0.3223
     26 N26        -0.3100   20.2660  -18.8770 N.ar      1 LC0        -0.2783
     27 N27         2.1770   14.9860  -17.8240 N.2       1 LC0        -0.2127
     28 N28        -0.9950   17.5350  -19.1730 N.ar      1 LC0        -0.2702
     29 N29         3.0770   15.8970  -18.2300 N.pl3     1 LC0        -0.2045
     30 O30       -12.5580   21.3200  -12.8120 O.3       1 LC0        -0.3257
     31 O31        -6.2500   18.4120  -15.0210 O.3       1 LC0        -0.3162
     32 O32        -8.4890   18.5950  -16.6480 O.3       1 LC0        -0.3075
     33 O33        -3.1350   18.2460  -19.8160 O.3       1 LC0        -0.2840
     34 H          -8.9604   22.3574  -15.3520 H         1 LC0         0.0531
     35 H         -10.5897   18.4201  -15.6682 H         1 LC0         0.0531
     36 H         -10.6838   22.9386  -13.6804 H         1 LC0         0.0525
     37 H         -12.3192   18.9919  -14.0005 H         1 LC0         0.0525
     38 H          -4.0308   17.7496  -16.3519 H         1 LC0         0.0540
     39 H          -8.0100   18.0978  -19.1538 H         1 LC0         0.0677
     40 H          -7.6769   20.4739  -16.3494 H         1 LC0         0.0753
     41 H          -8.9173   20.3804  -17.6009 H         1 LC0         0.0753
     42 H           4.8964   15.6601  -19.2104 H         1 LC0         0.0608
     43 H           5.0035   16.2786  -17.5440 H         1 LC0         0.0608
     44 H           4.6237   14.5632  -17.8343 H         1 LC0         0.0608
     45 H         -11.8682   19.8189  -11.5820 H         1 LC0         0.0575
     46 H         -11.1098   21.4134  -11.3506 H         1 LC0         0.0575
     47 H         -12.7691   21.1244  -10.7726 H         1 LC0         0.0575
     48 H          -4.3368   17.7133  -14.7191 H         1 LC0         0.0578
     49 H          -4.4775   19.4596  -15.0380 H         1 LC0         0.0578
     50 H          -4.9674   18.8007  -13.4578 H         1 LC0         0.0578
     51 H           0.0411   15.1784  -17.7522 H         1 LC0         0.0679
     52 H           1.5601   19.5217  -18.3253 H         1 LC0         0.0730
     53 H           3.0755   17.9648  -19.0006 H         1 LC0         0.1054
     54 H          -3.7159   16.3122  -19.4785 H         1 LC0         0.0789
     55 H          -2.8559   17.1275  -18.1243 H         1 LC0         0.0789
     56 H          -3.4423   20.5206  -19.8374 H         1 LC0         0.1751
     57 H          -2.3070   21.8162  -19.4454 H         1 LC0         0.1751
@<TRIPOS>BOND
     1    1    3 ar 
     2    8    1 ar 
     3    2    4 ar 
     4    8    2 ar 
     5    3   20 ar 
     6    4   20 ar 
     7    9    5 ar 
     8    5   21 ar 
     9    6   10 ar 
    10   25    6 ar 
    11    7    8 1  
    12   32    7 1  
    13   19    9 1  
    14    9   25 ar 
    15   21   10 ar 
    16   10   32 1  
    17   11   17 ar 
    18   11   22 1  
    19   28   11 ar 
    20   23   12 ar 
    21   12   24 1  
    22   12   26 ar 
    23   29   13 1  
    24   30   14 1  
    25   31   15 1  
    26   22   16 1  
    27   16   27 2  
    28   26   17 ar 
    29   22   18 2  
    30   18   29 1  
    31   33   19 1  
    32   20   30 1  
    33   21   31 1  
    34   23   28 ar 
    35   23   33 1  
    36   27   29 1  
    37    1   34 1  
    38    2   35 1  
    39    3   36 1  
    40    4   37 1  
    41    5   38 1  
    42    6   39 1  
    43    7   40 1  
    44    7   41 1  
    45   13   42 1  
    46   13   43 1  
    47   13   44 1  
    48   14   45 1  
    49   14   46 1  
    50   14   47 1  
    51   15   48 1  
    52   15   49 1  
    53   15   50 1  
    54   16   51 1  
    55   17   52 1  
    56   18   53 1  
    57   19   54 1  
    58   19   55 1  
    59   24   56 1  
    60   24   57 1  
@<TRIPOS>SUBSTRUCTURE
     1 LC0         1

