### 
### Created by X-TOOL on Fri Sep 26 17:34:48 2014
### 

@<TRIPOS>MOLECULE
3lcu_ligand
   46    48     1     0     0
SMALL
GAST_HUCK


@<TRIPOS>ATOM
      1 N           8.5910   -1.9530   22.6830 N.4       1 SAH         0.2327
      2 CA          7.2210   -1.6910   23.0920 C.3       1 SAH         0.0291
      3 CB          6.4860   -1.0800   21.8900 C.3       1 SAH         0.0114
      4 CG          6.5040   -1.8810   20.5930 C.3       1 SAH         0.0005
      5 SD          5.6630   -1.0990   19.2250 S.3       1 SAH        -0.1578
      6 C           6.4850   -3.0010   23.5670 C.2       1 SAH         0.0844
      7 O           7.0660   -4.0160   23.4090 O.co2     1 SAH        -0.5643
      8 OXT         5.4390   -3.0710   23.9650 O.co2     1 SAH        -0.5643
      9 C5'         6.9830   -0.2940   18.4840 C.3       1 SAH         0.0226
     10 C4'         7.5630    1.0610   19.0580 C.3       1 SAH         0.0995
     11 O4'         8.5240    1.4670   18.0950 O.3       1 SAH        -0.3383
     12 C3'         6.5660    2.1910   19.1530 C.3       1 SAH         0.1132
     13 O3'         6.3970    2.5750   20.5210 O.3       1 SAH        -0.3864
     14 C2'         7.1960    3.3030   18.2080 C.3       1 SAH         0.1385
     15 O2'         6.9130    4.6220   18.6460 O.3       1 SAH        -0.3836
     16 C1'         8.6550    2.8990   18.2460 C.3       1 SAH         0.2009
     17 N9          9.4850    3.3500   17.2920 N.pl3     1 SAH        -0.1919
     18 C8          9.2390    3.3810   15.9280 C.2       1 SAH         0.1123
     19 N7         10.2390    3.8610   15.2320 N.2       1 SAH        -0.2958
     20 C5         11.2080    4.1620   16.2290 C.ar      1 SAH         0.1045
     21 C6         12.5130    4.7090   16.0240 C.ar      1 SAH         0.1298
     22 N6         13.0230    5.0240   14.8290 N.pl3     1 SAH        -0.3152
     23 N1         13.2230    4.8910   17.1920 N.ar      1 SAH        -0.2698
     24 C2         12.7320    4.5740   18.4310 C.ar      1 SAH         0.0533
     25 N3         11.4770    4.0400   18.6380 N.ar      1 SAH        -0.2714
     26 C4         10.7790    3.8670   17.4810 C.ar      1 SAH         0.1613
     27 H1          9.0240   -1.0920   22.3877 H         1 SAH         0.2010
     28 H2          8.5936   -2.6099   21.9184 H         1 SAH         0.2010
     29 H3          9.1055   -2.3388   23.4592 H         1 SAH         0.2010
     30 H4          7.2258   -0.9707   23.9234 H         1 SAH         0.1024
     31 H5          6.9433   -0.1012   21.6829 H         1 SAH         0.0347
     32 H6          5.4342   -0.9394   22.1796 H         1 SAH         0.0347
     33 H7          6.0223   -2.8516   20.7823 H         1 SAH         0.0379
     34 H8          7.5530   -2.0424   20.3039 H         1 SAH         0.0379
     35 H9          6.6749   -0.0839   17.4492 H         1 SAH         0.0402
     36 H10         7.8181   -1.0099   18.4798 H         1 SAH         0.0402
     37 H11         8.0196    0.8868   20.0435 H         1 SAH         0.0632
     38 H12         5.5872    1.8818   18.7576 H         1 SAH         0.0647
     39 H13         5.7689    3.2859   20.5739 H         1 SAH         0.2100
     40 H14         6.8068    3.2036   17.1840 H         1 SAH         0.0676
     41 H15         7.2671    4.7476   19.5185 H         1 SAH         0.2101
     42 H16         9.0841    3.1687   19.2223 H         1 SAH         0.0996
     43 H17         8.3068    3.0401   15.4799 H         1 SAH         0.1349
     44 H18        13.9735    5.4150   14.7616 H         1 SAH         0.1820
     45 H19        12.4654    4.8757   13.9758 H         1 SAH         0.1820
     46 H20        13.3629    4.7522   19.2943 H         1 SAH         0.0996
@<TRIPOS>BOND
     1    1    2 1  
     2    2    3 1  
     3    2    6 1  
     4    3    4 1  
     5    4    5 1  
     6    5    9 1  
     7    6    7 ar 
     8    6    8 ar 
     9    9   10 1  
    10   10   11 1  
    11   10   12 1  
    12   11   16 1  
    13   12   13 1  
    14   12   14 1  
    15   14   15 1  
    16   14   16 1  
    17   16   17 1  
    18   17   18 1  
    19   17   26 1  
    20   18   19 2  
    21   19   20 1  
    22   20   21 ar 
    23   20   26 ar 
    24   21   22 1  
    25   21   23 ar 
    26   23   24 ar 
    27   24   25 ar 
    28   25   26 ar 
    29    1   27 1  
    30    1   28 1  
    31    1   29 1  
    32    2   30 1  
    33    3   31 1  
    34    3   32 1  
    35    4   33 1  
    36    4   34 1  
    37    9   35 1  
    38    9   36 1  
    39   10   37 1  
    40   12   38 1  
    41   13   39 1  
    42   14   40 1  
    43   15   41 1  
    44   16   42 1  
    45   18   43 1  
    46   22   44 1  
    47   22   45 1  
    48   24   46 1  
@<TRIPOS>SUBSTRUCTURE
     1 SAH         1

