### 
### Created by X-TOOL on Fri Sep 26 17:34:49 2014
### 

@<TRIPOS>MOLECULE
3lcv_ligand
   50    52     1     0     0
SMALL
GAST_HUCK


@<TRIPOS>ATOM
      1 N           8.8800   -1.7400   22.9860 N.4       1 SAM         0.2328
      2 CA          7.4430   -1.4750   23.1020 C.3       1 SAM         0.0327
      3 C           6.6850   -2.7520   23.4550 C.2       1 SAM         0.0846
      4 O           7.0640   -3.8230   23.0130 O.co2     1 SAM        -0.5643
      5 OXT         5.5110   -2.8550   24.2750 O.co2     1 SAM        -0.5643
      6 CB          6.8680   -0.9090   21.6660 C.3       1 SAM         0.0473
      7 CG          6.8360   -1.7890   20.4270 C.3       1 SAM         0.1163
      8 SD          6.1850   -0.9500   18.9480 S.3       1 SAM        -0.0103
      9 CE          5.7510   -2.2890   17.8130 C.3       1 SAM         0.0995
     10 C5'         6.9580   -0.1310   18.3140 C.3       1 SAM         0.1381
     11 C4'         7.5660    1.1460   18.8760 C.3       1 SAM         0.1350
     12 O4'         8.8050    1.4340   18.1900 O.3       1 SAM        -0.3344
     13 C3'         6.6900    2.3680   18.6720 C.3       1 SAM         0.1168
     14 O3'         6.3920    2.6690   20.0790 O.3       1 SAM        -0.3863
     15 C2'         7.5610    3.4890   18.1150 C.3       1 SAM         0.1386
     16 O2'         7.4540    4.8020   18.6330 O.3       1 SAM        -0.3836
     17 C1'         8.9700    2.8340   18.1100 C.3       1 SAM         0.2011
     18 N9          9.7170    3.4880   17.1450 N.pl3     1 SAM        -0.1919
     19 C8          9.4990    3.4780   15.7830 C.2       1 SAM         0.1123
     20 N7         10.5600    3.9520   15.1560 N.2       1 SAM        -0.2958
     21 C5         11.4800    4.2880   16.0480 C.ar      1 SAM         0.1045
     22 C6         12.7790    4.8310   15.9010 C.ar      1 SAM         0.1298
     23 N6         13.2910    5.0970   14.7300 N.pl3     1 SAM        -0.3152
     24 N1         13.5220    5.0850   17.0170 N.ar      1 SAM        -0.2698
     25 C2         12.9870    4.8040   18.2370 C.ar      1 SAM         0.0533
     26 N3         11.7460    4.2810   18.3600 N.ar      1 SAM        -0.2714
     27 C4         10.9910    4.0230   17.2730 C.ar      1 SAM         0.1613
     28 H1          9.3614   -0.8856   22.7529 H         1 SAM         0.2010
     29 H2          9.0383   -2.4232   22.2619 H         1 SAM         0.2010
     30 H3          9.2284   -2.0933   23.8634 H         1 SAM         0.2010
     31 H4          7.2772   -0.7233   23.8878 H         1 SAM         0.1026
     32 H5          7.4802   -0.0319   21.4093 H         1 SAM         0.0385
     33 H6          5.8309   -0.5914   21.8492 H         1 SAM         0.0385
     34 H7          6.2015   -2.6624   20.6380 H         1 SAM         0.0843
     35 H8          7.8616   -2.1240   20.2127 H         1 SAM         0.0843
     36 H9          5.3451   -1.8643   16.8830 H         1 SAM         0.0803
     37 H10         4.9947   -2.9360   18.2813 H         1 SAM         0.0803
     38 H11         6.6492   -2.8813   17.5841 H         1 SAM         0.0803
     39 H12         6.3794    0.1886   17.4348 H         1 SAM         0.0867
     40 H13         7.8151   -0.7384   17.9879 H         1 SAM         0.0867
     41 H14         7.7513    1.0044   19.9510 H         1 SAM         0.0671
     42 H15         5.7994    2.1856   18.0527 H         1 SAM         0.0649
     43 H16         5.8327    3.4355   20.1261 H         1 SAM         0.2100
     44 H17         7.2655    3.6095   17.0623 H         1 SAM         0.0676
     45 H18         7.6603    4.7932   19.5603 H         1 SAM         0.2101
     46 H19         9.4625    3.0983   19.0574 H         1 SAM         0.0996
     47 H20         8.5881    3.1311   15.2974 H         1 SAM         0.1349
     48 H21        14.2398    5.4918   14.6604 H         1 SAM         0.1820
     49 H22        12.7462    4.9120   13.8757 H         1 SAM         0.1820
     50 H23        13.5687    5.0039   19.1296 H         1 SAM         0.0996
@<TRIPOS>BOND
     1    1    2 1  
     2    2    3 1  
     3    2    6 1  
     4    3    4 ar 
     5    3    5 ar 
     6    6    7 1  
     7    7    8 1  
     8    8    9 1  
     9    8   10 1  
    10   10   11 1  
    11   11   12 1  
    12   11   13 1  
    13   12   17 1  
    14   13   14 1  
    15   13   15 1  
    16   15   16 1  
    17   15   17 1  
    18   17   18 1  
    19   18   19 1  
    20   18   27 1  
    21   19   20 2  
    22   20   21 1  
    23   21   22 ar 
    24   21   27 ar 
    25   22   23 1  
    26   22   24 ar 
    27   24   25 ar 
    28   25   26 ar 
    29   26   27 ar 
    30    1   28 1  
    31    1   29 1  
    32    1   30 1  
    33    2   31 1  
    34    6   32 1  
    35    6   33 1  
    36    7   34 1  
    37    7   35 1  
    38    9   36 1  
    39    9   37 1  
    40    9   38 1  
    41   10   39 1  
    42   10   40 1  
    43   11   41 1  
    44   13   42 1  
    45   14   43 1  
    46   15   44 1  
    47   16   45 1  
    48   17   46 1  
    49   19   47 1  
    50   23   48 1  
    51   23   49 1  
    52   25   50 1  
@<TRIPOS>SUBSTRUCTURE
     1 SAM         1

