### 
### Created by X-TOOL on Mon Sep 10 21:13:07 2018
### 

@<TRIPOS>MOLECULE
3ldp_ligand
   52    56     1     0     0
SMALL
GAST_HUCK


@<TRIPOS>ATOM
      1 N1         12.5140  -10.0740    6.0020 N.ar      1 3P1        -0.2757
      2 C2         12.6290   -9.0420    6.8560 C.ar      1 3P1         0.0488
      3 N3         13.7050   -8.2470    6.8200 N.ar      1 3P1        -0.2770
      4 C4         13.4760  -10.3220    5.0870 C.ar      1 3P1         0.1208
      5 N5         15.8380   -7.8660    5.6790 N.pl3     1 3P1        -0.1701
      6 C6         16.4530   -8.4880    4.6510 C.2       1 3P1         0.2242
      7 N7         15.6780   -9.5230    4.2610 N.2       1 3P1        -0.3032
      8 C8         14.5850   -9.5250    5.0400 C.ar      1 3P1         0.0820
      9 C9         14.6970   -8.4840    5.9250 C.ar      1 3P1         0.1531
     10 C10        16.3230   -6.7200    6.3670 C.3       1 3P1         0.2010
     11 O11        16.8270   -5.7790    5.4060 O.3       1 3P1        -0.3375
     12 C12        17.7450   -4.9130    6.1840 C.3       1 3P1         0.1134
     13 C13        18.2160   -5.7800    7.3690 C.3       1 3P1         0.1145
     14 C14        17.5380   -7.1120    7.1410 C.3       1 3P1         0.1377
     15 N15        13.3450  -11.3340    4.2410 N.pl3     1 3P1        -0.3182
     16 N16        17.6380   -8.1360    4.1250 N.pl3     1 3P1        -0.2599
     17 C17        18.2690   -8.9520    3.1070 C.3       1 3P1         0.0839
     18 C18        19.2080   -9.9480    3.7600 C.ar      1 3P1         0.0495
     19 N19        19.1250  -11.2680    3.4300 N.ar      1 3P1        -0.2985
     20 C20        21.0120  -10.4400    5.2630 C.ar      1 3P1        -0.0375
     21 C21        20.1530   -9.5160    4.6690 C.ar      1 3P1        -0.0257
     22 C22        20.9080  -11.7860    4.9270 C.ar      1 3P1         0.0021
     23 C23        19.9600  -12.1890    4.0010 C.ar      1 3P1         0.0363
     24 C24        19.8530  -13.5510    3.6480 C.ar      1 3P1        -0.0435
     25 C25        20.7060  -14.4930    4.2300 C.ar      1 3P1        -0.0585
     26 C26        21.6640  -14.0850    5.1590 C.ar      1 3P1        -0.0581
     27 C27        21.7650  -12.7250    5.5080 C.ar      1 3P1        -0.0488
     28 C28        18.9660   -4.5700    5.3240 C.3       1 3P1         0.0730
     29 O29        19.4990   -5.7730    4.7270 O.3       1 3P1        -0.3924
     30 O30        17.7500   -5.2120    8.5750 O.3       1 3P1        -0.3864
     31 O31        17.1410   -7.6950    8.4150 O.3       1 3P1        -0.3837
     32 H1         11.8442   -8.8524    7.5793 H         1 3P1         0.0961
     33 H2         15.5438   -6.2819    7.0080 H         1 3P1         0.0985
     34 H3         17.2395   -3.9983    6.5272 H         1 3P1         0.0647
     35 H4         19.3111   -5.8813    7.3879 H         1 3P1         0.0648
     36 H5         18.1779   -7.8095    6.5807 H         1 3P1         0.0675
     37 H6         14.0800  -11.5211    3.5441 H         1 3P1         0.1803
     38 H7         12.5082  -11.9333    4.2805 H         1 3P1         0.1803
     39 H8         18.1035   -7.2762    4.4490 H         1 3P1         0.1925
     40 H9         18.8390   -8.3067    2.4224 H         1 3P1         0.0734
     41 H10        17.4964   -9.4941    2.5420 H         1 3P1         0.0734
     42 H11        21.7550  -10.1121    5.9810 H         1 3P1         0.0764
     43 H12        20.2269   -8.4640    4.9197 H         1 3P1         0.0661
     44 H13        19.1092  -13.8668    2.9254 H         1 3P1         0.0623
     45 H14        20.6234  -15.5396    3.9599 H         1 3P1         0.0645
     46 H15        22.3283  -14.8130    5.6105 H         1 3P1         0.0622
     47 H16        22.5089  -12.4053    6.2288 H         1 3P1         0.0649
     48 H17        19.7370   -4.1030    5.9545 H         1 3P1         0.0584
     49 H18        18.6680   -3.8696    4.5299 H         1 3P1         0.0584
     50 H19        18.8337   -6.1762    4.1817 H         1 3P1         0.2095
     51 H20        17.9498   -5.7963    9.2969 H         1 3P1         0.2100
     52 H21        17.9110   -7.8247    8.9563 H         1 3P1         0.2101
@<TRIPOS>BOND
     1    2    1 ar 
     2    1    4 ar 
     3    3    2 ar 
     4    9    3 ar 
     5    4    8 ar 
     6    4   15 1  
     7    5    6 1  
     8    5    9 1  
     9    5   10 1  
    10    6    7 2  
    11    6   16 1  
    12    7    8 1  
    13    8    9 ar 
    14   10   11 1  
    15   10   14 1  
    16   11   12 1  
    17   12   13 1  
    18   12   28 1  
    19   13   14 1  
    20   13   30 1  
    21   14   31 1  
    22   16   17 1  
    23   17   18 1  
    24   18   19 ar 
    25   18   21 ar 
    26   19   23 ar 
    27   21   20 ar 
    28   20   22 ar 
    29   22   23 ar 
    30   22   27 ar 
    31   23   24 ar 
    32   24   25 ar 
    33   25   26 ar 
    34   26   27 ar 
    35   28   29 1  
    36    2   32 1  
    37   10   33 1  
    38   12   34 1  
    39   13   35 1  
    40   14   36 1  
    41   15   37 1  
    42   15   38 1  
    43   16   39 1  
    44   17   40 1  
    45   17   41 1  
    46   20   42 1  
    47   21   43 1  
    48   24   44 1  
    49   25   45 1  
    50   26   46 1  
    51   27   47 1  
    52   28   48 1  
    53   28   49 1  
    54   29   50 1  
    55   30   51 1  
    56   31   52 1  
@<TRIPOS>SUBSTRUCTURE
     1 3P1         1

