### 
### Created by X-TOOL on Mon Sep 10 21:13:07 2018
### 

@<TRIPOS>MOLECULE
3ldq_ligand
   52    56     1     0     0
SMALL
GAST_HUCK


@<TRIPOS>ATOM
      1 N1         18.0700   -5.5890   -2.7520 N.ar      1 3P1        -0.2757
      2 C2         16.8300   -5.6940   -2.2740 C.ar      1 3P1         0.0488
      3 N3         16.4460   -5.0110   -1.2130 N.ar      1 3P1        -0.2770
      4 C4         18.9780   -4.8550   -2.1280 C.ar      1 3P1         0.1208
      5 N5         17.1800   -3.5050    0.5480 N.pl3     1 3P1        -0.1701
      6 C6         18.3790   -2.9190    0.8020 C.2       1 3P1         0.2242
      7 N7         19.2500   -3.3100   -0.1780 N.2       1 3P1        -0.3032
      8 C8         18.6030   -4.1410   -0.9900 C.ar      1 3P1         0.0820
      9 C9         17.3120   -4.2410   -0.5520 C.ar      1 3P1         0.1531
     10 C10        15.9390   -3.3990    1.3400 C.3       1 3P1         0.2010
     11 O11        15.6050   -2.0170    1.5780 O.3       1 3P1        -0.3375
     12 C12        14.8200   -1.9880    2.8400 C.3       1 3P1         0.1134
     13 C13        15.0110   -3.3820    3.5070 C.3       1 3P1         0.1145
     14 C14        16.1320   -3.9910    2.7290 C.3       1 3P1         0.1377
     15 N15        20.2550   -4.8090   -2.5980 N.pl3     1 3P1        -0.3182
     16 N16        18.6600   -2.0640    1.8260 N.pl3     1 3P1        -0.2599
     17 C17        20.0400   -1.5640    2.0260 C.3       1 3P1         0.0839
     18 C18        20.8410   -2.5330    2.9670 C.ar      1 3P1         0.0495
     19 N19        22.1870   -2.6730    2.8030 N.ar      1 3P1        -0.2985
     20 C20        20.9110   -4.0590    4.8280 C.ar      1 3P1        -0.0375
     21 C21        20.1860   -3.2260    3.9900 C.ar      1 3P1        -0.0257
     22 C22        22.2840   -4.1790    4.6500 C.ar      1 3P1         0.0021
     23 C23        22.9100   -3.4890    3.6210 C.ar      1 3P1         0.0363
     24 C24        24.3000   -3.6340    3.4210 C.ar      1 3P1        -0.0435
     25 C25        25.0470   -4.4660    4.2600 C.ar      1 3P1        -0.0585
     26 C26        24.4140   -5.1660    5.2820 C.ar      1 3P1        -0.0581
     27 C27        23.0320   -5.0190    5.4860 C.ar      1 3P1        -0.0488
     28 C28        15.4350   -0.8720    3.7230 C.3       1 3P1         0.0730
     29 O29        16.8340   -1.1170    3.8910 O.3       1 3P1        -0.3924
     30 O30        13.7910   -4.1650    3.3450 O.3       1 3P1        -0.3864
     31 O31        16.0000   -5.4340    2.6790 O.3       1 3P1        -0.3837
     32 H1         16.1241   -6.3530   -2.7665 H         1 3P1         0.0961
     33 H2         15.1218   -3.9106    0.8105 H         1 3P1         0.0985
     34 H3         13.7550   -1.7897    2.6490 H         1 3P1         0.0647
     35 H4         15.2658   -3.2904    4.5731 H         1 3P1         0.0648
     36 H5         17.1097   -3.7178    3.1526 H         1 3P1         0.0675
     37 H6         20.9620   -4.2382   -2.1131 H         1 3P1         0.1803
     38 H7         20.5141   -5.3450   -3.4385 H         1 3P1         0.1803
     39 H8         17.9089   -1.7641    2.4639 H         1 3P1         0.1925
     40 H9         20.0009   -0.5644    2.4835 H         1 3P1         0.0734
     41 H10        20.5480   -1.5020    1.0523 H         1 3P1         0.0734
     42 H11        20.4113   -4.6119    5.6152 H         1 3P1         0.0764
     43 H12        19.1167   -3.1124    4.1270 H         1 3P1         0.0661
     44 H13        24.7891   -3.0990    2.6150 H         1 3P1         0.0623
     45 H14        26.1166   -4.5654    4.1146 H         1 3P1         0.0645
     46 H15        24.9882   -5.8260    5.9221 H         1 3P1         0.0622
     47 H16        22.5435   -5.5560    6.2911 H         1 3P1         0.0649
     48 H17        14.9422   -0.8685    4.7064 H         1 3P1         0.0584
     49 H18        15.2890    0.1036    3.2363 H         1 3P1         0.0584
     50 H19        16.9585   -1.9599    4.3112 H         1 3P1         0.2095
     51 H20        13.9397   -5.0494    3.6584 H         1 3P1         0.2100
     52 H21        16.0147   -5.7830    3.5624 H         1 3P1         0.2101
@<TRIPOS>BOND
     1    2    1 ar 
     2    1    4 ar 
     3    3    2 ar 
     4    9    3 ar 
     5    4    8 ar 
     6    4   15 1  
     7    5    6 1  
     8    5    9 1  
     9    5   10 1  
    10    6    7 2  
    11    6   16 1  
    12    7    8 1  
    13    8    9 ar 
    14   10   11 1  
    15   10   14 1  
    16   11   12 1  
    17   12   13 1  
    18   12   28 1  
    19   13   14 1  
    20   13   30 1  
    21   14   31 1  
    22   16   17 1  
    23   17   18 1  
    24   18   19 ar 
    25   18   21 ar 
    26   19   23 ar 
    27   21   20 ar 
    28   20   22 ar 
    29   22   23 ar 
    30   22   27 ar 
    31   23   24 ar 
    32   24   25 ar 
    33   25   26 ar 
    34   26   27 ar 
    35   28   29 1  
    36    2   32 1  
    37   10   33 1  
    38   12   34 1  
    39   13   35 1  
    40   14   36 1  
    41   15   37 1  
    42   15   38 1  
    43   16   39 1  
    44   17   40 1  
    45   17   41 1  
    46   20   42 1  
    47   21   43 1  
    48   24   44 1  
    49   25   45 1  
    50   26   46 1  
    51   27   47 1  
    52   28   48 1  
    53   28   49 1  
    54   29   50 1  
    55   30   51 1  
    56   31   52 1  
@<TRIPOS>SUBSTRUCTURE
     1 3P1         1

