### 
### Created by X-TOOL on Mon Sep 10 21:13:03 2018
### 

@<TRIPOS>MOLECULE
3le6_ligand
   35    38     1     0     0
SMALL
GAST_HUCK


@<TRIPOS>ATOM
      1 N3          2.5380   29.0900    6.2220 N.ar      1 2BZ        -0.0714
      2 C4          2.9130   27.8110    6.6900 C.ar      1 2BZ         0.2090
      3 C5          2.1670   26.9850    7.6090 C.ar      1 2BZ         0.1436
      4 C6          0.8050   27.3850    8.2440 C.ar      1 2BZ         0.1683
      5 C7          0.0770   26.3800    9.1380 C.ar      1 2BZ         0.0778
      6 C10         4.7070   26.0440    6.5340 C.ar      1 2BZ         0.0398
      7 C13        -0.2710   30.7930    7.5360 C.ar      1 2BZ         0.1698
      8 C20        -0.5180   25.2110    8.5370 C.ar      1 2BZ        -0.0236
      9 C21        -1.1910   24.2650    9.3580 C.ar      1 2BZ        -0.0405
     10 C22        -1.2800   24.4690   10.7620 C.ar      1 2BZ        -0.0426
     11 C24        -0.0210   26.5810   10.5560 C.ar      1 2BZ         0.0805
     12 C1          0.4800   29.6430    7.4580 C.ar      1 2BZ         0.2532
     13 C2          1.5470   29.9330    6.5870 C.ar      1 2BZ         0.3946
     14 N8          0.1130   28.4980    8.1720 N.ar      1 2BZ        -0.1540
     15 C9          4.1770   27.3150    6.1740 C.ar      1 2BZ         0.0473
     16 C11         3.9750   25.2270    7.4340 C.ar      1 2BZ         0.1515
     17 C12         2.7360   25.6930    7.9570 C.ar      1 2BZ         0.0582
     18 C14        -1.5030   31.1300    8.2810 C.3       1 2BZ         0.0144
     19 N15         0.3730   31.6850    6.7280 N.ar      1 2BZ        -0.0602
     20 N16         1.4750   31.1930    6.1400 N.ar      1 2BZ         0.0336
     21 N17         4.4790   23.8830    7.8310 N.2       1 2BZ        -0.1783
     22 O18         3.7970   23.2160    8.6280 O.2       1 2BZ        -0.4719
     23 O19         5.5460   23.4790    7.3310 O.2       1 2BZ        -0.4719
     24 C23        -0.7000   25.6210   11.3610 C.ar      1 2BZ        -0.0262
     25 CL25        0.6580   27.9630   11.3420 Cl        1 2BZ        -0.0499
     26 H1          5.6534   25.7061    6.1277 H         1 2BZ         0.0966
     27 H2         -0.4524   25.0549    7.4663 H         1 2BZ         0.0784
     28 H3         -1.6382   23.3844    8.9113 H         1 2BZ         0.0674
     29 H4         -1.7935   23.7415   11.3802 H         1 2BZ         0.0775
     30 H5          4.7391   27.9377    5.4874 H         1 2BZ         0.1102
     31 H6          2.1923   25.0563    8.6455 H         1 2BZ         0.1046
     32 H7         -1.7866   32.1714    8.0687 H         1 2BZ         0.0488
     33 H8         -1.3232   31.0116    9.3597 H         1 2BZ         0.0488
     34 H9         -2.3158   30.4578    7.9688 H         1 2BZ         0.0488
     35 H10        -0.7746   25.7692   12.4322 H         1 2BZ         0.0678
@<TRIPOS>BOND
     1    1    2 ar 
     2   13    1 ar 
     3    2    3 ar 
     4    2   15 ar 
     5    3    4 ar 
     6    3   17 ar 
     7    4    5 1  
     8    4   14 ar 
     9    5    8 ar 
    10    5   11 ar 
    11   15    6 ar 
    12    6   16 ar 
    13   12    7 ar 
    14    7   18 1  
    15    7   19 ar 
    16    8    9 ar 
    17    9   10 ar 
    18   24   10 ar 
    19   11   24 ar 
    20   11   25 1  
    21   12   13 ar 
    22   12   14 ar 
    23   13   20 ar 
    24   16   17 ar 
    25   16   21 1  
    26   19   20 ar 
    27   21   22 2  
    28   21   23 2  
    29    6   26 1  
    30    8   27 1  
    31    9   28 1  
    32   10   29 1  
    33   15   30 1  
    34   17   31 1  
    35   18   32 1  
    36   18   33 1  
    37   18   34 1  
    38   24   35 1  
@<TRIPOS>SUBSTRUCTURE
     1 2BZ         1

