### 
### Created by X-TOOL on Mon Sep 10 21:13:02 2018
### 

@<TRIPOS>MOLECULE
3le8_ligand
   45    48     1     0     0
SMALL
GAST_HUCK


@<TRIPOS>ATOM
      1 C          18.6800   11.1590   -0.6510 C.2       1 2B5         0.0635
      2 N          16.2250   10.4230   -1.2310 N.pl3     1 2B5        -0.2498
      3 O          18.3090   12.2840   -0.5210 O.co2     1 2B5        -0.5663
      4 CA         17.7310   10.1900   -1.2570 C.3       1 2B5         0.1031
      5 CAA        11.0640    9.5750   -4.8030 C.3       1 2B5         0.0567
      6 OAC        15.3190   12.5630    3.5510 O.2       1 2B5        -0.3825
      7 CAE        13.1810    9.2160    8.6200 C.ar      1 2B5        -0.0739
      8 CAF        13.0790    7.9600    7.9790 C.ar      1 2B5        -0.0709
      9 CAG        14.7260    9.8180   -4.5820 C.ar      1 2B5        -0.0489
     10 CAH        13.6080   10.3240    7.8670 C.ar      1 2B5        -0.0670
     11 CAI        13.4500    7.8470    6.6400 C.ar      1 2B5        -0.0282
     12 CAJ        15.7630    9.9440   -3.6410 C.ar      1 2B5        -0.0524
     13 CAK        13.1230   10.3180   -2.8690 C.ar      1 2B5        -0.0541
     14 CAL        14.1330   10.7590   -0.6210 C.2       1 2B5        -0.0684
     15 CAM        14.3850   11.1040    5.7230 C.2       1 2B5        -0.0221
     16 CAN        15.9930   11.0120    1.1780 C.3       1 2B5         0.0880
     17 NAP        15.3370   10.5090    2.3940 N.am      1 2B5        -0.2689
     18 OAQ        12.4150    9.8210   -5.1960 O.3       1 2B5        -0.3308
     19 OAR        14.3100    9.1300    4.5280 O.3       1 2B5        -0.2416
     20 CAT        15.0780   11.3280    3.4430 C.2       1 2B5         0.2401
     21 CAU        13.3900    9.9870   -4.2210 C.ar      1 2B5         0.0691
     22 CAV        15.4330   10.7100   -0.1940 C.2       1 2B5         0.0654
     23 CAW        14.6050   10.6150    4.5030 C.2       1 2B5         0.1914
     24 CAX        13.9360   10.1640    6.5850 C.ar      1 2B5        -0.0008
     25 CAY        14.1510   10.4450   -1.9580 C.ar      1 2B5        -0.0477
     26 CAZ        13.8450    8.9540    5.9690 C.ar      1 2B5         0.1284
     27 CBA        15.4440   10.2470   -2.3340 C.ar      1 2B5         0.0540
     28 OXT        19.8310   10.7280   -0.4130 O.co2     1 2B5        -0.5663
     29 H          17.8641    9.2884   -0.6590 H         1 2B5         0.0766
     30 H          17.9786   10.2139   -2.3182 H         1 2B5         0.0766
     31 H          11.0188    8.6569   -4.2172 H         1 2B5         0.0573
     32 H          10.7043   10.4096   -4.2012 H         1 2B5         0.0573
     33 H          10.4415    9.4715   -5.6918 H         1 2B5         0.0573
     34 H          12.9337    9.3232    9.6762 H         1 2B5         0.0535
     35 H          12.7145    7.0901    8.5254 H         1 2B5         0.0563
     36 H          14.9722    9.5828   -5.6175 H         1 2B5         0.0453
     37 H          13.6705   11.3091    8.3294 H         1 2B5         0.0568
     38 H          13.4223    6.8790    6.1396 H         1 2B5         0.0568
     39 H          16.8020    9.8045   -3.9396 H         1 2B5         0.0517
     40 H          12.0939   10.4739   -2.5455 H         1 2B5         0.0403
     41 H          13.2569   10.9997   -0.0188 H         1 2B5         0.0156
     42 H          14.5489   12.1465    5.9958 H         1 2B5         0.0460
     43 H          16.9651   10.5190    1.1800 H         1 2B5         0.0729
     44 H          15.9108   12.0955    1.2634 H         1 2B5         0.0729
     45 H          15.0718    9.5256    2.4494 H         1 2B5         0.1874
@<TRIPOS>BOND
     1    1    3 ar 
     2    4    1 1  
     3    1   28 ar 
     4    2    4 1  
     5   22    2 1  
     6    2   27 1  
     7   18    5 1  
     8   20    6 2  
     9    8    7 ar 
    10   10    7 ar 
    11   11    8 ar 
    12   12    9 ar 
    13   21    9 ar 
    14   24   10 ar 
    15   26   11 ar 
    16   27   12 ar 
    17   13   21 ar 
    18   25   13 ar 
    19   22   14 2  
    20   14   25 1  
    21   23   15 2  
    22   15   24 1  
    23   17   16 1  
    24   16   22 1  
    25   20   17 am 
    26   21   18 1  
    27   23   19 1  
    28   19   26 1  
    29   20   23 1  
    30   24   26 ar 
    31   25   27 ar 
    32    4   29 1  
    33    4   30 1  
    34    5   31 1  
    35    5   32 1  
    36    5   33 1  
    37    7   34 1  
    38    8   35 1  
    39    9   36 1  
    40   10   37 1  
    41   11   38 1  
    42   12   39 1  
    43   13   40 1  
    44   14   41 1  
    45   15   42 1  
    46   16   43 1  
    47   16   44 1  
    48   17   45 1  
@<TRIPOS>SUBSTRUCTURE
     1 2B5         1

