### 
### Created by X-TOOL on Mon Sep 10 21:13:03 2018
### 

@<TRIPOS>MOLECULE
3le9_ligand
   42    45     1     0     0
SMALL
GAST_HUCK


@<TRIPOS>ATOM
      1 N1          6.1580    8.3440   24.1590 N.am      1 727        -0.1837
      2 N2          7.5380    8.2640   24.3530 N.pl3     1 727        -0.2222
      3 C3          5.4240    8.3700   25.2980 C.2       1 727         0.2165
      4 N4          7.5980   11.1540   23.5600 N.am      1 727        -0.1911
      5 C5          7.3160   10.2890   22.5310 C.2       1 727         0.2197
      6 C6          5.7770   10.0540   22.5240 C.3       1 727         0.1530
      7 N7          5.3600   10.9800   23.6120 N.am      1 727        -0.2838
      8 C8          6.4090   11.6210   24.1810 C.2       1 727         0.2792
      9 O9          6.3080   12.5110   25.0160 O.2       1 727        -0.3919
     10 O10         8.1310    9.6350   21.7940 O.2       1 727        -0.3527
     11 C11         5.0890   10.5010   21.2210 C.ar      1 727        -0.0140
     12 C12         5.5930    8.5260   22.8370 C.3       1 727         0.0697
     13 C13         6.4110    8.3090   26.3580 C.ar      1 727         0.0627
     14 C14         7.6490    8.2390   25.7250 C.ar      1 727         0.0722
     15 C15         8.8580    8.1370   26.4230 C.ar      1 727        -0.0438
     16 C16         8.7560    8.1180   27.7710 C.ar      1 727        -0.0394
     17 C17         7.4740    8.2010   28.4100 C.ar      1 727         0.0828
     18 C18         6.2870    8.2950   27.7060 C.ar      1 727        -0.0244
     19 O19         4.2020    8.4240   25.3870 O.2       1 727        -0.3901
     20 O20         7.2970    8.1940   29.7260 O.3       1 727        -0.3287
     21 C21         8.5250    8.0720   30.5330 C.3       1 727         0.0566
     22 C22         5.7070   11.4860   20.3480 C.ar      1 727        -0.0372
     23 C23         5.0480   11.8410   19.1320 C.ar      1 727        -0.0322
     24 C24         3.8040   11.2510   18.7890 C.ar      1 727        -0.0337
     25 C25         3.1940   10.3030   19.6290 C.ar      1 727        -0.0322
     26 C26         3.8250    9.9350   20.8420 C.ar      1 727        -0.0372
     27 H1          8.2864    8.2317   23.6461 H         1 727         0.2058
     28 H2          8.5214   11.4206   23.8363 H         1 727         0.2250
     29 H3          4.4095   11.1143   23.8923 H         1 727         0.1731
     30 H4          4.5267    8.2558   22.8315 H         1 727         0.0466
     31 H5          6.1305    7.9126   22.0989 H         1 727         0.0466
     32 H6          9.8141    8.0771   25.9156 H         1 727         0.0505
     33 H7          9.6523    8.0392   28.3755 H         1 727         0.0550
     34 H8          5.3237    8.3534   28.1997 H         1 727         0.0557
     35 H9          8.2635    8.0767   31.6015 H         1 727         0.0572
     36 H10         9.1926    8.9187   30.3152 H         1 727         0.0572
     37 H11         9.0350    7.1296   30.2845 H         1 727         0.0572
     38 H12         6.6526   11.9434   20.6159 H         1 727         0.0849
     39 H13         5.5013   12.5664   18.4662 H         1 727         0.0699
     40 H14         3.3159   11.5359   17.8640 H         1 727         0.0858
     41 H15         2.2465    9.8565   19.3498 H         1 727         0.0699
     42 H16         3.3461    9.2144   21.4950 H         1 727         0.0849
@<TRIPOS>BOND
     1    1    2 1  
     2    1    3 am 
     3   12    1 1  
     4    2   14 1  
     5    3   13 1  
     6    3   19 2  
     7    5    4 am 
     8    4    8 am 
     9    6    5 1  
    10    5   10 2  
    11    6    7 1  
    12    6   11 1  
    13    6   12 1  
    14    7    8 am 
    15    8    9 2  
    16   11   22 ar 
    17   11   26 ar 
    18   13   14 ar 
    19   13   18 ar 
    20   14   15 ar 
    21   15   16 ar 
    22   16   17 ar 
    23   17   18 ar 
    24   17   20 1  
    25   20   21 1  
    26   22   23 ar 
    27   23   24 ar 
    28   24   25 ar 
    29   25   26 ar 
    30    2   27 1  
    31    4   28 1  
    32    7   29 1  
    33   12   30 1  
    34   12   31 1  
    35   15   32 1  
    36   16   33 1  
    37   18   34 1  
    38   21   35 1  
    39   21   36 1  
    40   21   37 1  
    41   22   38 1  
    42   23   39 1  
    43   24   40 1  
    44   25   41 1  
    45   26   42 1  
@<TRIPOS>SUBSTRUCTURE
     1 727         1

