### 
### Created by X-TOOL on Mon Sep 10 21:13:02 2018
### 

@<TRIPOS>MOLECULE
3lea_ligand
   52    56     1     0     0
SMALL
GAST_HUCK


@<TRIPOS>ATOM
      1 N1         19.3530   13.3640   -4.8100 N.am      1 Z93        -0.1923
      2 C2         18.3660   14.0730   -5.4560 C.2       1 Z93         0.2142
      3 C3         18.3680   13.7170   -6.9790 C.3       1 Z93         0.1452
      4 N4         19.4150   12.6810   -6.9500 N.am      1 Z93        -0.2882
      5 C5         19.9890   12.4930   -5.6510 C.2       1 Z93         0.2782
      6 O6         20.8900   11.7110   -5.2730 O.2       1 Z93        -0.3920
      7 O7         17.6430   14.9110   -4.9390 O.2       1 Z93        -0.3556
      8 C8         17.0620   13.0570   -7.3610 C.ar      1 Z93        -0.0192
      9 C9         16.5700   13.1330   -8.6960 C.ar      1 Z93        -0.0382
     10 C10        15.3450   12.5360   -9.0390 C.ar      1 Z93        -0.0242
     11 C11        14.5650   11.8500   -8.0680 C.ar      1 Z93         0.0176
     12 C12        15.0280   11.7830   -6.7210 C.ar      1 Z93        -0.0242
     13 C13        16.2640   12.3700   -6.3670 C.ar      1 Z93        -0.0382
     14 C14        13.2800   11.2140   -8.4360 C.ar      1 Z93         0.0298
     15 C15        12.2590   10.9030   -7.4760 C.ar      1 Z93        -0.0265
     16 C16        11.0440   10.3110   -7.8610 C.ar      1 Z93        -0.0280
     17 C17        10.8440   10.0410   -9.2110 C.ar      1 Z93         0.0162
     18 N18        11.7570   10.3220  -10.1890 N.ar      1 Z93        -0.2894
     19 C19        12.9530   10.9030   -9.7840 C.ar      1 Z93         0.0277
     20 N20        20.0590   15.4990   -7.2890 N.am      1 Z93        -0.2700
     21 C21        20.2720   16.2860   -6.0550 C.3       1 Z93         0.0645
     22 C22        21.2470   15.0200   -7.8700 C.2       1 Z93         0.2012
     23 C23        18.7400   15.0720   -7.7690 C.3       1 Z93         0.0443
     24 C24        22.3600   15.5320   -7.0340 C.ar      1 Z93         0.0451
     25 C25        21.7640   16.2820   -5.9530 C.ar      1 Z93        -0.0109
     26 C26        22.5370   16.9130   -4.9850 C.ar      1 Z93        -0.0606
     27 C27        23.9440   16.7560   -5.1120 C.ar      1 Z93        -0.0349
     28 C28        24.5580   16.0130   -6.1850 C.ar      1 Z93         0.0890
     29 C29        23.7730   15.3750   -7.1800 C.ar      1 Z93        -0.0198
     30 O30        21.3490   14.3520   -8.8810 O.2       1 Z93        -0.3882
     31 O31        25.9480   15.9220   -6.3580 O.3       1 Z93        -0.3247
     32 C32        26.8080   16.5650   -5.3760 C.3       1 Z93         0.0579
     33 H1         19.5781   13.4727   -3.8417 H         1 Z93         0.2249
     34 H2         19.6968   12.1610   -7.7564 H         1 Z93         0.1717
     35 H3         17.1447   13.6551   -9.4525 H         1 Z93         0.0839
     36 H4         14.9887   12.5995  -10.0608 H         1 Z93         0.0709
     37 H5         14.4314   11.2813   -5.9677 H         1 Z93         0.0709
     38 H6         16.6171   12.3055   -5.3441 H         1 Z93         0.0839
     39 H7         12.4292   11.1301   -6.4298 H         1 Z93         0.0788
     40 H8         10.2837   10.0714   -7.1264 H         1 Z93         0.0723
     41 H9          9.9080    9.5801   -9.5051 H         1 Z93         0.0863
     42 H10        13.6862   11.1347  -10.5480 H         1 Z93         0.0882
     43 H11        19.8084   15.8005   -5.1836 H         1 Z93         0.0678
     44 H12        19.8790   17.3083   -6.1574 H         1 Z93         0.0678
     45 H13        17.9913   15.8499   -7.5585 H         1 Z93         0.0433
     46 H14        18.7756   14.8806   -8.8516 H         1 Z93         0.0433
     47 H15        22.0934   17.4900   -4.1817 H         1 Z93         0.0543
     48 H16        24.5849   17.2157   -4.3684 H         1 Z93         0.0563
     49 H17        24.2135   14.8090   -7.9928 H         1 Z93         0.0573
     50 H18        27.8612   16.4044   -5.6499 H         1 Z93         0.0574
     51 H19        26.6174   16.1326   -4.3827 H         1 Z93         0.0574
     52 H20        26.5956   17.6440   -5.3532 H         1 Z93         0.0574
@<TRIPOS>BOND
     1    2    1 am 
     2    5    1 am 
     3    3    2 1  
     4    2    7 2  
     5    3    4 1  
     6    3    8 1  
     7   23    3 1  
     8    4    5 am 
     9    5    6 2  
    10    8    9 ar 
    11    8   13 ar 
    12    9   10 ar 
    13   10   11 ar 
    14   12   11 ar 
    15   11   14 1  
    16   13   12 ar 
    17   14   15 ar 
    18   14   19 ar 
    19   15   16 ar 
    20   16   17 ar 
    21   18   17 ar 
    22   19   18 ar 
    23   20   21 1  
    24   20   22 am 
    25   20   23 1  
    26   21   25 1  
    27   22   24 1  
    28   22   30 2  
    29   24   25 ar 
    30   24   29 ar 
    31   25   26 ar 
    32   26   27 ar 
    33   27   28 ar 
    34   28   29 ar 
    35   28   31 1  
    36   31   32 1  
    37    1   33 1  
    38    4   34 1  
    39    9   35 1  
    40   10   36 1  
    41   12   37 1  
    42   13   38 1  
    43   15   39 1  
    44   16   40 1  
    45   17   41 1  
    46   19   42 1  
    47   21   43 1  
    48   21   44 1  
    49   23   45 1  
    50   23   46 1  
    51   26   47 1  
    52   27   48 1  
    53   29   49 1  
    54   32   50 1  
    55   32   51 1  
    56   32   52 1  
@<TRIPOS>SUBSTRUCTURE
     1 Z93         1

