### 
### Created by X-TOOL on Mon Sep 10 21:13:03 2018
### 

@<TRIPOS>MOLECULE
3lfn_ligand
   49    52     1     0     0
SMALL
GAST_HUCK


@<TRIPOS>ATOM
      1 C1         38.4760   -6.9670   27.6650 C.ar      1 A27        -0.0632
      2 C2         38.7670   -7.8590   26.6150 C.ar      1 A27        -0.0570
      3 C3         39.0740   -7.3820   25.3280 C.ar      1 A27        -0.0251
      4 C4         39.1280   -5.9940   25.1150 C.ar      1 A27        -0.0570
      5 C5         38.8470   -5.1040   26.1550 C.ar      1 A27        -0.0632
      6 C6         38.5160   -5.5890   27.4290 C.ar      1 A27        -0.0635
      7 C12        39.3850   -8.2550   24.2700 C.ar      1 A27        -0.0222
      8 C13        38.6430   -8.3330   23.0630 C.ar      1 A27        -0.0254
      9 C14        39.0840   -9.1830   22.0430 C.ar      1 A27        -0.0314
     10 C15        40.2340   -9.9550   22.1960 C.ar      1 A27         0.0806
     11 C16        40.9740   -9.8770   23.3690 C.ar      1 A27         0.0395
     12 C17        40.5430   -9.0360   24.4000 C.ar      1 A27        -0.0533
     13 C20        37.4790   -7.6120   22.8050 C.ar      1 A27        -0.0301
     14 C21        37.3270   -7.0710   21.5260 C.ar      1 A27        -0.0618
     15 C22        36.2100   -6.3090   21.2130 C.ar      1 A27        -0.0314
     16 C23        35.2150   -6.1260   22.1670 C.ar      1 A27         0.0895
     17 C24        35.3470   -6.6840   23.4390 C.ar      1 A27        -0.0314
     18 C25        36.4610   -7.4660   23.7540 C.ar      1 A27        -0.0618
     19 O30        34.1130   -5.4060   21.8380 O.3       1 A27        -0.3318
     20 N31        40.8560  -10.8010   21.3770 N.pl3     1 A27        -0.2356
     21 N32        41.8720  -11.2570   21.9120 N.2       1 A27        -0.2152
     22 C33        42.0350  -10.7480   23.1300 C.2       1 A27         0.1384
     23 N34        43.1070  -11.0760   23.8700 N.am      1 A27        -0.2279
     24 C35        43.5290  -10.6280   25.0590 C.2       1 A27         0.2023
     25 C36        44.8490  -11.2560   25.5110 C.3       1 A27         0.0425
     26 C37        44.6370  -12.7000   25.9650 C.3       1 A27        -0.0385
     27 C40        45.8120  -13.1940   26.8070 C.3       1 A27        -0.0632
     28 O46        42.9620   -9.8040   25.7770 O.2       1 A27        -0.3858
     29 H1         38.2229   -7.3455   28.6488 H         1 A27         0.0613
     30 H2         38.7542   -8.9269   26.8010 H         1 A27         0.0607
     31 H3         39.3899   -5.6105   24.1355 H         1 A27         0.0607
     32 H4         38.8849   -4.0354   25.9767 H         1 A27         0.0613
     33 H5         38.2911   -4.8953   28.2311 H         1 A27         0.0603
     34 H6         38.5217   -9.2420   21.1181 H         1 A27         0.0540
     35 H7         41.1159   -8.9866   25.3189 H         1 A27         0.0613
     36 H8         38.0865   -7.2475   20.7730 H         1 A27         0.0600
     37 H9         36.1139   -5.8595   20.2313 H         1 A27         0.0548
     38 H10        34.5815   -6.5099   24.1865 H         1 A27         0.0548
     39 H11        36.5357   -7.9527   24.7197 H         1 A27         0.0600
     40 H12        34.1898   -5.1039   20.9406 H         1 A27         0.2491
     41 H13        40.5345  -11.0419   20.4286 H         1 A27         0.2325
     42 H14        43.6918  -11.7769   23.4617 H         1 A27         0.2240
     43 H15        45.2583  -10.6714   26.3481 H         1 A27         0.0507
     44 H16        45.5604  -11.2427   24.6721 H         1 A27         0.0507
     45 H17        44.5357  -13.3434   25.0786 H         1 A27         0.0287
     46 H18        43.7171  -12.7557   26.5656 H         1 A27         0.0287
     47 H19        45.6293  -14.2334   27.1173 H         1 A27         0.0231
     48 H20        45.9171  -12.5584   27.6986 H         1 A27         0.0231
     49 H21        46.7356  -13.1461   26.2115 H         1 A27         0.0231
@<TRIPOS>BOND
     1    1    2 ar 
     2    1    6 ar 
     3    2    3 ar 
     4    3    4 ar 
     5    3    7 1  
     6    4    5 ar 
     7    5    6 ar 
     8    7    8 ar 
     9    7   12 ar 
    10    8    9 ar 
    11    8   13 1  
    12    9   10 ar 
    13   10   11 ar 
    14   10   20 1  
    15   11   12 ar 
    16   11   22 1  
    17   13   14 ar 
    18   13   18 ar 
    19   14   15 ar 
    20   15   16 ar 
    21   16   17 ar 
    22   16   19 1  
    23   17   18 ar 
    24   20   21 1  
    25   21   22 2  
    26   22   23 1  
    27   23   24 am 
    28   24   25 1  
    29   24   28 2  
    30   25   26 1  
    31   26   27 1  
    32    1   29 1  
    33    2   30 1  
    34    4   31 1  
    35    5   32 1  
    36    6   33 1  
    37    9   34 1  
    38   12   35 1  
    39   14   36 1  
    40   15   37 1  
    41   17   38 1  
    42   18   39 1  
    43   19   40 1  
    44   20   41 1  
    45   23   42 1  
    46   25   43 1  
    47   25   44 1  
    48   26   45 1  
    49   26   46 1  
    50   27   47 1  
    51   27   48 1  
    52   27   49 1  
@<TRIPOS>SUBSTRUCTURE
     1 A27         1

