### 
### Created by X-TOOL on Mon Sep 10 21:13:03 2018
### 

@<TRIPOS>MOLECULE
3lfs_ligand
   38    40     1     0     0
SMALL
GAST_HUCK


@<TRIPOS>ATOM
      1 C1         39.4270   -7.6870   25.5620 C.ar      1 A07        -0.0175
      2 CL1        37.9800   -7.6880   22.8980 Cl        1 A07        -0.0695
      3 C2         40.2440   -6.5870   25.8510 C.ar      1 A07        -0.0540
      4 C3         39.8200   -5.6070   26.7540 C.ar      1 A07        -0.0612
      5 C4         38.5750   -5.7250   27.3790 C.ar      1 A07        -0.0617
      6 C5         37.7640   -6.8320   27.1060 C.ar      1 A07        -0.0612
      7 C6         38.1830   -7.8050   26.1900 C.ar      1 A07        -0.0540
      8 C12        39.3150   -8.6950   23.3510 C.ar      1 A07         0.0476
      9 C13        39.8160   -9.6030   22.4150 C.ar      1 A07        -0.0524
     10 C14        40.8690  -10.4530   22.7620 C.ar      1 A07        -0.0562
     11 C15        41.4350  -10.3960   24.0320 C.ar      1 A07         0.0780
     12 C16        40.9560   -9.4580   24.9590 C.ar      1 A07        -0.0313
     13 C17        39.8680   -8.6360   24.6400 C.ar      1 A07        -0.0026
     14 N20        41.5610  -11.3490   22.0640 N.2       1 A07        -0.4518
     15 N21        42.4290  -11.8890   22.7660 N.pl3     1 A07        -0.2596
     16 C22        42.4770  -11.3210   23.9680 C.2       1 A07         0.2671
     17 N23        43.3290  -11.7590   24.9180 N.am      1 A07        -0.1553
     18 C24        43.4730  -11.3490   26.1890 C.2       1 A07         0.2355
     19 C25        44.5440  -12.1110   26.9810 C.3       1 A07         0.0495
     20 C26        45.9230  -11.4400   26.9320 C.3       1 A07        -0.0378
     21 C29        45.8560   -9.9340   27.2150 C.3       1 A07        -0.0631
     22 O35        42.8300  -10.4590   26.7450 O.2       1 A07        -0.3696
     23 H1         41.2118   -6.4945   25.3714 H         1 A07         0.0624
     24 H2         40.4564   -4.7563   26.9693 H         1 A07         0.0618
     25 H3         38.2394   -4.9621   28.0721 H         1 A07         0.0618
     26 H4         36.8076   -6.9369   27.6054 H         1 A07         0.0618
     27 H5         37.5423   -8.6506   25.9675 H         1 A07         0.0624
     28 H6         39.3880   -9.6480   21.4201 H         1 A07         0.0617
     29 H7         41.4315   -9.3689   25.9291 H         1 A07         0.0640
     30 H8         43.0291  -12.6686   22.4610 H         1 A07         0.2460
     31 H9         43.9425  -12.4961   24.6347 H         1 A07         0.2695
     32 H10        44.6332  -13.1245   26.5628 H         1 A07         0.0514
     33 H11        44.2232  -12.1746   28.0313 H         1 A07         0.0514
     34 H12        46.3533  -11.5916   25.9311 H         1 A07         0.0287
     35 H13        46.5713  -11.9115   27.6852 H         1 A07         0.0287
     36 H14        46.8684   -9.5066   27.1671 H         1 A07         0.0231
     37 H15        45.4348   -9.7676   28.2174 H         1 A07         0.0231
     38 H16        45.2168   -9.4477   26.4634 H         1 A07         0.0231
@<TRIPOS>BOND
     1    1    3 ar 
     2    1    7 ar 
     3   13    1 1  
     4    8    2 1  
     5    3    4 ar 
     6    4    5 ar 
     7    6    5 ar 
     8    7    6 ar 
     9    8    9 ar 
    10    8   13 ar 
    11    9   10 ar 
    12   10   11 ar 
    13   10   14 2  
    14   11   12 ar 
    15   11   16 2  
    16   12   13 ar 
    17   14   15 1  
    18   15   16 1  
    19   16   17 1  
    20   17   18 am 
    21   18   19 1  
    22   18   22 2  
    23   19   20 1  
    24   20   21 1  
    25    3   23 1  
    26    4   24 1  
    27    5   25 1  
    28    6   26 1  
    29    7   27 1  
    30    9   28 1  
    31   12   29 1  
    32   15   30 1  
    33   17   31 1  
    34   19   32 1  
    35   19   33 1  
    36   20   34 1  
    37   20   35 1  
    38   21   36 1  
    39   21   37 1  
    40   21   38 1  
@<TRIPOS>SUBSTRUCTURE
     1 A07         1

