### 
### Created by X-TOOL on Mon Sep 10 21:13:04 2018
### 

@<TRIPOS>MOLECULE
3lgl_ligand
   31    30     1     0     0
SMALL
GAST_HUCK


@<TRIPOS>ATOM
      1 N          -8.6250    2.5060    6.8590 N.4       1 MLY         0.2327
      2 CA         -7.8540    3.1080    7.9390 C.3       1 MLY         0.0283
      3 CB         -6.3520    2.7860    7.9950 C.3       1 MLY         0.0026
      4 CG         -5.7350    1.7060    8.8830 C.3       1 MLY        -0.0416
      5 CD         -4.9360    2.1950   10.0820 C.3       1 MLY        -0.0122
      6 CE         -4.1410    1.1260   10.8190 C.3       1 MLY        -0.0324
      7 NZ         -4.6440    0.5280   12.0280 N.4       1 MLY         0.2309
      8 CH1        -4.2310   -0.8530   12.0860 C.3       1 MLY        -0.0433
      9 CH2        -6.0770    0.5200   11.9080 C.3       1 MLY        -0.0433
     10 C          -7.9960    4.6170    7.8880 C.2       1 MLY         0.0844
     11 O          -7.9843    5.2511    8.9768 O.co2     1 MLY        -0.5643
     12 O          -8.1221    5.2194    6.7885 O.co2     1 MLY        -0.5643
     13 H1         -8.5285    1.5033    6.8957 H         1 MLY         0.2010
     14 H2         -8.2832    2.8442    5.9731 H         1 MLY         0.2010
     15 H3         -9.5967    2.7540    6.9611 H         1 MLY         0.2010
     16 H4         -8.2957    2.7469    8.8795 H         1 MLY         0.1024
     17 H5         -5.8578    3.7254    8.2837 H         1 MLY         0.0339
     18 H6         -6.0665    2.5226    6.9659 H         1 MLY         0.0339
     19 H7         -5.0631    1.1006    8.2569 H         1 MLY         0.0270
     20 H8         -6.5529    1.0745    9.2602 H         1 MLY         0.0270
     21 H9         -5.6394    2.6473   10.7966 H         1 MLY         0.0317
     22 H10        -4.2290    2.9602    9.7291 H         1 MLY         0.0317
     23 H11        -3.1711    1.5780   11.0741 H         1 MLY         0.0814
     24 H12        -3.9859    0.3039   10.1048 H         1 MLY         0.0814
     25 H13        -4.3377    1.0360   12.8430 H         1 MLY         0.2028
     26 H14        -4.6144   -1.3119   13.0093 H         1 MLY         0.0777
     27 H15        -3.1324   -0.9078   12.0782 H         1 MLY         0.0777
     28 H16        -4.6313   -1.3924   11.2149 H         1 MLY         0.0777
     29 H17        -6.4466    1.5549   11.8595 H         1 MLY         0.0777
     30 H18        -6.5153    0.0147   12.7812 H         1 MLY         0.0777
     31 H19        -6.3652   -0.0156   10.9915 H         1 MLY         0.0777
@<TRIPOS>BOND
     1    1    2 1  
     2    2    3 1  
     3    2   10 1  
     4    3    4 1  
     5    4    5 1  
     6    5    6 1  
     7    6    7 1  
     8    7    8 1  
     9    7    9 1  
    10   10   11 ar 
    11   10   12 ar 
    12    1   13 1  
    13    1   14 1  
    14    1   15 1  
    15    2   16 1  
    16    3   17 1  
    17    3   18 1  
    18    4   19 1  
    19    4   20 1  
    20    5   21 1  
    21    5   22 1  
    22    6   23 1  
    23    6   24 1  
    24    7   25 1  
    25    8   26 1  
    26    8   27 1  
    27    8   28 1  
    28    9   29 1  
    29    9   30 1  
    30    9   31 1  
@<TRIPOS>SUBSTRUCTURE
     1 MLY         1

