### 
### Created by X-TOOL on Mon Sep 10 21:13:03 2018
### 

@<TRIPOS>MOLECULE
3lgp_ligand
   67    71     1     0     0
SMALL
GAST_HUCK


@<TRIPOS>ATOM
      1 N1          5.6520   11.7720   21.4920 N.am      1 50X        -0.2566
      2 C2          6.0790   12.1030   20.1490 C.3       1 50X         0.0786
      3 C3          4.8590   11.8620   19.2330 C.3       1 50X        -0.0179
      4 C4          3.8930   10.9710   20.0510 C.3       1 50X        -0.0284
      5 C5          4.3410   11.0020   21.5500 C.3       1 50X         0.0367
      6 C6          8.8720    5.3210   31.6940 C.ar      1 50X         0.1141
      7 C7          9.3350    3.9740   31.7980 C.ar      1 50X         0.0908
      8 C8          8.4160    2.9260   32.1580 C.ar      1 50X        -0.0365
      9 C9          7.0380    3.2680   32.4160 C.ar      1 50X        -0.0600
     10 C10         6.5840    4.6300   32.3500 C.ar      1 50X        -0.0596
     11 C11         7.5040    5.6450   31.9610 C.ar      1 50X        -0.0213
     12 N12        10.0370    6.0480   31.3190 N.pl3     1 50X        -0.2131
     13 C13        11.0750    5.1150   31.2070 C.2       1 50X         0.2172
     14 N14        10.6650    3.8930   31.5000 N.2       1 50X        -0.2393
     15 C15         7.6900    8.0880   28.0590 C.2       1 50X         0.0244
     16 S16         7.7860    8.2870   29.8030 S.3       1 50X        -0.0357
     17 C17         9.4610    7.8480   29.7830 C.2       1 50X         0.0318
     18 C18         9.8430    7.4240   28.4830 C.2       1 50X        -0.0925
     19 C19         8.8760    7.7010   27.4600 C.2       1 50X        -0.0932
     20 C20         6.4500   12.2280   22.5690 C.2       1 50X         0.2145
     21 C21         5.9780   11.6570   23.9710 C.3       1 50X         0.1868
     22 C22         6.5210   10.2790   23.9900 C.3       1 50X         0.1866
     23 C23         6.0230    9.3460   25.0680 C.2       1 50X         0.2118
     24 O24         4.9090    8.8250   25.0380 O.2       1 50X        -0.3938
     25 N25         6.8690    9.1960   26.1520 N.am      1 50X        -0.2732
     26 O26         6.4670   12.5140   24.9840 O.3       1 50X        -0.3667
     27 C27         6.4940    8.5770   27.3870 C.3       1 50X         0.0703
     28 O28         7.9590   10.4540   23.9400 O.3       1 50X        -0.3667
     29 O29         7.4260   13.0900   22.4360 O.2       1 50X        -0.3936
     30 C30        10.1700    7.5030   31.0720 C.3       1 50X         0.0976
     31 C31        12.5070    5.4620   30.8310 C.3       1 50X         0.4193
     32 F32        13.1710    4.3240   30.5880 F         1 50X        -0.2198
     33 F33        12.6150    6.2450   29.6550 F         1 50X        -0.2198
     34 F34        13.1600    6.0450   31.9310 F         1 50X        -0.2198
     35 C35         7.3180   11.3140   19.7720 C.ar      1 50X        -0.0173
     36 C36         7.4900    9.9540   20.1560 C.ar      1 50X        -0.0443
     37 C37         8.6700    9.2490   19.7710 C.ar      1 50X         0.0338
     38 C38         9.6780    9.8900   19.0210 C.ar      1 50X        -0.0548
     39 C39         9.4900   11.2600   18.6360 C.ar      1 50X        -0.0680
     40 C40         8.3270   11.9700   19.0060 C.ar      1 50X        -0.0580
     41 CL41        8.8280    7.6000   20.2440 Cl        1 50X        -0.0725
     42 H           6.3871   13.1439   20.0500 H         1 50X         0.0721
     43 H           5.1508   11.3806   18.2996 H         1 50X         0.0310
     44 H           4.3865   12.8007   18.9439 H         1 50X         0.0310
     45 H           3.9205    9.9483   19.6749 H         1 50X         0.0287
     46 H           2.8732   11.3447   19.9590 H         1 50X         0.0287
     47 H           3.6036   11.4669   22.2044 H         1 50X         0.0524
     48 H           4.4512   10.0070   21.9813 H         1 50X         0.0524
     49 H           8.7549    1.8928   32.2343 H         1 50X         0.0664
     50 H           6.3285    2.4790   32.6655 H         1 50X         0.0577
     51 H           5.5519    4.8821   32.5938 H         1 50X         0.0662
     52 H           7.1637    6.6761   31.8659 H         1 50X         0.0588
     53 H          10.7924    6.9290   28.2790 H         1 50X         0.0244
     54 H           9.0474    7.6199   26.3866 H         1 50X         0.0244
     55 H           4.9013   11.6188   24.1362 H         1 50X         0.0891
     56 H           6.1409    9.7223   23.1334 H         1 50X         0.0891
     57 H           7.8219    9.5494   26.0657 H         1 50X         0.1879
     58 H           6.0618   13.3795   24.8925 H         1 50X         0.2136
     59 H           5.9884    9.3042   28.0224 H         1 50X         0.0685
     60 H           5.8189    7.7444   27.1891 H         1 50X         0.0685
     61 H           8.2658   10.8131   24.7758 H         1 50X         0.2136
     62 H          11.2243    7.7686   30.9949 H         1 50X         0.0774
     63 H           9.7249    8.0588   31.8973 H         1 50X         0.0774
     64 H           6.7215    9.4516   20.7434 H         1 50X         0.0562
     65 H          10.5842    9.3542   18.7386 H         1 50X         0.0565
     66 H          10.2587   11.7611   18.0476 H         1 50X         0.0599
     67 H           8.2011   13.0111   18.7087 H         1 50X         0.0559
@<TRIPOS>BOND
     1    1    2 1  
     2    1    5 1  
     3   20    1 am 
     4    2    3 1  
     5    2   35 1  
     6    4    3 1  
     7    5    4 1  
     8    6    7 ar 
     9    6   11 ar 
    10   12    6 1  
    11    7    8 ar 
    12   14    7 1  
    13    8    9 ar 
    14   10    9 ar 
    15   11   10 ar 
    16   12   13 1  
    17   30   12 1  
    18   13   14 2  
    19   13   31 1  
    20   15   16 1  
    21   15   19 2  
    22   27   15 1  
    23   16   17 1  
    24   18   17 2  
    25   17   30 1  
    26   19   18 1  
    27   21   20 1  
    28   20   29 2  
    29   22   21 1  
    30   21   26 1  
    31   23   22 1  
    32   22   28 1  
    33   23   24 2  
    34   25   23 am 
    35   25   27 1  
    36   31   32 1  
    37   31   33 1  
    38   31   34 1  
    39   35   36 ar 
    40   35   40 ar 
    41   36   37 ar 
    42   37   38 ar 
    43   37   41 1  
    44   38   39 ar 
    45   39   40 ar 
    46    2   42 1  
    47    3   43 1  
    48    3   44 1  
    49    4   45 1  
    50    4   46 1  
    51    5   47 1  
    52    5   48 1  
    53    8   49 1  
    54    9   50 1  
    55   10   51 1  
    56   11   52 1  
    57   18   53 1  
    58   19   54 1  
    59   21   55 1  
    60   22   56 1  
    61   25   57 1  
    62   26   58 1  
    63   27   59 1  
    64   27   60 1  
    65   28   61 1  
    66   30   62 1  
    67   30   63 1  
    68   36   64 1  
    69   38   65 1  
    70   39   66 1  
    71   40   67 1  
@<TRIPOS>SUBSTRUCTURE
     1 50X         1

