### 
### Created by X-TOOL on Mon Sep 10 21:13:03 2018
### 

@<TRIPOS>MOLECULE
3lhg_ligand
   45    48     1     0     0
SMALL
GAST_HUCK


@<TRIPOS>ATOM
      1 C1         10.4030   -8.5530   16.6750 C.ar      1 Z81        -0.0373
      2 F1         10.3880   -2.5690   12.8550 F         1 Z81        -0.1868
      3 N1         15.6220  -11.4310   17.5630 N.ar      1 Z81        -0.2721
      4 O1         14.1740   -6.3220   18.8820 O.2       1 Z81        -0.3703
      5 C2          9.7940   -7.3590   16.2630 C.ar      1 Z81        -0.0315
      6 F2          8.5570   -4.8790   17.4570 F         1 Z81        -0.1848
      7 N2         14.6990   -6.9240   15.4370 N.pl3     1 Z81        -0.2737
      8 C3         11.7950   -8.6260   16.8110 C.ar      1 Z81        -0.0435
      9 N3         15.2620   -5.4750   17.0500 N.am      1 Z81        -0.2203
     10 C4          8.9520   -2.5130   14.7290 C.ar      1 Z81        -0.0297
     11 N4         16.1690   -5.1750   14.8820 N.pl3     1 Z81        -0.2549
     12 C5          8.4890   -3.1050   15.9030 C.ar      1 Z81        -0.0287
     13 C6         14.7450   -9.2980   18.3220 C.ar      1 Z81        -0.0195
     14 C7         15.0140   -9.7170   15.9690 C.ar      1 Z81        -0.0195
     15 C8         11.9500   -6.3090   16.1310 C.ar      1 Z81        -0.0366
     16 C9         10.4810   -4.3740   14.3880 C.ar      1 Z81        -0.0215
     17 C10        15.2430  -10.5760   18.5450 C.ar      1 Z81         0.0336
     18 C11        15.5010  -10.9770   16.2960 C.ar      1 Z81         0.0336
     19 C12        10.5730   -6.2310   15.9950 C.ar      1 Z81         0.0053
     20 C13        10.0120   -4.9620   15.5660 C.ar      1 Z81         0.0202
     21 C14        12.5600   -7.4870   16.5370 C.ar      1 Z81        -0.0084
     22 C15        14.6370   -8.8710   17.0090 C.ar      1 Z81         0.0054
     23 C16         9.9440   -3.1500   13.9740 C.ar      1 Z81         0.1287
     24 C17         9.0210   -4.3270   16.3210 C.ar      1 Z81         0.1375
     25 C18        14.4950   -6.3880   17.7090 C.2       1 Z81         0.2030
     26 C19        15.3880   -5.8710   15.7560 C.cat     1 Z81         0.3186
     27 C20        14.0850   -7.4710   16.6850 C.3       1 Z81         0.1949
     28 C21        15.8340   -4.2940   17.6980 C.3       1 Z81         0.0235
     29 H           9.7902   -9.4283   16.8904 H         1 Z81         0.0685
     30 H           8.7108   -7.3110   16.1517 H         1 Z81         0.0820
     31 H          14.5949   -7.3104   14.4988 H         1 Z81         0.3076
     32 H          12.2738   -9.5536   17.1247 H         1 Z81         0.0803
     33 H           8.5432   -1.5576   14.4000 H         1 Z81         0.0597
     34 H          16.6696   -4.3436   15.1959 H         1 Z81         0.3199
     35 H          16.2528   -5.4856   13.9141 H         1 Z81         0.3199
     36 H           7.7141   -2.6157   16.4931 H         1 Z81         0.0595
     37 H          14.4499   -8.6546   19.1509 H         1 Z81         0.0879
     38 H          14.9296   -9.4004   14.9294 H         1 Z81         0.0879
     39 H          12.5620   -5.4330   15.9161 H         1 Z81         0.0804
     40 H          11.2563   -4.8634   13.7985 H         1 Z81         0.0599
     41 H          15.3351  -10.9135   19.5773 H         1 Z81         0.0883
     42 H          15.8029  -11.6374   15.4831 H         1 Z81         0.0883
     43 H          15.0305   -3.6764   18.0993 H         1 Z81         0.0484
     44 H          16.4916   -4.6085   18.5084 H         1 Z81         0.0484
     45 H          16.4044   -3.7206   16.9672 H         1 Z81         0.0484
@<TRIPOS>BOND
     1    1    5 ar 
     2    8    1 ar 
     3   23    2 1  
     4   17    3 ar 
     5   18    3 ar 
     6   25    4 2  
     7   19    5 ar 
     8   24    6 1  
     9    7   26 ar 
    10   27    7 1  
    11   21    8 ar 
    12    9   25 am 
    13   26    9 ar 
    14    9   28 1  
    15   12   10 ar 
    16   23   10 ar 
    17   26   11 ar 
    18   24   12 ar 
    19   13   17 ar 
    20   22   13 ar 
    21   14   18 ar 
    22   22   14 ar 
    23   15   19 ar 
    24   21   15 ar 
    25   20   16 ar 
    26   16   23 ar 
    27   19   20 1  
    28   20   24 ar 
    29   27   21 1  
    30   22   27 1  
    31   25   27 1  
    32    1   29 1  
    33    5   30 1  
    34    7   31 1  
    35    8   32 1  
    36   10   33 1  
    37   11   34 1  
    38   11   35 1  
    39   12   36 1  
    40   13   37 1  
    41   14   38 1  
    42   15   39 1  
    43   16   40 1  
    44   17   41 1  
    45   18   42 1  
    46   28   43 1  
    47   28   44 1  
    48   28   45 1  
@<TRIPOS>SUBSTRUCTURE
     1 Z81         1

