### 
### Created by X-TOOL on Mon Sep 10 21:13:04 2018
### 

@<TRIPOS>MOLECULE
3lhj_ligand
   52    56     1     0     0
SMALL
GAST_HUCK


@<TRIPOS>ATOM
      1 N1         -0.9710   10.9790   29.9030 N.am      1 LHJ        -0.1817
      2 N3          0.0600    8.7180   29.2870 N.pl3     1 LHJ        -0.1269
      3 C4         -3.1480   11.2410   28.8310 C.2       1 LHJ         0.0336
      4 C5         -3.0070    9.9880   28.2390 C.2       1 LHJ        -0.0570
      5 C6         -1.4960    8.0340   28.0500 C.2       1 LHJ         0.0020
      6 C7          0.0840   11.5390   30.7860 C.3       1 LHJ         0.0572
      7 C8         -4.2990   11.9790   28.5620 C.ar      1 LHJ        -0.0216
      8 C10         2.3270    9.3210   29.3080 C.ar      1 LHJ         0.1646
      9 C13         2.6380    8.0220   31.7480 C.ar      1 LHJ        -0.0371
     10 C15        -4.2330   12.9240   27.5420 C.ar      1 LHJ        -0.0491
     11 C17        -6.5350   13.5260   27.9080 C.ar      1 LHJ        -0.0546
     12 C20        -5.6050   10.7660   30.3850 C.3       1 LHJ        -0.0305
     13 C21        -5.2040   14.7200   26.0870 C.2       1 LHJ         0.1990
     14 C22        -6.2900   16.5030   24.8060 C.3       1 LHJ         0.0416
     15 C24        -7.6080   16.6730   24.0550 C.3       1 LHJ        -0.0279
     16 C23        -6.4280   15.9800   23.3760 C.3       1 LHJ        -0.0279
     17 N4         -6.2750   15.4720   25.8580 N.am      1 LHJ        -0.2841
     18 O2         -4.1540   14.8080   25.4510 O.2       1 LHJ        -0.3877
     19 C16        -5.3400   13.6990   27.2130 C.ar      1 LHJ         0.0367
     20 C18        -6.6100   12.5770   28.9290 C.ar      1 LHJ        -0.0603
     21 C19        -5.4970   11.8000   29.2580 C.ar      1 LHJ        -0.0407
     22 C3         -2.1340   11.7440   29.6570 C.2       1 LHJ         0.2123
     23 O1         -2.2530   12.8540   30.1760 O.2       1 LHJ        -0.4079
     24 C2         -0.8460    9.7000   29.2950 C.2       1 LHJ         0.2389
     25 C1         -1.8680    9.2290   28.4770 C.2       1 LHJ         0.0403
     26 N2         -0.3020    7.7790   28.5780 N.2       1 LHJ        -0.2133
     27 C9          1.2340    8.6960   29.9110 C.ar      1 LHJ         0.1417
     28 C14         1.3880    8.0370   31.1310 C.ar      1 LHJ        -0.0302
     29 C12         3.7210    8.6580   31.1430 C.ar      1 LHJ         0.1224
     30 F2          4.9230    8.6420   31.7360 F         1 LHJ        -0.1910
     31 C11         3.5740    9.3110   29.9260 C.ar      1 LHJ         0.0006
     32 F1          2.1750    9.9530   28.1280 F         1 LHJ        -0.1874
     33 H          -3.7916    9.6024   27.5880 H         1 LHJ         0.0665
     34 H          -2.0628    7.3793   27.3880 H         1 LHJ         0.0665
     35 H           0.4538   12.4723   30.3613 H         1 LHJ         0.0588
     36 H          -0.3343   11.7287   31.7745 H         1 LHJ         0.0588
     37 H           0.9040   10.8255   30.8678 H         1 LHJ         0.0588
     38 H           2.7685    7.5132   32.7031 H         1 LHJ         0.0551
     39 H          -3.3007   13.0584   26.9935 H         1 LHJ         0.0597
     40 H          -7.4073   14.1289   27.6557 H         1 LHJ         0.0600
     41 H          -5.8658   11.2704   31.3154 H         1 LHJ         0.0396
     42 H          -6.3773   10.0383   30.1359 H         1 LHJ         0.0396
     43 H          -4.6484   10.2568   30.5021 H         1 LHJ         0.0396
     44 H          -5.6066   17.1770   25.3225 H         1 LHJ         0.0555
     45 H          -8.3279   17.4618   23.8367 H         1 LHJ         0.0288
     46 H          -8.6712   16.5001   24.2215 H         1 LHJ         0.0288
     47 H          -6.2275   15.0666   22.8160 H         1 LHJ         0.0288
     48 H          -5.8850   16.0261   22.4320 H         1 LHJ         0.0288
     49 H          -7.1102   15.3315   26.4265 H         1 LHJ         0.1846
     50 H          -7.5444   12.4413   29.4737 H         1 LHJ         0.0550
     51 H           0.5385    7.5383   31.5976 H         1 LHJ         0.0556
     52 H           4.4245    9.8093   29.4608 H         1 LHJ         0.0571
@<TRIPOS>BOND
     1    1    6 1  
     2    1   22 am 
     3   24    1 1  
     4    2   24 1  
     5    2   26 1  
     6   27    2 1  
     7    4    3 2  
     8    3    7 1  
     9   22    3 1  
    10   25    4 1  
    11    5   25 1  
    12   26    5 2  
    13    7   10 ar 
    14    7   21 ar 
    15   27    8 ar 
    16    8   31 ar 
    17    8   32 1  
    18   28    9 ar 
    19    9   29 ar 
    20   10   19 ar 
    21   19   11 ar 
    22   20   11 ar 
    23   21   12 1  
    24   13   17 am 
    25   13   18 2  
    26   19   13 1  
    27   14   15 1  
    28   14   16 1  
    29   17   14 1  
    30   16   15 1  
    31   21   20 ar 
    32   22   23 2  
    33   24   25 2  
    34   27   28 ar 
    35   29   30 1  
    36   29   31 ar 
    37    4   33 1  
    38    5   34 1  
    39    6   35 1  
    40    6   36 1  
    41    6   37 1  
    42    9   38 1  
    43   10   39 1  
    44   11   40 1  
    45   12   41 1  
    46   12   42 1  
    47   12   43 1  
    48   14   44 1  
    49   15   45 1  
    50   15   46 1  
    51   16   47 1  
    52   16   48 1  
    53   17   49 1  
    54   20   50 1  
    55   28   51 1  
    56   31   52 1  
@<TRIPOS>SUBSTRUCTURE
     1 LHJ         1

