### 
### Created by X-TOOL on Mon Sep 10 21:13:02 2018
### 

@<TRIPOS>MOLECULE
3lhs_ligand
   52    51     1     0     0
SMALL
GAST_HUCK


@<TRIPOS>ATOM
      1 C1         10.1020   -6.6050    9.2670 C.2       1 SF8         0.0371
      2 C2          9.0240   -7.5650    8.7450 C.3       1 SF8         0.0362
      3 C3          7.5970   -7.5890    9.3460 C.3       1 SF8         0.1381
      4 C4          6.8800   -8.8100    8.8060 C.3       1 SF8         0.0726
      5 C5          5.6360   -9.1030    9.6170 C.2       1 SF8         0.1800
      6 N6          5.6140  -10.2720   10.2820 N.am      1 SF8        -0.2714
      7 C7          4.5960  -10.7380   11.2230 C.3       1 SF8         0.0944
      8 C8          5.2440  -11.0330   12.5760 C.3       1 SF8        -0.0161
      9 C9          6.1080   -9.8380   12.9490 C.3       1 SF8        -0.0291
     10 C10         6.3540   -9.6740   14.4280 C.3       1 SF8         0.0310
     11 N11         7.0970   -8.4350   14.6420 N.am      1 SF8        -0.2870
     12 C12         6.9960   -7.6530   15.7360 C.2       1 SF8         0.1783
     13 C13         7.8670   -6.3700   15.7900 C.3       1 SF8         0.0725
     14 C14         8.0370   -5.6920   14.4230 C.3       1 SF8         0.1381
     15 C15         8.8510   -4.4220   14.6310 C.3       1 SF8         0.0362
     16 C16         9.3130   -3.6580   13.3680 C.2       1 SF8         0.0371
     17 O17        11.1970   -6.6850    8.6870 O.co2     1 SF8        -0.5690
     18 O18         9.8660   -5.8450   10.2600 O.co2     1 SF8        -0.5690
     19 O19         7.6550   -7.6600   10.7980 O.3       1 SF8        -0.3812
     20 C20         6.9690   -6.2410    8.9690 C.2       1 SF8         0.0803
     21 O21         6.4520   -6.1150    7.8420 O.co2     1 SF8        -0.5448
     22 O22         7.0090   -5.2510    9.7720 O.co2     1 SF8        -0.5448
     23 O23         4.7260   -8.2960    9.6300 O.2       1 SF8        -0.3970
     24 C24         3.8920  -11.9790   10.7390 C.2       1 SF8         0.0601
     25 O25         2.8620  -12.3740   11.3360 O.co2     1 SF8        -0.5666
     26 O26         4.3570  -12.5880    9.7500 O.co2     1 SF8        -0.5666
     27 O27         6.2490   -7.9580   16.6520 O.2       1 SF8        -0.3971
     28 C28         6.7000   -5.3100   13.8430 C.2       1 SF8         0.0803
     29 O29         8.7080   -6.5030   13.4740 O.3       1 SF8        -0.3812
     30 O30         6.4980   -5.3810   12.6130 O.co2     1 SF8        -0.5448
     31 O31         5.8100   -5.0090   14.6240 O.co2     1 SF8        -0.5448
     32 O32         8.9490   -3.8700   12.2320 O.co2     1 SF8        -0.5690
     33 O33        10.0290   -2.6920   13.5090 O.co2     1 SF8        -0.5690
     34 H1          9.4284   -8.5806    8.8673 H         1 SF8         0.0452
     35 H2          8.9051   -7.3441    7.6740 H         1 SF8         0.0452
     36 H3          7.5556   -9.6767    8.8555 H         1 SF8         0.0524
     37 H4          6.5940   -8.6273    7.7597 H         1 SF8         0.0524
     38 H5          6.3801  -10.8924   10.1140 H         1 SF8         0.1875
     39 H6          3.8495   -9.9400   11.3488 H         1 SF8         0.0726
     40 H7          5.8669  -11.9367   12.5034 H         1 SF8         0.0306
     41 H8          4.4657  -11.1843   13.3385 H         1 SF8         0.0306
     42 H9          5.6110   -8.9281   12.5816 H         1 SF8         0.0286
     43 H10         7.0820   -9.9506   12.4503 H         1 SF8         0.0286
     44 H11         6.9392  -10.5265   14.8032 H         1 SF8         0.0520
     45 H12         5.3927   -9.6263   14.9606 H         1 SF8         0.0520
     46 H13         7.7284   -8.1446   13.9229 H         1 SF8         0.1850
     47 H14         8.8627   -6.6400   16.1717 H         1 SF8         0.0524
     48 H15         7.3922   -5.6546   16.4776 H         1 SF8         0.0524
     49 H16         9.7523   -4.6970   15.1984 H         1 SF8         0.0452
     50 H17         8.2380   -3.7313   15.2286 H         1 SF8         0.0452
     51 H18         8.1049   -6.8935   11.1337 H         1 SF8         0.2092
     52 H19         8.7876   -6.0294   12.6543 H         1 SF8         0.2092
@<TRIPOS>BOND
     1    1    2 1  
     2    1   17 ar 
     3    1   18 ar 
     4    2    3 1  
     5    3    4 1  
     6    3   19 1  
     7    3   20 1  
     8    4    5 1  
     9    5    6 am 
    10    5   23 2  
    11    6    7 1  
    12    7    8 1  
    13    7   24 1  
    14    8    9 1  
    15    9   10 1  
    16   10   11 1  
    17   11   12 am 
    18   12   13 1  
    19   12   27 2  
    20   13   14 1  
    21   14   15 1  
    22   14   28 1  
    23   14   29 1  
    24   15   16 1  
    25   16   32 ar 
    26   16   33 ar 
    27   20   21 ar 
    28   20   22 ar 
    29   24   25 ar 
    30   24   26 ar 
    31   28   30 ar 
    32   28   31 ar 
    33    2   34 1  
    34    2   35 1  
    35    4   36 1  
    36    4   37 1  
    37    6   38 1  
    38    7   39 1  
    39    8   40 1  
    40    8   41 1  
    41    9   42 1  
    42    9   43 1  
    43   10   44 1  
    44   10   45 1  
    45   11   46 1  
    46   13   47 1  
    47   13   48 1  
    48   15   49 1  
    49   15   50 1  
    50   19   51 1  
    51   29   52 1  
@<TRIPOS>SUBSTRUCTURE
     1 SF8         1

