### 
### Created by X-TOOL on Mon Sep 10 21:13:02 2018
### 

@<TRIPOS>MOLECULE
3li2_ligand
   52    51     1     0     0
SMALL
GAST_HUCK


@<TRIPOS>ATOM
      1 C1         -5.7660   -6.1230    6.2080 C.2       1 SF8         0.0371
      2 C2         -6.2550   -4.6840    6.0100 C.3       1 SF8         0.0362
      3 C3         -5.2690   -3.7530    5.2810 C.3       1 SF8         0.1381
      4 C4         -5.7430   -2.2850    5.3810 C.3       1 SF8         0.0726
      5 C5         -4.6520   -1.2290    5.3970 C.2       1 SF8         0.1800
      6 N6         -4.1530   -0.8280    6.5800 N.am      1 SF8        -0.2714
      7 C7         -2.9730    0.0370    6.6520 C.3       1 SF8         0.0944
      8 C8         -1.8110   -0.6300    7.3890 C.3       1 SF8        -0.0161
      9 C9         -1.2030   -1.7190    6.4930 C.3       1 SF8        -0.0291
     10 C10         0.1630   -2.1400    6.9750 C.3       1 SF8         0.0310
     11 N11         0.3450   -3.5760    6.8520 N.am      1 SF8        -0.2870
     12 C12         1.4440   -4.1660    6.4050 C.2       1 SF8         0.1783
     13 C13         1.2690   -5.6250    5.9920 C.3       1 SF8         0.0725
     14 C14        -0.0460   -5.9040    5.2400 C.3       1 SF8         0.1381
     15 C15        -0.0290   -7.4020    4.8650 C.3       1 SF8         0.0362
     16 C16        -1.2700   -7.9720    4.1950 C.2       1 SF8         0.0371
     17 O17        -6.5890   -6.9590    6.6130 O.co2     1 SF8        -0.5690
     18 O18        -4.5920   -6.4660    5.9730 O.co2     1 SF8        -0.5690
     19 O19        -3.9900   -3.8940    5.8680 O.3       1 SF8        -0.3812
     20 C20        -5.0760   -4.1890    3.8530 C.2       1 SF8         0.0803
     21 O21        -5.9990   -3.9990    3.0150 O.co2     1 SF8        -0.5448
     22 O22        -3.9710   -4.7190    3.5630 O.co2     1 SF8        -0.5448
     23 O23        -4.2720   -0.7690    4.3250 O.2       1 SF8        -0.3970
     24 C24        -3.2880    1.4180    7.2220 C.2       1 SF8         0.0601
     25 O25        -2.5810    1.8940    8.1580 O.co2     1 SF8        -0.5666
     26 O26        -4.2540    2.0550    6.7100 O.co2     1 SF8        -0.5666
     27 O27         2.5550   -3.6270    6.3710 O.2       1 SF8        -0.3971
     28 C28        -0.2380   -4.9700    4.0540 C.2       1 SF8         0.0803
     29 O29        -1.2000   -5.6310    6.0410 O.3       1 SF8        -0.3812
     30 O30        -1.3780   -4.5120    3.8530 O.co2     1 SF8        -0.5448
     31 O31         0.6900   -4.6500    3.2900 O.co2     1 SF8        -0.5448
     32 O32        -2.2860   -7.2570    3.9790 O.co2     1 SF8        -0.5690
     33 O33        -1.2310   -9.1850    3.8560 O.co2     1 SF8        -0.5690
     34 H1         -6.4595   -4.2542    7.0017 H         1 SF8         0.0452
     35 H2         -7.1865   -4.7181    5.4259 H         1 SF8         0.0452
     36 H3         -6.3236   -2.1821    6.3096 H         1 SF8         0.0524
     37 H4         -6.3936   -2.0826    4.5174 H         1 SF8         0.0524
     38 H5         -4.5957   -1.1258    7.4258 H         1 SF8         0.1875
     39 H6         -2.6392    0.1950    5.6159 H         1 SF8         0.0726
     40 H7         -2.1785   -1.0836    8.3213 H         1 SF8         0.0306
     41 H8         -1.0443    0.1227    7.6248 H         1 SF8         0.0306
     42 H9         -1.1148   -1.3292    5.4682 H         1 SF8         0.0286
     43 H10        -1.8678   -2.5954    6.4961 H         1 SF8         0.0286
     44 H11         0.2747   -1.8536    8.0312 H         1 SF8         0.0520
     45 H12         0.9289   -1.6287    6.3734 H         1 SF8         0.0520
     46 H13        -0.4166   -4.1636    7.1253 H         1 SF8         0.1850
     47 H14         1.2887   -6.2471    6.8990 H         1 SF8         0.0524
     48 H15         2.1084   -5.9036    5.3380 H         1 SF8         0.0524
     49 H16         0.1365   -7.9718    5.7913 H         1 SF8         0.0452
     50 H17         0.8174   -7.5608    4.1806 H         1 SF8         0.0452
     51 H18        -3.7098   -4.7993    5.8005 H         1 SF8         0.2092
     52 H19        -1.9837   -5.8454    5.5487 H         1 SF8         0.2092
@<TRIPOS>BOND
     1    1    2 1  
     2    1   17 ar 
     3    1   18 ar 
     4    2    3 1  
     5    3    4 1  
     6    3   19 1  
     7    3   20 1  
     8    4    5 1  
     9    5    6 am 
    10    5   23 2  
    11    6    7 1  
    12    7    8 1  
    13    7   24 1  
    14    8    9 1  
    15    9   10 1  
    16   10   11 1  
    17   11   12 am 
    18   12   13 1  
    19   12   27 2  
    20   13   14 1  
    21   14   15 1  
    22   14   28 1  
    23   14   29 1  
    24   15   16 1  
    25   16   32 ar 
    26   16   33 ar 
    27   20   21 ar 
    28   20   22 ar 
    29   24   25 ar 
    30   24   26 ar 
    31   28   30 ar 
    32   28   31 ar 
    33    2   34 1  
    34    2   35 1  
    35    4   36 1  
    36    4   37 1  
    37    6   38 1  
    38    7   39 1  
    39    8   40 1  
    40    8   41 1  
    41    9   42 1  
    42    9   43 1  
    43   10   44 1  
    44   10   45 1  
    45   11   46 1  
    46   13   47 1  
    47   13   48 1  
    48   15   49 1  
    49   15   50 1  
    50   19   51 1  
    51   29   52 1  
@<TRIPOS>SUBSTRUCTURE
     1 SF8         1

