### 
### Created by X-TOOL on Mon Sep 10 21:13:02 2018
### 

@<TRIPOS>MOLECULE
3lik_ligand
   69    71     1     0     0
SMALL
GAST_HUCK


@<TRIPOS>ATOM
      1 C1          6.7370   31.0620    8.1530 C.2       1 EEG         0.1993
      2 N1          8.4630   29.5250    7.3940 N.am      1 EEG        -0.2636
      3 O1          6.6200   28.5580    6.4770 O.2       1 EEG        -0.3944
      4 C2          7.6500   29.8940    8.5330 C.3       1 EEG         0.1321
      5 N2          7.8900   27.2780    4.4360 N.am      1 EEG        -0.2654
      6 O2          9.8280   26.0040    4.5010 O.2       1 EEG        -0.3967
      7 C3          8.5270   30.1650    9.7660 C.3       1 EEG        -0.0008
      8 C4          8.8270   31.6160   10.1530 C.3       1 EEG         0.0044
      9 O4          8.7330   31.4260    1.5830 O.co2     1 EEG        -0.5690
     10 C5         10.2150   31.9420   10.7150 C.2       1 EEG         0.0350
     11 C6          7.7930   28.7170    6.3940 C.2       1 EEG         0.2040
     12 C7          8.4970   28.4490    5.0590 C.3       1 EEG         0.1324
     13 S7          2.7520   22.3740    8.6150 S.3       1 EEG        -0.0356
     14 C8          8.3390   29.6620    4.1290 C.3       1 EEG        -0.0008
     15 O8         11.0590   32.7830    9.9790 O.co2     1 EEG        -0.5690
     16 C9          9.5940   30.4250    3.7290 C.3       1 EEG         0.0044
     17 N9          7.0570   31.8590    6.9870 N.am      1 EEG        -0.2990
     18 O9          5.6780   31.1890    8.6720 O.2       1 EEG        -0.3947
     19 C10         9.3820   31.6180    2.8020 C.2       1 EEG         0.0350
     20 C11         8.7340   26.1580    4.0480 C.2       1 EEG         0.1802
     21 C12         8.0240   25.0240    3.3070 C.3       1 EEG         0.0470
     22 C13         7.8240   23.7690    4.1440 C.3       1 EEG        -0.0024
     23 C14         5.2080   24.1310    4.3600 C.ar      1 EEG        -0.0604
     24 C15         5.3230   22.5490    6.7990 C.ar      1 EEG        -0.0612
     25 C16         4.0790   23.0640    6.2870 C.ar      1 EEG        -0.0168
     26 C17         4.0030   23.8460    5.0940 C.ar      1 EEG        -0.0612
     27 C18         2.8130   22.7430    7.0870 C.2       1 EEG         0.0327
     28 C19         1.4110   22.7470    6.4930 C.2       1 EEG        -0.0608
     29 C20         0.3600   22.3420    7.7320 C.2       1 EEG        -0.0281
     30 C21        -1.1480   22.2940    7.5200 C.ar      1 EEG        -0.0317
     31 C22        -1.9130   21.3110    8.0770 C.ar      1 EEG        -0.0592
     32 C23        -3.3230   21.3120    7.8240 C.ar      1 EEG        -0.0646
     33 C24        -3.8990   22.3170    6.9700 C.ar      1 EEG        -0.0648
     34 C25        -3.0940   23.3160    6.3790 C.ar      1 EEG        -0.0646
     35 C26        -1.7270   23.3270    6.6230 C.ar      1 EEG        -0.0592
     36 C27         6.5000   23.6030    4.9020 C.ar      1 EEG        -0.0411
     37 C28         6.5490   22.8540    6.0560 C.ar      1 EEG        -0.0604
     38 C29         1.1030   22.1290    8.9660 C.2       1 EEG         0.0059
     39 O4E         9.5890   32.7130    3.1980 O.co2     1 EEG        -0.5690
     40 O8E        10.6920   31.2430   11.5470 O.co2     1 EEG        -0.5690
     41 H1          9.4181   29.8070    7.3033 H         1 EEG         0.1883
     42 H2          7.0030   29.0390    8.7786 H         1 EEG         0.0801
     43 H3          6.9032   27.2453    4.2771 H         1 EEG         0.1883
     44 H4          9.4938   29.6708    9.5901 H         1 EEG         0.0330
     45 H5          8.0275   29.6974   10.6272 H         1 EEG         0.0330
     46 H6          8.0894   31.9100   10.9142 H         1 EEG         0.0433
     47 H7          8.6877   32.2299    9.2510 H         1 EEG         0.0433
     48 H8          9.5661   28.2615    5.2374 H         1 EEG         0.0801
     49 H9          7.6695   30.3750    4.6324 H         1 EEG         0.0330
     50 H10         7.8647   29.3046    3.2031 H         1 EEG         0.0330
     51 H11        10.2696   29.7203    3.2220 H         1 EEG         0.0433
     52 H12        10.0717   30.7937    4.6487 H         1 EEG         0.0433
     53 H13         6.4685   32.6249    6.7280 H         1 EEG         0.1815
     54 H14         7.8665   31.6435    6.4408 H         1 EEG         0.1815
     55 H15         8.6236   24.7589    2.4237 H         1 EEG         0.0525
     56 H16         7.0366   25.3860    2.9847 H         1 EEG         0.0525
     57 H17         8.6318   23.7431    4.8902 H         1 EEG         0.0452
     58 H18         7.9220   22.9073    3.4674 H         1 EEG         0.0452
     59 H19         5.1809   24.7096    3.4438 H         1 EEG         0.0557
     60 H20         5.3515   21.9547    7.7051 H         1 EEG         0.0594
     61 H21         3.0477   24.2210    4.7450 H         1 EEG         0.0594
     62 H22         1.1434   22.9702    5.4613 H         1 EEG         0.0428
     63 H23        -1.4630   20.5450    8.6982 H         1 EEG         0.0594
     64 H24        -3.9556   20.5563    8.2755 H         1 EEG         0.0609
     65 H25        -4.9657   22.3072    6.7776 H         1 EEG         0.0592
     66 H26        -3.5403   24.0689    5.7394 H         1 EEG         0.0609
     67 H27        -1.0923   24.0776    6.1661 H         1 EEG         0.0594
     68 H28         7.5024   22.4867    6.4182 H         1 EEG         0.0557
     69 H29         0.6823   21.8623    9.9344 H         1 EEG         0.0780
@<TRIPOS>BOND
     1    4    1 1  
     2    1   17 am 
     3    1   18 2  
     4    2    4 1  
     5   11    2 am 
     6   11    3 2  
     7    4    7 1  
     8    5   12 1  
     9   20    5 am 
    10   20    6 2  
    11    7    8 1  
    12    8   10 1  
    13   19    9 ar 
    14   10   15 ar 
    15   10   40 ar 
    16   12   11 1  
    17   12   14 1  
    18   27   13 1  
    19   13   38 1  
    20   14   16 1  
    21   16   19 1  
    22   19   39 ar 
    23   21   20 1  
    24   22   21 1  
    25   36   22 1  
    26   26   23 ar 
    27   23   36 ar 
    28   25   24 ar 
    29   24   37 ar 
    30   25   26 ar 
    31   25   27 1  
    32   27   28 2  
    33   28   29 1  
    34   29   30 1  
    35   29   38 2  
    36   30   31 ar 
    37   30   35 ar 
    38   31   32 ar 
    39   32   33 ar 
    40   33   34 ar 
    41   34   35 ar 
    42   36   37 ar 
    43    2   41 1  
    44    4   42 1  
    45    5   43 1  
    46    7   44 1  
    47    7   45 1  
    48    8   46 1  
    49    8   47 1  
    50   12   48 1  
    51   14   49 1  
    52   14   50 1  
    53   16   51 1  
    54   16   52 1  
    55   17   53 1  
    56   17   54 1  
    57   21   55 1  
    58   21   56 1  
    59   22   57 1  
    60   22   58 1  
    61   23   59 1  
    62   24   60 1  
    63   26   61 1  
    64   28   62 1  
    65   31   63 1  
    66   32   64 1  
    67   33   65 1  
    68   34   66 1  
    69   35   67 1  
    70   37   68 1  
    71   38   69 1  
@<TRIPOS>SUBSTRUCTURE
     1 EEG         1

