### 
### Created by X-TOOL on Mon Sep 10 21:13:02 2018
### 

@<TRIPOS>MOLECULE
3lil_ligand
   68    70     1     0     0
SMALL
GAST_HUCK


@<TRIPOS>ATOM
      1 C1          7.9270   24.8860    3.5260 C.3       1 EEA         0.0517
      2 N1          8.5820   29.1280    7.8280 N.am      1 EEA        -0.2636
      3 O1          6.7380   28.1940    6.8540 O.2       1 EEA        -0.3944
      4 CL1        -2.7870   22.7180   11.1680 Cl        1 EEA        -0.0707
      5 C2          8.0350   23.5920    4.3160 C.3       1 EEA         0.0379
      6 N2          7.9600   27.1250    4.7170 N.am      1 EEA        -0.2654
      7 O2          9.8400   25.7920    4.5680 O.2       1 EEA        -0.3967
      8 C3          6.8060   23.1240    5.1080 C.2       1 EEA         0.1409
      9 C4          5.3920   23.6500    5.0670 C.2       1 EEA        -0.0269
     10 O4          8.5240   31.3740    2.1350 O.co2     1 EEA        -0.5690
     11 C5          4.6620   22.8010    5.9380 C.2       1 EEA         0.0432
     12 C6          3.1860   22.8150    6.2750 C.ar      1 EEA        -0.0148
     13 C7          2.7790   22.0030    7.4720 C.ar      1 EEA        -0.0544
     14 C8          1.4150   21.9680    7.8250 C.ar      1 EEA        -0.0543
     15 O8         11.1410   32.2680   10.8010 O.co2     1 EEA        -0.5690
     16 C9          0.4760   22.6700    7.0160 C.ar      1 EEA        -0.0186
     17 N9          5.6640   30.9480    9.3460 N.am      1 EEA        -0.2990
     18 O9          7.0790   31.3330    7.6130 O.2       1 EEA        -0.3947
     19 C10         0.8790   23.4470    5.8540 C.ar      1 EEA        -0.0543
     20 C11         2.2730   23.4980    5.4670 C.ar      1 EEA        -0.0544
     21 C12         8.7250   25.9950    4.2060 C.2       1 EEA         0.1806
     22 N12         5.5100   21.8280    6.5050 N.2       1 EEA        -0.1517
     23 O12         6.8520   22.0690    5.9610 O.3       1 EEA        -0.1669
     24 C13         8.6640   28.1570    5.4790 C.3       1 EEA         0.1324
     25 C14         7.9200   28.3580    6.7980 C.2       1 EEA         0.2040
     26 C15         8.6070   29.5080    4.7610 C.3       1 EEA        -0.0008
     27 C16         9.5930   29.8290    3.6490 C.3       1 EEA         0.0044
     28 C17         9.2810   31.2240    3.1480 C.2       1 EEA         0.0350
     29 C18        -0.9850   22.7050    7.4610 C.ar      1 EEA        -0.0179
     30 C19        -1.2420   22.6970    8.9270 C.ar      1 EEA        -0.0403
     31 C20        -2.5230   22.8020    9.4000 C.ar      1 EEA         0.0409
     32 C21        -3.5950   22.9940    8.4870 C.ar      1 EEA        -0.0479
     33 C22        -3.3300   23.0880    7.0730 C.ar      1 EEA        -0.0609
     34 C23        -1.9940   22.9740    6.5820 C.ar      1 EEA        -0.0541
     35 C24         7.7440   29.4870    8.9500 C.3       1 EEA         0.1321
     36 C25         8.5710   29.6200   10.2390 C.3       1 EEA        -0.0008
     37 C26         8.9290   31.0230   10.7300 C.3       1 EEA         0.0044
     38 C27        10.3240   31.2540   11.3310 C.2       1 EEA         0.0350
     39 C28         6.8750   30.6960    8.5980 C.2       1 EEA         0.1993
     40 O4E         9.7230   32.2590    3.9020 O.co2     1 EEA        -0.5690
     41 O8E        10.5950   30.7470   12.3760 O.co2     1 EEA        -0.5690
     42 H1          6.8704   25.1857    3.4647 H         1 EEA         0.0529
     43 H2          8.3220   24.7253    2.5121 H         1 EEA         0.0529
     44 H3          9.5448   29.3916    7.7686 H         1 EEA         0.1883
     45 H4          8.8589   23.7155    5.0343 H         1 EEA         0.0509
     46 H5          8.2872   22.7937    3.6025 H         1 EEA         0.0509
     47 H6          6.9763   27.1937    4.5507 H         1 EEA         0.1883
     48 H7          5.0148   24.4959    4.4943 H         1 EEA         0.0289
     49 H8          3.5163   21.4575    8.0498 H         1 EEA         0.0616
     50 H9          1.0859   21.4159    8.6979 H         1 EEA         0.0622
     51 H10         5.4714   30.4253   10.1765 H         1 EEA         0.1815
     52 H11         5.0189   31.6450    9.0330 H         1 EEA         0.1815
     53 H12         0.1361   23.9873    5.2785 H         1 EEA         0.0622
     54 H13         2.5952   24.0432    4.5872 H         1 EEA         0.0616
     55 H14         9.7074   27.8547    5.6520 H         1 EEA         0.0801
     56 H15         8.7379   30.2814    5.5322 H         1 EEA         0.0330
     57 H16         7.6007   29.5917    4.3248 H         1 EEA         0.0330
     58 H17         9.4836   29.1032    2.8297 H         1 EEA         0.0433
     59 H18        10.6215   29.7914    4.0373 H         1 EEA         0.0433
     60 H19        -0.4142   22.6080    9.6212 H         1 EEA         0.0628
     61 H20        -4.6122   23.0698    8.8539 H         1 EEA         0.0622
     62 H21        -4.1483   23.2459    6.3798 H         1 EEA         0.0617
     63 H22        -1.7840   23.0993    5.5259 H         1 EEA         0.0624
     64 H23         7.0515   28.6490    9.1176 H         1 EEA         0.0801
     65 H24         9.5160   29.0811   10.0765 H         1 EEA         0.0330
     66 H25         8.0025   29.1292   11.0426 H         1 EEA         0.0330
     67 H26         8.1937   31.2948   11.5016 H         1 EEA         0.0433
     68 H27         8.8283   31.7034    9.8715 H         1 EEA         0.0433
@<TRIPOS>BOND
     1    1    5 1  
     2   21    1 1  
     3    2   25 am 
     4   35    2 1  
     5   25    3 2  
     6   31    4 1  
     7    5    8 1  
     8    6   21 am 
     9   24    6 1  
    10   21    7 2  
    11    8    9 2  
    12    8   23 1  
    13    9   11 1  
    14   28   10 ar 
    15   11   12 1  
    16   22   11 2  
    17   12   13 ar 
    18   12   20 ar 
    19   13   14 ar 
    20   14   16 ar 
    21   38   15 ar 
    22   19   16 ar 
    23   16   29 1  
    24   39   17 am 
    25   39   18 2  
    26   20   19 ar 
    27   23   22 1  
    28   25   24 1  
    29   24   26 1  
    30   26   27 1  
    31   27   28 1  
    32   28   40 ar 
    33   29   30 ar 
    34   29   34 ar 
    35   30   31 ar 
    36   31   32 ar 
    37   33   32 ar 
    38   34   33 ar 
    39   36   35 1  
    40   35   39 1  
    41   37   36 1  
    42   37   38 1  
    43   38   41 ar 
    44    1   42 1  
    45    1   43 1  
    46    2   44 1  
    47    5   45 1  
    48    5   46 1  
    49    6   47 1  
    50    9   48 1  
    51   13   49 1  
    52   14   50 1  
    53   17   51 1  
    54   17   52 1  
    55   19   53 1  
    56   20   54 1  
    57   24   55 1  
    58   26   56 1  
    59   26   57 1  
    60   27   58 1  
    61   27   59 1  
    62   30   60 1  
    63   32   61 1  
    64   33   62 1  
    65   34   63 1  
    66   35   64 1  
    67   36   65 1  
    68   36   66 1  
    69   37   67 1  
    70   37   68 1  
@<TRIPOS>SUBSTRUCTURE
     1 EEA         1

