### 
### Created by X-TOOL on Mon Sep 10 21:13:02 2018
### 

@<TRIPOS>MOLECULE
3lir_ligand
   58    59     1     0     0
SMALL
GAST_HUCK


@<TRIPOS>ATOM
      1 C1          6.7240   31.0410    8.3400 C.2       1 EEC         0.1993
      2 N1          8.4530   29.5660    7.4880 N.am      1 EEC        -0.2636
      3 O1          6.6730   28.5230    6.5970 O.2       1 EEC        -0.3944
      4 C2          7.6960   29.9370    8.6710 C.3       1 EEC         0.1321
      5 N2          8.0150   27.4730    4.5940 N.am      1 EEC        -0.2654
      6 O2          9.8760   26.1830    4.3700 O.2       1 EEC        -0.3967
      7 C3          8.7430   30.4620    9.6410 C.3       1 EEC        -0.0008
      8 N3          5.6310   22.2820    6.4150 N.2       1 EEC        -0.1519
      9 C4          9.1500   29.3750   10.6210 C.3       1 EEC         0.0044
     10 O4          9.7360   32.1640    3.2120 O.co2     1 EEC        -0.5690
     11 C5         10.1000   29.9660   11.6400 C.2       1 EEC         0.0350
     12 O5          6.9020   22.6120    5.8790 O.3       1 EEC        -0.1670
     13 C6          7.8500   28.8630    6.5330 C.2       1 EEC         0.2040
     14 C7          8.6640   28.5480    5.3210 C.3       1 EEC         0.1324
     15 C8          8.4910   29.7930    4.4610 C.3       1 EEC        -0.0008
     16 O8         10.3700   31.1930   11.5930 O.co2     1 EEC        -0.5690
     17 C9          9.3250   29.8280    3.1910 C.3       1 EEC         0.0044
     18 N9          7.0430   31.8180    7.3980 N.am      1 EEC        -0.2990
     19 O9          5.6800   31.1710    8.9630 O.2       1 EEC        -0.3947
     20 C10         9.1330   31.2230    2.6470 C.2       1 EEC         0.0350
     21 C11         8.6790   26.3970    4.1820 C.2       1 EEC         0.1806
     22 C12         7.8260   25.3950    3.4700 C.3       1 EEC         0.0517
     23 C13         8.0490   24.1130    4.2270 C.3       1 EEC         0.0379
     24 C14         5.4760   23.9440    4.8860 C.2       1 EEC        -0.0269
     25 C16         4.7730   23.1150    5.7930 C.2       1 EEC         0.0430
     26 C21         3.3150   23.0670    6.0910 C.ar      1 EEC        -0.0150
     27 C22         2.3930   23.6940    5.2590 C.ar      1 EEC        -0.0551
     28 C23         1.0410   23.6290    5.5580 C.ar      1 EEC        -0.0621
     29 C24         0.6260   22.9250    6.6890 C.ar      1 EEC        -0.0626
     30 C25         1.5440   22.2910    7.5220 C.ar      1 EEC        -0.0621
     31 C26         2.8950   22.3620    7.2200 C.ar      1 EEC        -0.0551
     32 C27         6.8360   23.6020    4.9560 C.2       1 EEC         0.1408
     33 O4E         8.3640   31.3850    1.6730 O.co2     1 EEC        -0.5690
     34 O8E        10.5840   29.1950   12.5010 O.co2     1 EEC        -0.5690
     35 H1          9.4116   29.8346    7.3930 H         1 EEC         0.1883
     36 H2          7.1608   29.0715    9.0886 H         1 EEC         0.0801
     37 H3          7.0372   27.5435    4.3965 H         1 EEC         0.1883
     38 H4          8.3262   31.3142   10.1978 H         1 EEC         0.0330
     39 H5          9.6279   30.7905    9.0762 H         1 EEC         0.0330
     40 H6          9.6500   28.5581   10.0800 H         1 EEC         0.0433
     41 H7          8.2572   28.9844   11.1313 H         1 EEC         0.0433
     42 H8          9.7138   28.3197    5.5571 H         1 EEC         0.0801
     43 H9          8.7637   30.6672    5.0704 H         1 EEC         0.0330
     44 H10         7.4315   29.8625    4.1734 H         1 EEC         0.0330
     45 H11         8.9670   29.0777    2.4706 H         1 EEC         0.0433
     46 H12        10.3853   29.6422    3.4175 H         1 EEC         0.0433
     47 H13         6.4327   32.5667    7.1390 H         1 EEC         0.1815
     48 H14         7.9060   31.6850    6.9106 H         1 EEC         0.1815
     49 H15         8.1421   25.2887    2.4218 H         1 EEC         0.0529
     50 H16         6.7667   25.6894    3.5056 H         1 EEC         0.0529
     51 H17         8.8470   24.2834    4.9646 H         1 EEC         0.0509
     52 H18         8.3700   23.3421    3.5110 H         1 EEC         0.0509
     53 H19         5.0396   24.7107    4.2475 H         1 EEC         0.0289
     54 H20         2.7306   24.2314    4.3802 H         1 EEC         0.0616
     55 H21         0.3144   24.1195    4.9204 H         1 EEC         0.0615
     56 H22        -0.4309   22.8707    6.9235 H         1 EEC         0.0610
     57 H23         1.2059   21.7478    8.3971 H         1 EEC         0.0615
     58 H24         3.6220   21.8722    7.8577 H         1 EEC         0.0616
@<TRIPOS>BOND
     1    4    1 1  
     2    1   18 am 
     3    1   19 2  
     4    2    4 1  
     5   13    2 am 
     6   13    3 2  
     7    4    7 1  
     8    5   14 1  
     9   21    5 am 
    10   21    6 2  
    11    7    9 1  
    12   12    8 1  
    13    8   25 2  
    14    9   11 1  
    15   20   10 ar 
    16   11   16 ar 
    17   11   34 ar 
    18   32   12 1  
    19   14   13 1  
    20   14   15 1  
    21   15   17 1  
    22   17   20 1  
    23   20   33 ar 
    24   22   21 1  
    25   23   22 1  
    26   23   32 1  
    27   25   24 1  
    28   24   32 2  
    29   25   26 1  
    30   26   27 ar 
    31   26   31 ar 
    32   27   28 ar 
    33   28   29 ar 
    34   29   30 ar 
    35   30   31 ar 
    36    2   35 1  
    37    4   36 1  
    38    5   37 1  
    39    7   38 1  
    40    7   39 1  
    41    9   40 1  
    42    9   41 1  
    43   14   42 1  
    44   15   43 1  
    45   15   44 1  
    46   17   45 1  
    47   17   46 1  
    48   18   47 1  
    49   18   48 1  
    50   22   49 1  
    51   22   50 1  
    52   23   51 1  
    53   23   52 1  
    54   24   53 1  
    55   27   54 1  
    56   28   55 1  
    57   29   56 1  
    58   30   57 1  
    59   31   58 1  
@<TRIPOS>SUBSTRUCTURE
     1 EEC         1

