### 
### Created by X-TOOL on Mon Sep 10 21:13:02 2018
### 

@<TRIPOS>MOLECULE
3lj7_ligand
   22    22     1     0     0
SMALL
GAST_HUCK


@<TRIPOS>ATOM
      1 N          14.3480   42.6580    3.1880 N.am      1 OHO        -0.2855
      2 C          13.2090   41.9720    3.0150 C.2       1 OHO         0.1696
      3 O          12.3790   41.8160    3.9300 O.2       1 OHO        -0.3831
      4 C1         14.7260   43.2660    4.4460 C.3       1 OHO         0.0423
      5 C2         15.5780   44.5070    4.2050 C.3       1 OHO        -0.0297
      6 C3         15.9870   45.1850    5.5190 C.3       1 OHO        -0.0510
      7 C4         16.6980   44.2140    6.4520 C.3       1 OHO        -0.0529
      8 C5         15.9320   42.8840    6.6080 C.3       1 OHO        -0.0510
      9 C6         15.5610   42.2770    5.2600 C.3       1 OHO        -0.0297
     10 H          14.9798   42.7563    2.3933 H         1 OHO         0.1863
     11 H          13.0022   41.5351    2.0381 H         1 OHO         0.1544
     12 H          13.8157   43.5387    4.9798 H         1 OHO         0.0558
     13 H          14.9904   45.2169    3.6229 H         1 OHO         0.0288
     14 H          16.4842   44.2027    3.6812 H         1 OHO         0.0288
     15 H          15.0861   45.5441    6.0166 H         1 OHO         0.0266
     16 H          16.6695   46.0026    5.2872 H         1 OHO         0.0266
     17 H          16.7692   44.6803    7.4347 H         1 OHO         0.0265
     18 H          17.6769   43.9924    6.0270 H         1 OHO         0.0265
     19 H          15.0116   43.0832    7.1569 H         1 OHO         0.0266
     20 H          16.5765   42.1792    7.1333 H         1 OHO         0.0266
     21 H          16.4733   42.0443    4.7108 H         1 OHO         0.0288
     22 H          14.9786   41.3706    5.4255 H         1 OHO         0.0288
@<TRIPOS>BOND
     1    1    2 am 
     2    1    4 1  
     3    2    3 2  
     4    4    5 1  
     5    4    9 1  
     6    5    6 1  
     7    6    7 1  
     8    7    8 1  
     9    8    9 1  
    10    1   10 1  
    11    2   11 1  
    12    4   12 1  
    13    5   13 1  
    14    5   14 1  
    15    6   15 1  
    16    6   16 1  
    17    7   17 1  
    18    7   18 1  
    19    8   19 1  
    20    8   20 1  
    21    9   21 1  
    22    9   22 1  
@<TRIPOS>SUBSTRUCTURE
     1 OHO         1

