### 
### Created by X-TOOL on Mon Sep 10 21:13:02 2018
### 

@<TRIPOS>MOLECULE
3ljg_ligand
   62    63     1     0     0
SMALL
GAST_HUCK


@<TRIPOS>ATOM
      1 C1          7.9420   25.0430    3.4330 C.3       1 EEF         0.0472
      2 N1          8.0550   27.4190    4.3650 N.am      1 EEF        -0.2654
      3 O1          6.8450   28.4120    6.5760 O.2       1 EEF        -0.3944
      4 C2          8.7290   26.1390    4.1800 C.2       1 EEF         0.1802
      5 N2          8.7600   29.1750    7.5970 N.am      1 EEF        -0.2636
      6 O2          9.8180   25.8970    4.6390 O.2       1 EEF        -0.3967
      7 C3          8.7210   28.4730    5.1460 C.3       1 EEF         0.1324
      8 N3          5.6970   30.3080    9.2920 N.am      1 EEF        -0.2990
      9 C4          8.6280   29.8440    4.4420 C.3       1 EEF        -0.0008
     10 C5          9.4400   30.0590    3.1680 C.3       1 EEF         0.0044
     11 O5          7.1580   31.4130    7.8790 O.2       1 EEF        -0.3947
     12 O6         10.1570   32.3480    2.4460 O.co2     1 EEF        -0.5690
     13 O7          8.3660   31.4060    1.5660 O.co2     1 EEF        -0.5690
     14 C8          9.1680   31.3680    2.4320 C.2       1 EEF         0.0350
     15 C9          8.0290   28.5750    6.5020 C.2       1 EEF         0.2040
     16 C10         8.0180   29.4300    8.8140 C.3       1 EEF         0.1321
     17 C11         8.8720   29.7710   10.0400 C.3       1 EEF        -0.0008
     18 C12         8.7420   28.8350   11.2630 C.3       1 EEF         0.0044
     19 C13         6.9460   30.4780    8.5790 C.2       1 EEF         0.1993
     20 C14         7.7820   23.7610    4.2610 C.3       1 EEF        -0.0017
     21 C15         6.3370   22.5600    5.9300 C.ar      1 EEF        -0.0588
     22 C16         5.0750   22.2530    6.5750 C.ar      1 EEF        -0.0600
     23 C17         3.8940   23.0050    6.1670 C.ar      1 EEF        -0.0242
     24 C18         6.4190   23.5300    4.9520 C.ar      1 EEF        -0.0398
     25 C19         2.5640   22.6820    6.8460 C.ar      1 EEF        -0.0221
     26 C20         2.5690   22.2440    8.2720 C.ar      1 EEF        -0.0557
     27 C21         1.3780   21.9310    8.9080 C.ar      1 EEF        -0.0622
     28 C22         0.1820   22.4620    6.8240 C.ar      1 EEF        -0.0622
     29 C23         1.4210   22.7860    6.1600 C.ar      1 EEF        -0.0557
     30 C27         0.1700   22.0300    8.1860 C.ar      1 EEF        -0.0627
     31 C30         3.9640   24.0160    5.1590 C.ar      1 EEF        -0.0600
     32 C31         5.1970   24.3120    4.5290 C.ar      1 EEF        -0.0588
     33 C32         7.5190   28.9340   12.1930 C.2       1 EEF         0.0350
     34 O33         7.4070   28.0670   13.3020 O.co2     1 EEF        -0.5690
     35 O34         6.7990   29.8720   12.1250 O.co2     1 EEF        -0.5690
     36 H1          8.4765   24.7973    2.5036 H         1 EEF         0.0525
     37 H2          6.9422   25.4316    3.1893 H         1 EEF         0.0525
     38 H3          7.1519   27.5782    3.9662 H         1 EEF         0.1883
     39 H4          9.7305   29.4025    7.5172 H         1 EEF         0.1883
     40 H5          9.7795   28.2081    5.2853 H         1 EEF         0.0801
     41 H6          5.5577   29.5055    9.8722 H         1 EEF         0.1815
     42 H7          4.9739   30.9931    9.2042 H         1 EEF         0.1815
     43 H8          8.9519   30.6052    5.1670 H         1 EEF         0.0330
     44 H9          7.5708   30.0077    4.1860 H         1 EEF         0.0330
     45 H10         9.2177   29.2302    2.4798 H         1 EEF         0.0433
     46 H11        10.5063   30.0362    3.4372 H         1 EEF         0.0433
     47 H12         7.4990   28.4912    9.0577 H         1 EEF         0.0801
     48 H13         8.5960   30.7846   10.3661 H         1 EEF         0.0330
     49 H14         9.9257   29.7615    9.7245 H         1 EEF         0.0330
     50 H15         9.6295   29.0086   11.8892 H         1 EEF         0.0433
     51 H16         8.7618   27.8055   10.8761 H         1 EEF         0.0433
     52 H17         8.5523   23.7762    5.0461 H         1 EEF         0.0454
     53 H18         7.9604   22.9088    3.5887 H         1 EEF         0.0454
     54 H19         7.2301   22.0189    6.2208 H         1 EEF         0.0560
     55 H20         5.0113   21.4863    7.3387 H         1 EEF         0.0609
     56 H21         3.5061   22.1704    8.8119 H         1 EEF         0.0615
     57 H22         1.3747   21.6148    9.9449 H         1 EEF         0.0615
     58 H23        -0.7530   22.5474    6.2822 H         1 EEF         0.0615
     59 H24         1.4253   23.1076    5.1248 H         1 EEF         0.0615
     60 H25        -0.7690   21.7779    8.6654 H         1 EEF         0.0610
     61 H26         3.0693   24.5584    4.8757 H         1 EEF         0.0609
     62 H27         5.2626   25.0780    3.7648 H         1 EEF         0.0560
@<TRIPOS>BOND
     1    1    4 1  
     2   20    1 1  
     3    4    2 am 
     4    2    7 1  
     5   15    3 2  
     6    4    6 2  
     7   15    5 am 
     8    5   16 1  
     9    7    9 1  
    10    7   15 1  
    11   19    8 am 
    12    9   10 1  
    13   10   14 1  
    14   19   11 2  
    15   14   12 ar 
    16   14   13 ar 
    17   16   17 1  
    18   16   19 1  
    19   17   18 1  
    20   18   33 1  
    21   24   20 1  
    22   21   22 ar 
    23   21   24 ar 
    24   22   23 ar 
    25   23   25 1  
    26   23   31 ar 
    27   24   32 ar 
    28   25   26 ar 
    29   25   29 ar 
    30   26   27 ar 
    31   27   30 ar 
    32   29   28 ar 
    33   28   30 ar 
    34   31   32 ar 
    35   33   34 ar 
    36   33   35 ar 
    37    1   36 1  
    38    1   37 1  
    39    2   38 1  
    40    5   39 1  
    41    7   40 1  
    42    8   41 1  
    43    8   42 1  
    44    9   43 1  
    45    9   44 1  
    46   10   45 1  
    47   10   46 1  
    48   16   47 1  
    49   17   48 1  
    50   17   49 1  
    51   18   50 1  
    52   18   51 1  
    53   20   52 1  
    54   20   53 1  
    55   21   54 1  
    56   22   55 1  
    57   26   56 1  
    58   27   57 1  
    59   28   58 1  
    60   29   59 1  
    61   30   60 1  
    62   31   61 1  
    63   32   62 1  
@<TRIPOS>SUBSTRUCTURE
     1 EEF         1

