### 
### Created by X-TOOL on Mon Sep 10 21:13:04 2018
### 

@<TRIPOS>MOLECULE
3ljj_ligand
   58    60     1     0     0
SMALL
GAST_HUCK


@<TRIPOS>ATOM
      1 N1         17.2950   -9.2790   12.5180 N.am      1 10U        -0.2474
      2 C14        18.1970   -9.4790   11.5250 C.2       1 10U         0.2262
      3 O32        18.3640   -8.5910   10.6860 O.2       1 10U        -0.3908
      4 C15        19.4270  -10.3590   11.7460 C.3       1 10U         0.0567
      5 C5         17.3000   -9.9670   13.8220 C.3       1 10U         0.0371
      6 C4         15.8740   -9.7790   14.3670 C.3       1 10U        -0.0281
      7 C3         15.4830   -8.3680   13.8780 C.3       1 10U        -0.0104
      8 C2         16.2910   -8.2150   12.5730 C.3       1 10U         0.1339
      9 C7         16.8870   -6.8400   12.4850 C.2       1 10U         0.2037
     10 N23        16.1390   -5.9220   11.8180 N.am      1 10U        -0.2737
     11 C24        16.4880   -4.5290   11.7010 C.3       1 10U         0.0645
     12 C25        17.2600   -4.2410   10.4520 C.ar      1 10U        -0.0210
     13 C30        16.7620   -3.2870    9.5850 C.ar      1 10U        -0.0584
     14 C29        17.3700   -3.0840    8.3550 C.ar      1 10U        -0.0633
     15 C28        18.4800   -3.8480    8.0090 C.ar      1 10U         0.0188
     16 C31        19.1110   -3.5550    6.7030 C.cat     1 10U         0.2318
     17 N49        20.5140   -3.9190    6.4700 N.pl3     1 10U        -0.2729
     18 N48        18.4120   -3.0990    5.6580 N.pl3     1 10U        -0.2729
     19 C27        18.9880   -4.8130    8.8830 C.ar      1 10U        -0.0633
     20 C26        18.3690   -5.0050   10.1070 C.ar      1 10U        -0.0584
     21 O22        17.8280   -6.4870   13.1940 O.2       1 10U        -0.3944
     22 N16        20.3220  -10.3180   10.5710 N.4       1 10U         0.2461
     23 C17        20.2720  -11.5310    9.7800 C.3       1 10U        -0.0209
     24 C21        21.0290  -11.4640    8.4420 C.3       1 10U        -0.0097
     25 C20        21.2500  -12.9600    8.0610 C.3       1 10U        -0.0478
     26 C19        21.3560  -13.7090    9.4070 C.3       1 10U        -0.0478
     27 C18        20.8400  -12.7580   10.5100 C.3       1 10U        -0.0097
     28 H          19.0994  -11.3869   11.9017 H         1 10U         0.1062
     29 H          19.9715   -9.9889   12.6147 H         1 10U         0.1062
     30 H          18.0510   -9.5555   14.4964 H         1 10U         0.0524
     31 H          17.5632  -11.0203   13.7254 H         1 10U         0.0524
     32 H          15.8262   -9.8728   15.4519 H         1 10U         0.0287
     33 H          15.1874  -10.5483   14.0136 H         1 10U         0.0287
     34 H          15.7094   -7.5908   14.6079 H         1 10U         0.0313
     35 H          14.4095   -8.2570   13.7250 H         1 10U         0.0313
     36 H          15.6425   -8.3193   11.7031 H         1 10U         0.0802
     37 H          15.2776   -6.2387   11.3729 H         1 10U         0.1878
     38 H          17.1128   -4.2637   12.5539 H         1 10U         0.0683
     39 H          15.5649   -3.9502   11.6694 H         1 10U         0.0683
     40 H          15.8919   -2.6944    9.8676 H         1 10U         0.0557
     41 H          16.9820   -2.3334    7.6664 H         1 10U         0.0599
     42 H          21.0523   -4.3732    7.2078 H         1 10U         0.3180
     43 H          20.9505   -3.7177    5.5703 H         1 10U         0.3180
     44 H          17.4080   -2.9417    5.7455 H         1 10U         0.3180
     45 H          18.8829   -2.9086    4.7735 H         1 10U         0.3180
     46 H          19.8592   -5.4063    8.6052 H         1 10U         0.0599
     47 H          18.7513   -5.7549   10.7996 H         1 10U         0.0557
     48 H          21.2772  -10.2076   10.9112 H         1 10U         0.2035
     49 H          20.0198   -9.5462    9.9765 H         1 10U         0.2035
     50 H          19.2016  -11.6291    9.5991 H         1 10U         0.0851
     51 H          21.9669  -10.9148    8.5240 H         1 10U         0.0320
     52 H          20.4728  -10.9201    7.6785 H         1 10U         0.0320
     53 H          22.1465  -13.0925    7.4553 H         1 10U         0.0267
     54 H          20.4331  -13.3443    7.4502 H         1 10U         0.0267
     55 H          22.3892  -13.9953    9.6034 H         1 10U         0.0267
     56 H          20.7616  -14.6224    9.3827 H         1 10U         0.0267
     57 H          20.0783  -13.2405   11.1225 H         1 10U         0.0320
     58 H          21.6406  -12.4751   11.1934 H         1 10U         0.0320
@<TRIPOS>BOND
     1    1    2 am 
     2    1    5 1  
     3    1    8 1  
     4    2    3 2  
     5    2    4 1  
     6    4   22 1  
     7    5    6 1  
     8    6    7 1  
     9    7    8 1  
    10    8    9 1  
    11    9   10 am 
    12    9   21 2  
    13   10   11 1  
    14   11   12 1  
    15   12   13 ar 
    16   12   20 ar 
    17   13   14 ar 
    18   14   15 ar 
    19   15   16 1  
    20   15   19 ar 
    21   16   17 ar 
    22   16   18 ar 
    23   19   20 ar 
    24   22   23 1  
    25   23   24 1  
    26   23   27 1  
    27   24   25 1  
    28   25   26 1  
    29   26   27 1  
    30    4   28 1  
    31    4   29 1  
    32    5   30 1  
    33    5   31 1  
    34    6   32 1  
    35    6   33 1  
    36    7   34 1  
    37    7   35 1  
    38    8   36 1  
    39   10   37 1  
    40   11   38 1  
    41   11   39 1  
    42   13   40 1  
    43   14   41 1  
    44   17   42 1  
    45   17   43 1  
    46   18   44 1  
    47   18   45 1  
    48   19   46 1  
    49   20   47 1  
    50   22   48 1  
    51   22   49 1  
    52   23   50 1  
    53   24   51 1  
    54   24   52 1  
    55   25   53 1  
    56   25   54 1  
    57   26   55 1  
    58   26   56 1  
    59   27   57 1  
    60   27   58 1  
@<TRIPOS>SUBSTRUCTURE
     1 10U         1

