### 
### Created by X-TOOL on Mon Sep 10 21:13:03 2018
### 

@<TRIPOS>MOLECULE
3ljo_ligand
   61    63     1     0     0
SMALL
GAST_HUCK


@<TRIPOS>ATOM
      1 N1         17.3120   -9.0780   12.7690 N.am      1 11U        -0.2474
      2 C14        18.3490   -8.9850   11.9060 C.2       1 11U         0.2262
      3 O32        18.2340   -8.2620   10.9100 O.2       1 11U        -0.3908
      4 C15        19.5760   -9.8630   11.9100 C.3       1 11U         0.0567
      5 C5         17.3760   -9.8800   13.9810 C.3       1 11U         0.0371
      6 C4         15.8700   -9.9270   14.2840 C.3       1 11U        -0.0281
      7 C3         15.4760   -8.4460   14.0130 C.3       1 11U        -0.0104
      8 C2         16.1870   -8.1380   12.6570 C.3       1 11U         0.1339
      9 C7         16.7690   -6.7260   12.7250 C.2       1 11U         0.2037
     10 N23        16.1030   -5.8240   11.9620 N.am      1 11U        -0.2737
     11 C24        16.5030   -4.4240   11.9590 C.3       1 11U         0.0645
     12 C25        17.2220   -4.1930   10.6160 C.ar      1 11U        -0.0210
     13 C30        18.3820   -4.9110   10.3210 C.ar      1 11U        -0.0584
     14 C29        19.0390   -4.7540    9.0930 C.ar      1 11U        -0.0633
     15 C28        18.5010   -3.8550    8.1670 C.ar      1 11U         0.0188
     16 C31        19.2160   -3.6250    6.8370 C.cat     1 11U         0.2318
     17 N49        20.4200   -3.9930    6.5650 N.pl3     1 11U        -0.2729
     18 N48        18.3140   -3.1710    5.7580 N.pl3     1 11U        -0.2729
     19 C27        17.3390   -3.1340    8.4530 C.ar      1 11U        -0.0633
     20 C26        16.6880   -3.2950    9.6870 C.ar      1 11U        -0.0584
     21 O22        17.7320   -6.4780   13.4270 O.2       1 11U        -0.3944
     22 N5         20.7770   -9.0600   11.5460 N.4       1 11U         0.2461
     23 C16        22.0300   -9.8670   11.7230 C.3       1 11U        -0.0209
     24 C17        21.8580  -11.2140   10.9570 C.3       1 11U        -0.0097
     25 C18        23.1800  -11.9950   10.8180 C.3       1 11U        -0.0480
     26 C19        24.2580  -11.0530   10.1900 C.3       1 11U        -0.0527
     27 C20        24.5150   -9.8660   11.1710 C.3       1 11U        -0.0480
     28 C21        23.2460   -9.0010   11.3040 C.3       1 11U        -0.0097
     29 H1         19.4455  -10.6751   11.1796 H         1 11U         0.1062
     30 H2         19.7145  -10.2913   12.9137 H         1 11U         0.1062
     31 H3         17.9467   -9.3837   14.7797 H         1 11U         0.0524
     32 H4         17.7957  -10.8801   13.7975 H         1 11U         0.0524
     33 H5         15.6751  -10.2139   15.3279 H         1 11U         0.0287
     34 H6         15.3420  -10.6170   13.6094 H         1 11U         0.0287
     35 H7         15.8447   -7.7859   14.8119 H         1 11U         0.0313
     36 H8         14.3852   -8.3371   13.9215 H         1 11U         0.0313
     37 H9         15.5529   -8.2901   11.7711 H         1 11U         0.0802
     38 H10        15.3328   -6.1222   11.3982 H         1 11U         0.1878
     39 H11        17.1843   -4.2189   12.7979 H         1 11U         0.0683
     40 H12        15.6194   -3.7735   12.0367 H         1 11U         0.0683
     41 H13        18.7817   -5.6020   11.0544 H         1 11U         0.0557
     42 H14        19.9393   -5.3140    8.8673 H         1 11U         0.0599
     43 H15        20.8220   -3.7948    5.6377 H         1 11U         0.3180
     44 H16        20.9808   -4.4855    7.2748 H         1 11U         0.3180
     45 H17        17.3520   -2.8777    5.9803 H         1 11U         0.3180
     46 H18        18.6473   -3.1479    4.7837 H         1 11U         0.3180
     47 H19        16.9374   -2.4460    7.7179 H         1 11U         0.0599
     48 H20        15.7889   -2.7339    9.9147 H         1 11U         0.0557
     49 H21        20.8220   -8.2454   12.1380 H         1 11U         0.2035
     50 H22        20.7026   -8.7718   10.5830 H         1 11U         0.2035
     51 H23        22.1505  -10.1073   12.7896 H         1 11U         0.0851
     52 H24        21.4694  -10.9990    9.9507 H         1 11U         0.0320
     53 H25        21.1362  -11.8392   11.5030 H         1 11U         0.0320
     54 H26        23.0270  -12.8678   10.1663 H         1 11U         0.0267
     55 H27        23.5162  -12.3322   11.8096 H         1 11U         0.0267
     56 H28        23.8954  -10.6655    9.2265 H         1 11U         0.0265
     57 H29        25.1921  -11.6121   10.0323 H         1 11U         0.0265
     58 H30        25.3379   -9.2468   10.7845 H         1 11U         0.0267
     59 H31        24.7886  -10.2641   12.1593 H         1 11U         0.0267
     60 H32        23.4163   -8.2260   12.0658 H         1 11U         0.0320
     61 H33        23.0322   -8.5235   10.3364 H         1 11U         0.0320
@<TRIPOS>BOND
     1    1    2 am 
     2    1    5 1  
     3    1    8 1  
     4    2    3 2  
     5    2    4 1  
     6    4   22 1  
     7    5    6 1  
     8    6    7 1  
     9    7    8 1  
    10    8    9 1  
    11    9   10 am 
    12    9   21 2  
    13   10   11 1  
    14   11   12 1  
    15   12   13 ar 
    16   12   20 ar 
    17   13   14 ar 
    18   14   15 ar 
    19   15   16 1  
    20   15   19 ar 
    21   16   17 ar 
    22   16   18 ar 
    23   19   20 ar 
    24   22   23 1  
    25   23   24 1  
    26   23   28 1  
    27   24   25 1  
    28   25   26 1  
    29   26   27 1  
    30   27   28 1  
    31    4   29 1  
    32    4   30 1  
    33    5   31 1  
    34    5   32 1  
    35    6   33 1  
    36    6   34 1  
    37    7   35 1  
    38    7   36 1  
    39    8   37 1  
    40   10   38 1  
    41   11   39 1  
    42   11   40 1  
    43   13   41 1  
    44   14   42 1  
    45   17   43 1  
    46   17   44 1  
    47   18   45 1  
    48   18   46 1  
    49   19   47 1  
    50   20   48 1  
    51   22   49 1  
    52   22   50 1  
    53   23   51 1  
    54   24   52 1  
    55   24   53 1  
    56   25   54 1  
    57   25   55 1  
    58   26   56 1  
    59   26   57 1  
    60   27   58 1  
    61   27   59 1  
    62   28   60 1  
    63   28   61 1  
@<TRIPOS>SUBSTRUCTURE
     1 11U         1

