### 
### Created by X-TOOL on Mon Sep 10 21:13:07 2018
### 

@<TRIPOS>MOLECULE
3ljz_ligand
   61    65     1     0     0
SMALL
GAST_HUCK


@<TRIPOS>ATOM
      1 C1         74.1930   89.0030   45.7660 C.ar      1 LA3        -0.0628
      2 C2         72.4240   89.3650   47.8260 C.ar      1 LA3        -0.0604
      3 C3         73.5830   90.2300   45.9040 C.ar      1 LA3        -0.0336
      4 C4         73.9220   87.9700   46.6350 C.ar      1 LA3        -0.0604
      5 C5         73.0310   88.1380   47.6830 C.ar      1 LA3        -0.0408
      6 C6         72.6960   90.3930   46.9520 C.ar      1 LA3        -0.0628
      7 C7         73.8710   91.3110   44.9740 C.ar      1 LA3        -0.0412
      8 C8         72.6810   87.0450   48.6570 C.3       1 LA3         0.0025
      9 C9         74.5100   93.3180   43.1930 C.ar      1 LA3         0.1243
     10 C10        73.2750   92.5540   45.1010 C.ar      1 LA3        -0.0346
     11 C11        74.7780   91.1140   43.9420 C.ar      1 LA3        -0.0742
     12 C12        75.1140   92.1000   43.0320 C.ar      1 LA3        -0.0400
     13 C13        73.6130   93.5370   44.1970 C.ar      1 LA3         0.1238
     14 O14        73.1170   94.8180   44.1800 O.3       1 LA3        -0.2908
     15 O15        74.7100   94.4180   42.4010 O.3       1 LA3        -0.2901
     16 C16        73.8400   95.3670   43.0520 C.3       1 LA3         0.1872
     17 C17        73.7200   85.9510   48.8380 C.3       1 LA3         0.0749
     18 C18        74.6310   86.3160   49.9670 C.2       1 LA3         0.1853
     19 C19        73.0580   84.6560   49.2650 C.3       1 LA3         0.0604
     20 C20        72.3880   84.0500   48.0840 C.2       1 LA3         0.2015
     21 O21        72.9990   83.7440   47.0760 O.2       1 LA3        -0.3968
     22 N22        71.0360   83.8940   48.2760 N.am      1 LA3        -0.1641
     23 O23        70.3290   84.1230   47.0710 O.3       1 LA3        -0.2717
     24 O24        74.2270   86.4080   51.1190 O.2       1 LA3        -0.3963
     25 N25        75.9240   86.5230   49.5530 N.am      1 LA3        -0.2706
     26 C26        76.9970   86.4600   50.5300 C.3       1 LA3         0.1006
     27 C27        78.2800   85.8540   50.0690 C.ar      1 LA3        -0.0133
     28 C28        77.5030   87.8070   51.0090 C.3       1 LA3         0.0951
     29 O29        77.6770   88.6330   49.8770 O.3       1 LA3        -0.3857
     30 C30        78.9070   87.6000   51.5300 C.3       1 LA3         0.0085
     31 C31        80.8390   85.0520   49.5100 C.ar      1 LA3        -0.0755
     32 C32        78.4640   84.7930   49.2060 C.ar      1 LA3        -0.0646
     33 C33        79.3440   86.4980   50.6390 C.ar      1 LA3        -0.0361
     34 C34        80.6410   86.1170   50.3700 C.ar      1 LA3        -0.0667
     35 C35        79.7620   84.4010   48.9360 C.ar      1 LA3        -0.0754
     36 H1         74.8993   88.8477   44.9585 H         1 LA3         0.0595
     37 H2         71.7228   89.5238   48.6373 H         1 LA3         0.0556
     38 H3         74.4120   87.0129   46.4976 H         1 LA3         0.0556
     39 H4         72.2049   91.3497   47.0881 H         1 LA3         0.0595
     40 H5         71.7512   86.5708   48.3098 H         1 LA3         0.0455
     41 H6         72.5104   87.5117   49.6384 H         1 LA3         0.0455
     42 H7         72.5601   92.7490   45.8922 H         1 LA3         0.0506
     43 H8         75.2454   90.1408   43.8445 H         1 LA3         0.0501
     44 H9         75.8208   91.9173   42.2307 H         1 LA3         0.0514
     45 H10        74.4506   96.2097   43.4082 H         1 LA3         0.0974
     46 H11        73.1088   95.7298   42.3146 H         1 LA3         0.0974
     47 H12        74.2848   85.8112   47.9045 H         1 LA3         0.0586
     48 H13        72.3131   84.8618   50.0477 H         1 LA3         0.0531
     49 H14        73.8180   83.9631   49.6552 H         1 LA3         0.0531
     50 H15        70.6100   83.6518   49.1477 H         1 LA3         0.2216
     51 H16        69.3983   84.0104   47.2249 H         1 LA3         0.2490
     52 H17        76.1240   86.7145   48.5921 H         1 LA3         0.1880
     53 H18        76.6087   85.8853   51.3838 H         1 LA3         0.0732
     54 H19        76.8336   88.2539   51.7588 H         1 LA3         0.0659
     55 H20        77.9944   89.4846   50.1536 H         1 LA3         0.2103
     56 H21        78.9109   87.2975   52.5876 H         1 LA3         0.0439
     57 H22        79.5275   88.4994   51.4035 H         1 LA3         0.0439
     58 H23        81.8473   84.7246   49.2838 H         1 LA3         0.0541
     59 H24        77.6196   84.2843   48.7552 H         1 LA3         0.0538
     60 H25        81.4802   86.6361   50.8187 H         1 LA3         0.0537
     61 H26        79.9386   83.5696   48.2632 H         1 LA3         0.0541
@<TRIPOS>BOND
     1    1    3 ar 
     2    4    1 ar 
     3    5    2 ar 
     4    2    6 ar 
     5    6    3 ar 
     6    3    7 1  
     7    5    4 ar 
     8    8    5 1  
     9    7   10 ar 
    10    7   11 ar 
    11   17    8 1  
    12   12    9 ar 
    13   13    9 ar 
    14    9   15 1  
    15   10   13 ar 
    16   11   12 ar 
    17   13   14 1  
    18   14   16 1  
    19   15   16 1  
    20   18   17 1  
    21   17   19 1  
    22   18   24 2  
    23   25   18 am 
    24   19   20 1  
    25   20   21 2  
    26   20   22 am 
    27   22   23 1  
    28   26   25 1  
    29   27   26 1  
    30   26   28 1  
    31   32   27 ar 
    32   27   33 ar 
    33   28   29 1  
    34   30   28 1  
    35   33   30 1  
    36   31   34 ar 
    37   35   31 ar 
    38   32   35 ar 
    39   33   34 ar 
    40    1   36 1  
    41    2   37 1  
    42    4   38 1  
    43    6   39 1  
    44    8   40 1  
    45    8   41 1  
    46   10   42 1  
    47   11   43 1  
    48   12   44 1  
    49   16   45 1  
    50   16   46 1  
    51   17   47 1  
    52   19   48 1  
    53   19   49 1  
    54   22   50 1  
    55   23   51 1  
    56   25   52 1  
    57   26   53 1  
    58   28   54 1  
    59   29   55 1  
    60   30   56 1  
    61   30   57 1  
    62   31   58 1  
    63   32   59 1  
    64   34   60 1  
    65   35   61 1  
@<TRIPOS>SUBSTRUCTURE
     1 LA3         1

