### 
### Created by X-TOOL on Mon Sep 10 21:13:03 2018
### 

@<TRIPOS>MOLECULE
3lk1_ligand
   15    15     1     0     0
SMALL
GAST_HUCK


@<TRIPOS>ATOM
      1 SD        -14.4790    9.4680   -9.1930 S.3       1 JKE        -0.1152
      2 CG        -11.3500    9.6020   -9.4850 C.2       1 JKE         0.0594
      3 CZ        -12.0090   10.5540   -8.5370 C.ar      1 JKE         0.0219
      4 CD1       -14.0480   11.4490   -7.4460 C.ar      1 JKE        -0.0462
      5 OD1       -11.5380    9.7380  -10.7110 O.co2     1 JKE        -0.5629
      6 CD2       -11.8520   12.3420   -6.9300 C.ar      1 JKE        -0.0650
      7 OD2       -10.6300    8.6940   -9.0190 O.co2     1 JKE        -0.5629
      8 CE1       -13.4850   10.5490   -8.3440 C.ar      1 JKE         0.0270
      9 CE2       -11.2390   11.4600   -7.8160 C.ar      1 JKE        -0.0534
     10 CG1       -13.2340   12.3360   -6.7460 C.ar      1 JKE        -0.0651
     11 H1        -15.4400    9.6181   -8.9280 H         1 JKE         0.1233
     12 H2        -15.1208   11.4602   -7.2908 H         1 JKE         0.0572
     13 H3        -11.2439   13.0459   -6.3734 H         1 JKE         0.0566
     14 H4        -10.1627   11.4796   -7.9436 H         1 JKE         0.0633
     15 H5        -13.6820   13.0329   -6.0469 H         1 JKE         0.0621
@<TRIPOS>BOND
     1    8    1 1  
     2    3    2 1  
     3    2    5 ar 
     4    2    7 ar 
     5    3    8 ar 
     6    3    9 ar 
     7    8    4 ar 
     8    4   10 ar 
     9    9    6 ar 
    10    6   10 ar 
    11    1   11 1  
    12    4   12 1  
    13    6   13 1  
    14    9   14 1  
    15   10   15 1  
@<TRIPOS>SUBSTRUCTURE
     1 JKE         1

