### 
### Created by X-TOOL on Mon Sep 10 21:13:02 2018
### 

@<TRIPOS>MOLECULE
3lk8_ligand
   29    29     1     0     0
SMALL
GAST_HUCK


@<TRIPOS>ATOM
      1 O4          3.2440   -3.0610    4.0450 O.2       1 Z79        -0.3952
      2 C8          2.0610   -3.1300    4.3500 C.2       1 Z79         0.2175
      3 N2          1.5060   -2.3710    5.3080 N.am      1 Z79        -0.1629
      4 O5          2.3060   -1.5120    6.0440 O.3       1 Z79        -0.2717
      5 C7          1.1460   -4.1060    3.6320 C.3       1 Z79         0.1172
      6 N1          1.6810   -5.4480    3.6950 N.am      1 Z79        -0.2298
      7 S1          1.4570   -6.3220    5.0030 S.o2      1 Z79         0.0653
      8 O1          0.1810   -5.9000    5.5650 O.2       1 Z79        -0.1516
      9 O2          1.3840   -7.7240    4.6820 O.2       1 Z79        -0.1516
     10 C3          2.5680   -6.1780    6.1610 C.ar      1 Z79         0.0971
     11 C6          2.3120   -5.3360    7.2560 C.ar      1 Z79        -0.0441
     12 C5          3.2220   -5.2360    8.3110 C.ar      1 Z79        -0.0313
     13 C4          4.3940   -5.9730    8.2850 C.ar      1 Z79         0.0908
     14 O3          5.2670   -5.8580    9.3380 O.3       1 Z79        -0.3212
     15 C9          6.3280   -6.7880    9.5380 C.3       1 Z79         0.0594
     16 C2          4.6550   -6.8330    7.2040 C.ar      1 Z79        -0.0313
     17 C1          3.7430   -6.9330    6.1500 C.ar      1 Z79        -0.0441
     18 H1          0.5240   -2.4251    5.4888 H         1 Z79         0.2217
     19 H2          1.7714   -1.0479    6.6774 H         1 Z79         0.2490
     20 H3          1.0512   -3.8041    2.5785 H         1 Z79         0.0717
     21 H4          0.1549   -4.0896    4.1088 H         1 Z79         0.0717
     22 H5          2.1890   -5.8238    2.9199 H         1 Z79         0.1701
     23 H6          1.3964   -4.7564    7.2826 H         1 Z79         0.0608
     24 H7          3.0109   -4.5820    9.1493 H         1 Z79         0.0542
     25 H8          6.8986   -6.5059   10.4351 H         1 Z79         0.0577
     26 H9          6.9936   -6.7789    8.6623 H         1 Z79         0.0577
     27 H10         5.9109   -7.7971    9.6711 H         1 Z79         0.0577
     28 H11         5.5661   -7.4201    7.1880 H         1 Z79         0.0542
     29 H12         3.9484   -7.5995    5.3201 H         1 Z79         0.0608
@<TRIPOS>BOND
     1    1    2 2  
     2    2    3 am 
     3    2    5 1  
     4    3    4 1  
     5    5    6 1  
     6    6    7 am 
     7    7    8 2  
     8    7    9 2  
     9    7   10 1  
    10   10   11 ar 
    11   10   17 ar 
    12   11   12 ar 
    13   12   13 ar 
    14   13   14 1  
    15   13   16 ar 
    16   14   15 1  
    17   16   17 ar 
    18    3   18 1  
    19    4   19 1  
    20    5   20 1  
    21    5   21 1  
    22    6   22 1  
    23   11   23 1  
    24   12   24 1  
    25   15   25 1  
    26   15   26 1  
    27   15   27 1  
    28   16   28 1  
    29   17   29 1  
@<TRIPOS>SUBSTRUCTURE
     1 Z79         1

