### 
### Created by X-TOOL on Mon Sep 10 21:13:02 2018
### 

@<TRIPOS>MOLECULE
3lka_ligand
   21    21     1     0     0
SMALL
GAST_HUCK


@<TRIPOS>ATOM
      1 C1          2.5270   -5.5670    7.6560 C.ar      1 M4S        -0.0441
      2 N1          2.5500   -5.1900    4.1660 N.am      1 M4S        -0.2621
      3 O1          5.4310   -6.2350    9.7660 O.3       1 M4S        -0.3212
      4 S1          1.9130   -6.0750    5.1750 S.o2      1 M4S         0.0609
      5 C2          3.3880   -5.6130    8.7410 C.ar      1 M4S        -0.0313
      6 O2          1.8930   -7.4750    4.6600 O.2       1 M4S        -0.1519
      7 C3          4.6400   -6.2080    8.6440 C.ar      1 M4S         0.0908
      8 O3          0.5000   -5.6780    5.4410 O.2       1 M4S        -0.1519
      9 C4          5.0640   -6.7450    7.4250 C.ar      1 M4S        -0.0313
     10 C5          2.9190   -6.1190    6.4370 C.ar      1 M4S         0.0967
     11 C6          6.6490   -6.9730    9.7830 C.3       1 M4S         0.0594
     12 C7          4.1900   -6.7080    6.3270 C.ar      1 M4S        -0.0441
     13 H1          1.5521   -5.1035    7.7547 H         1 M4S         0.0608
     14 H2          3.4997   -5.3448    3.8936 H         1 M4S         0.1633
     15 H3          2.0291   -4.4395    3.7592 H         1 M4S         0.1633
     16 H4          3.0787   -5.1763    9.6837 H         1 M4S         0.0542
     17 H5          6.0511   -7.1826    7.3292 H         1 M4S         0.0542
     18 H6          7.1289   -6.8659   10.7670 H         1 M4S         0.0577
     19 H7          7.3221   -6.5877    9.0030 H         1 M4S         0.0577
     20 H8          6.4368   -8.0353    9.5923 H         1 M4S         0.0577
     21 H9          4.4997   -7.1394    5.3820 H         1 M4S         0.0608
@<TRIPOS>BOND
     1    5    1 ar 
     2    1   10 ar 
     3    4    2 am 
     4    7    3 1  
     5    3   11 1  
     6    4    6 2  
     7    4    8 2  
     8   10    4 1  
     9    5    7 ar 
    10    7    9 ar 
    11    9   12 ar 
    12   10   12 ar 
    13    1   13 1  
    14    2   14 1  
    15    2   15 1  
    16    5   16 1  
    17    9   17 1  
    18   11   18 1  
    19   11   19 1  
    20   11   20 1  
    21   12   21 1  
@<TRIPOS>SUBSTRUCTURE
     1 M4S         1

