### 
### Created by X-TOOL on Mon Sep 10 21:13:03 2018
### 

@<TRIPOS>MOLECULE
3lkh_ligand
   59    60     1     0     0
SMALL
GAST_HUCK


@<TRIPOS>ATOM
      1 C1         16.4070   40.8590   43.0120 C.3       1 LT6        -0.0652
      2 F1         16.1850   39.4260   47.3720 F         1 LT6        -0.1803
      3 N1         17.7750   42.0500   46.4370 N.am      1 LT6        -0.2780
      4 O1         23.1770   38.3140   47.2880 O.3       1 LT6        -0.3926
      5 C2         17.2000   42.1590   43.1670 C.3       1 LT6        -0.0541
      6 N2         22.0610   40.2610   45.5830 N.am      1 LT6        -0.2775
      7 O2         23.3410   39.3760   43.8620 O.2       1 LT6        -0.3941
      8 C3         16.7700   43.0050   44.3770 C.3       1 LT6        -0.0329
      9 O3         19.8850   39.7930   44.5250 O.3       1 LT6        -0.2931
     10 C4         16.5440   42.1410   45.6280 C.3       1 LT6         0.0327
     11 O4         19.5480   40.7860   47.2210 O.2       1 LT6        -0.3930
     12 C5         18.2250   43.2860   47.0900 C.3       1 LT6         0.0217
     13 C6         26.0430   43.0970   49.9230 C.ar      1 LT6        -0.0687
     14 C7         26.4630   42.7300   48.6460 C.ar      1 LT6        -0.0686
     15 C8         25.5150   42.4160   47.6780 C.ar      1 LT6        -0.0603
     16 C9         24.1380   42.4550   47.9700 C.ar      1 LT6        -0.0408
     17 C10        23.7300   42.8260   49.2550 C.ar      1 LT6        -0.0603
     18 C11        24.6750   43.1530   50.2240 C.ar      1 LT6        -0.0686
     19 C12        23.1130   42.1100   46.8930 C.3       1 LT6         0.0061
     20 C13        23.1750   40.6180   46.4620 C.3       1 LT6         0.0745
     21 C14        23.1420   39.6930   47.6870 C.3       1 LT6         0.0689
     22 C15        22.2430   39.6410   44.3500 C.2       1 LT6         0.2077
     23 C16        20.9070   39.3160   43.6690 C.3       1 LT6         0.1605
     24 C17        18.8050   39.0230   44.8880 C.ar      1 LT6         0.1143
     25 C18        18.3920   37.7960   44.3130 C.ar      1 LT6        -0.0306
     26 C19        17.2500   37.1240   44.8030 C.ar      1 LT6        -0.0679
     27 C20        16.4990   37.6840   45.8430 C.ar      1 LT6        -0.0332
     28 C21        16.9070   38.9050   46.3920 C.ar      1 LT6         0.1454
     29 C22        18.0500   39.5660   45.9310 C.ar      1 LT6         0.1118
     30 C23        18.4890   40.8450   46.5690 C.2       1 LT6         0.2007
     31 H1         16.7697   40.3113   42.1297 H         1 LT6         0.0230
     32 H2         15.3398   41.0934   42.8848 H         1 LT6         0.0230
     33 H3         16.5416   40.2381   43.9099 H         1 LT6         0.0230
     34 H4         22.4237   38.1246   46.7409 H         1 LT6         0.2095
     35 H5         17.0624   42.7604   42.2563 H         1 LT6         0.0263
     36 H6         18.2642   41.9051   43.2814 H         1 LT6         0.0263
     37 H7         21.1297   40.4713   45.8805 H         1 LT6         0.1857
     38 H8         15.8335   43.5271   44.1313 H         1 LT6         0.0285
     39 H9         17.5562   43.7437   44.5921 H         1 LT6         0.0285
     40 H10        15.7459   42.5911   46.2367 H         1 LT6         0.0521
     41 H11        16.2422   41.1299   45.3172 H         1 LT6         0.0521
     42 H12        19.1456   43.0864   47.6580 H         1 LT6         0.0485
     43 H13        17.4424   43.6449   47.7746 H         1 LT6         0.0485
     44 H14        18.4241   44.0525   46.3266 H         1 LT6         0.0485
     45 H15        26.7752   43.3395   50.6847 H         1 LT6         0.0559
     46 H16        27.5200   42.6896   48.4090 H         1 LT6         0.0599
     47 H17        25.8414   42.1367   46.6827 H         1 LT6         0.0557
     48 H18        22.6740   42.8592   49.4977 H         1 LT6         0.0557
     49 H19        24.3517   43.4519   51.2146 H         1 LT6         0.0599
     50 H20        23.3037   42.7392   46.0111 H         1 LT6         0.0449
     51 H21        22.1069   42.3218   47.2839 H         1 LT6         0.0449
     52 H22        24.1180   40.4559   45.9194 H         1 LT6         0.0601
     53 H23        24.0137   39.9063   48.3230 H         1 LT6         0.0582
     54 H24        22.2189   39.8804   48.2551 H         1 LT6         0.0582
     55 H25        20.8479   39.8182   42.6921 H         1 LT6         0.0863
     56 H26        20.8076   38.2294   43.5294 H         1 LT6         0.0863
     57 H27        18.9561   37.3698   43.4913 H         1 LT6         0.0521
     58 H28        16.9550   36.1736   44.3731 H         1 LT6         0.0615
     59 H29        15.6153   37.1799   46.2173 H         1 LT6         0.0523
@<TRIPOS>BOND
     1    5    1 1  
     2   28    2 1  
     3    3   10 1  
     4    3   12 1  
     5   30    3 am 
     6   21    4 1  
     7    8    5 1  
     8    6   20 1  
     9   22    6 am 
    10   22    7 2  
    11   10    8 1  
    12    9   23 1  
    13   24    9 1  
    14   30   11 2  
    15   14   13 ar 
    16   18   13 ar 
    17   15   14 ar 
    18   16   15 ar 
    19   16   17 ar 
    20   19   16 1  
    21   17   18 ar 
    22   20   19 1  
    23   20   21 1  
    24   23   22 1  
    25   24   25 ar 
    26   29   24 ar 
    27   25   26 ar 
    28   27   26 ar 
    29   28   27 ar 
    30   29   28 ar 
    31   29   30 1  
    32    1   31 1  
    33    1   32 1  
    34    1   33 1  
    35    4   34 1  
    36    5   35 1  
    37    5   36 1  
    38    6   37 1  
    39    8   38 1  
    40    8   39 1  
    41   10   40 1  
    42   10   41 1  
    43   12   42 1  
    44   12   43 1  
    45   12   44 1  
    46   13   45 1  
    47   14   46 1  
    48   15   47 1  
    49   17   48 1  
    50   18   49 1  
    51   19   50 1  
    52   19   51 1  
    53   20   52 1  
    54   21   53 1  
    55   21   54 1  
    56   23   55 1  
    57   23   56 1  
    58   25   57 1  
    59   26   58 1  
    60   27   59 1  
@<TRIPOS>SUBSTRUCTURE
     1 LT6         1

