### 
### Created by X-TOOL on Mon Sep 10 21:13:04 2018
### 

@<TRIPOS>MOLECULE
3lkz_ligand
   51    53     1     0     0
SMALL
GAST_HUCK


@<TRIPOS>ATOM
      1 N          -2.1130    2.5730   -5.1940 N.4       1 SFG         0.2327
      2 CA         -2.3880    3.8800   -5.8150 C.3       1 SFG         0.0285
      3 C          -1.2350    4.2330   -6.7210 C.2       1 SFG         0.0844
      4 O          -0.2610    3.5330   -6.7710 O.co2     1 SFG        -0.5643
      5 OXT        -1.3150    5.3200   -7.4960 O.co2     1 SFG        -0.5643
      6 CB         -2.5560    4.9560   -4.7200 C.3       1 SFG         0.0075
      7 CG         -3.7800    4.6030   -3.8590 C.3       1 SFG        -0.0030
      8 CD         -4.0100    5.6520   -2.7610 C.3       1 SFG        -0.0216
      9 NE         -2.8500    5.6510   -1.8610 N.4       1 SFG         0.2208
     10 C5'        -5.2700    5.3080   -1.9440 C.3       1 SFG         0.0191
     11 C4'        -6.5350    5.5520   -2.8030 C.3       1 SFG         0.0957
     12 O4'        -7.6760    4.8580   -2.2710 O.3       1 SFG        -0.3389
     13 C3'        -6.9130    7.0470   -2.8900 C.3       1 SFG         0.1126
     14 O3'        -6.7840    7.5370   -4.2250 O.3       1 SFG        -0.3865
     15 C2'        -8.3680    7.1070   -2.3880 C.3       1 SFG         0.1384
     16 O2'        -9.1300    8.0560   -3.1350 O.3       1 SFG        -0.3836
     17 C1'        -8.8490    5.6580   -2.5870 C.3       1 SFG         0.2009
     18 N9         -9.9540    5.2970   -1.6780 N.pl3     1 SFG        -0.1919
     19 C8        -10.1150    5.6600   -0.3590 C.2       1 SFG         0.1123
     20 N7        -11.2060    5.1430    0.1200 N.2       1 SFG        -0.2958
     21 C5        -11.8230    4.4220   -0.8440 C.ar      1 SFG         0.1045
     22 C6        -13.0050    3.6390   -0.9210 C.ar      1 SFG         0.1298
     23 N6        -13.8300    3.4980    0.1760 N.pl3     1 SFG        -0.3152
     24 N1        -13.3130    3.0360   -2.0930 N.ar      1 SFG        -0.2698
     25 C2        -12.5290    3.1500   -3.1680 C.ar      1 SFG         0.0533
     26 N3        -11.4100    3.8700   -3.1370 N.ar      1 SFG        -0.2714
     27 C4        -11.0200    4.5070   -2.0130 C.ar      1 SFG         0.1613
     28 H1         -2.8762    2.3233   -4.5847 H         1 SFG         0.2010
     29 H2         -1.2603    2.6278   -4.6593 H         1 SFG         0.2010
     30 H3         -2.0144    1.8734   -5.9130 H         1 SFG         0.2010
     31 H4         -3.3133    3.8187   -6.4066 H         1 SFG         0.1024
     32 H5         -2.7056    5.9398   -5.1888 H         1 SFG         0.0340
     33 H6         -1.6559    4.9839   -4.0884 H         1 SFG         0.0340
     34 H7         -3.6168    3.6220   -3.3890 H         1 SFG         0.0323
     35 H8         -4.6704    4.5573   -4.5033 H         1 SFG         0.0323
     36 H9         -4.1281    6.6451   -3.2190 H         1 SFG         0.0851
     37 H10        -2.9879    6.3360   -1.1345 H         1 SFG         0.1997
     38 H11        -2.0188    5.8785   -2.3839 H         1 SFG         0.1997
     39 H12        -2.7469    4.7379   -1.4467 H         1 SFG         0.1997
     40 H13        -5.3090    5.9444   -1.0476 H         1 SFG         0.0346
     41 H14        -5.2321    4.2510   -1.6419 H         1 SFG         0.0346
     42 H15        -6.3312    5.1793   -3.8177 H         1 SFG         0.0626
     43 H16        -6.2629    7.6420   -2.2318 H         1 SFG         0.0647
     44 H17        -7.0223    8.4564   -4.2481 H         1 SFG         0.2100
     45 H18        -8.4047    7.3818   -1.3235 H         1 SFG         0.0676
     46 H19        -9.1340    7.8062   -4.0516 H         1 SFG         0.2101
     47 H20        -9.1677    5.4986   -3.6277 H         1 SFG         0.0996
     48 H21        -9.4263    6.2901    0.2018 H         1 SFG         0.1349
     49 H22       -14.6847    2.9273    0.1076 H         1 SFG         0.1820
     50 H23       -13.5911    3.9634    1.0633 H         1 SFG         0.1820
     51 H24       -12.8099    2.6454   -4.0854 H         1 SFG         0.0996
@<TRIPOS>BOND
     1    1    2 1  
     2    2    3 1  
     3    2    6 1  
     4    3    4 ar 
     5    3    5 ar 
     6    6    7 1  
     7    7    8 1  
     8    8    9 1  
     9    8   10 1  
    10   10   11 1  
    11   11   12 1  
    12   11   13 1  
    13   12   17 1  
    14   13   14 1  
    15   13   15 1  
    16   15   16 1  
    17   15   17 1  
    18   17   18 1  
    19   18   19 1  
    20   18   27 1  
    21   19   20 2  
    22   20   21 1  
    23   21   22 ar 
    24   21   27 ar 
    25   22   23 1  
    26   22   24 ar 
    27   24   25 ar 
    28   25   26 ar 
    29   26   27 ar 
    30    1   28 1  
    31    1   29 1  
    32    1   30 1  
    33    2   31 1  
    34    6   32 1  
    35    6   33 1  
    36    7   34 1  
    37    7   35 1  
    38    8   36 1  
    39    9   37 1  
    40    9   38 1  
    41    9   39 1  
    42   10   40 1  
    43   10   41 1  
    44   11   42 1  
    45   13   43 1  
    46   14   44 1  
    47   15   45 1  
    48   16   46 1  
    49   17   47 1  
    50   19   48 1  
    51   23   49 1  
    52   23   50 1  
    53   25   51 1  
@<TRIPOS>SUBSTRUCTURE
     1 SFG         1

