### 
### Created by X-TOOL on Mon Sep 10 21:13:03 2018
### 

@<TRIPOS>MOLECULE
3lle_ligand
   40    45     1     0     0
SMALL
GAST_HUCK


@<TRIPOS>ATOM
      1 NAA        -3.4990   -0.7810  -28.9060 N.pl3     1 SGE        -0.3002
      2 CAB        -4.4790    1.4430  -28.2670 C.ar      1 SGE         0.0041
      3 CAC        -2.2620   -0.4160  -28.1940 C.ar      1 SGE         0.0523
      4 CAD        -2.1880    0.9010  -27.4630 C.ar      1 SGE        -0.0182
      5 CAE        -1.3110   -1.4800  -27.9340 C.ar      1 SGE        -0.0099
      6 CAF        -3.2370    1.9580  -27.6840 C.ar      1 SGE        -0.0437
      7 CAG        -4.5870   -0.0630  -28.1890 C.3       1 SGE         0.0571
      8 CAH        -5.6360    2.3120  -28.3970 C.ar      1 SGE         0.1245
      9 CAI        -1.4990   -2.6950  -28.6660 C.ar      1 SGE        -0.0317
     10 CAJ        -0.1740   -1.1850  -27.0620 C.ar      1 SGE        -0.0470
     11 CAK        -0.4780   -3.6530  -28.3460 C.ar      1 SGE         0.1261
     12 CAL         0.7020   -3.2930  -27.6120 C.ar      1 SGE         0.1261
     13 CAM        -1.0680    1.0880  -26.6590 C.ar      1 SGE        -0.0793
     14 CAN         0.8700   -2.1060  -26.8940 C.ar      1 SGE        -0.0365
     15 CAO        -3.1130    3.3610  -27.4950 C.ar      1 SGE        -0.0839
     16 CAP        -5.4290    3.7370  -28.1830 C.ar      1 SGE         0.1153
     17 OAQ        -6.9570    2.1430  -28.8260 O.3       1 SGE        -0.2960
     18 OAR        -0.3090   -4.9070  -28.9720 O.3       1 SGE        -0.2890
     19 OAS         1.4730   -4.4160  -27.5690 O.3       1 SGE        -0.2871
     20 OAT        -6.6230    4.3420  -28.4900 O.3       1 SGE        -0.2940
     21 CAU        -7.6730    3.3890  -28.7640 C.3       1 SGE         0.1847
     22 CAV         0.9720   -5.4320  -28.5070 C.3       1 SGE         0.1887
     23 CAW        -0.0980    0.0890  -26.4900 C.ar      1 SGE        -0.0814
     24 CAX        -4.2280    4.2250  -27.7390 C.ar      1 SGE        -0.0493
     25 CAY        -3.4160   -0.3630  -30.3500 C.3       1 SGE         0.0190
     26 H          -4.5205   -0.3396  -27.1368 H         1 SGE         0.0655
     27 H          -5.5285   -0.3462  -28.6597 H         1 SGE         0.0655
     28 H          -2.3099   -2.8703  -29.3730 H         1 SGE         0.0493
     29 H          -0.9404    2.0404  -26.1445 H         1 SGE         0.0526
     30 H           1.7354   -1.9132  -26.2599 H         1 SGE         0.0462
     31 H          -2.1639    3.7815  -27.1625 H         1 SGE         0.0460
     32 H          -8.4590    3.3919  -28.0088 H         1 SGE         0.0969
     33 H          -8.2221    3.6111  -29.6790 H         1 SGE         0.0969
     34 H           1.6651   -5.6021  -29.3308 H         1 SGE         0.0977
     35 H           0.8637   -6.4067  -28.0313 H         1 SGE         0.0977
     36 H           0.7706    0.3204  -25.8734 H         1 SGE         0.0437
     37 H          -4.1191    5.2959  -27.5676 H         1 SGE         0.0456
     38 H          -4.3607   -0.5854  -30.8462 H         1 SGE         0.0485
     39 H          -3.2177    0.7073  -30.4063 H         1 SGE         0.0485
     40 H          -2.6097   -0.9094  -30.8393 H         1 SGE         0.0485
@<TRIPOS>BOND
     1    1    3 1  
     2    7    1 1  
     3    1   25 1  
     4    2    6 ar 
     5    2    7 1  
     6    2    8 ar 
     7    3    4 ar 
     8    3    5 ar 
     9    4    6 1  
    10    4   13 ar 
    11    5    9 ar 
    12    5   10 ar 
    13    6   15 ar 
    14    8   16 ar 
    15    8   17 1  
    16    9   11 ar 
    17   10   14 ar 
    18   10   23 ar 
    19   11   12 ar 
    20   11   18 1  
    21   12   14 ar 
    22   12   19 1  
    23   13   23 ar 
    24   15   24 ar 
    25   16   20 1  
    26   16   24 ar 
    27   17   21 1  
    28   18   22 1  
    29   19   22 1  
    30   20   21 1  
    31    7   26 1  
    32    7   27 1  
    33    9   28 1  
    34   13   29 1  
    35   14   30 1  
    36   15   31 1  
    37   21   32 1  
    38   21   33 1  
    39   22   34 1  
    40   22   35 1  
    41   23   36 1  
    42   24   37 1  
    43   25   38 1  
    44   25   39 1  
    45   25   40 1  
@<TRIPOS>SUBSTRUCTURE
     1 SGE         1

