### 
### Created by X-TOOL on Mon Sep 10 21:13:04 2018
### 

@<TRIPOS>MOLECULE
3lm1_ligand
   42    43     1     0     0
SMALL
GAST_HUCK


@<TRIPOS>ATOM
      1 C8         30.2490  127.3070   16.2510 C.3       1 LEC         0.0257
      2 C7         29.6740  128.7160   16.3010 C.2       1 LEC         0.1734
      3 O7         30.4320  129.6900   16.1530 O.2       1 LEC        -0.3974
      4 N2         28.3540  128.8840   16.5050 N.am      1 LEC        -0.2762
      5 C2         27.7340  130.2050   16.5670 C.3       1 LEC         0.1256
      6 C3         27.3480  130.5900   18.0240 C.3       1 LEC         0.1115
      7 O3         28.5150  130.5730   18.8630 O.3       1 LEC        -0.3867
      8 C4         26.7010  131.9900   18.0300 C.3       1 LEC         0.1117
      9 O4         27.6740  132.9150   17.5380 O.3       1 LEC        -0.3865
     10 C5         25.4420  131.9770   17.1150 C.3       1 LEC         0.1134
     11 C6         24.7440  133.3600   17.0830 C.3       1 LEC         0.0730
     12 O6         25.4210  134.2650   16.2240 O.3       1 LEC        -0.3924
     13 O5         25.8210  131.5710   15.7490 O.3       1 LEC        -0.3369
     14 C1         26.4800  130.2440   15.6770 C.3       1 LEC         0.2080
     15 O1         25.5480  129.2440   16.0880 O.3       1 LEC        -0.2808
     16 C1'        24.3400  128.7960   15.4740 C.ar      1 LEC         0.1016
     17 C2'        24.2290  127.4540   15.0140 C.ar      1 LEC        -0.0239
     18 C3'        23.0300  127.0180   14.4040 C.ar      1 LEC        -0.0271
     19 C4'        21.9210  127.9180   14.2500 C.ar      1 LEC         0.1882
     20 N1'        20.7350  127.4870   13.6420 N.2       1 LEC         0.3062
     21 O2'        19.7640  128.2750   13.5030 O.2       1 LEC         0.1732
     22 O1'        20.6340  126.3150   13.2240 O.2       1 LEC         0.1732
     23 C5'        22.0350  129.2560   14.7120 C.ar      1 LEC        -0.0271
     24 C6'        23.2390  129.6970   15.3230 C.ar      1 LEC        -0.0239
     25 H          30.7160  127.1408   15.2802 H         1 LEC         0.0467
     26 H          30.9938  127.1918   17.0384 H         1 LEC         0.0467
     27 H          29.4473  126.5834   16.3986 H         1 LEC         0.0467
     28 H          27.7655  128.0589   16.6204 H         1 LEC         0.1857
     29 H          28.4653  130.9280   16.2058 H         1 LEC         0.0638
     30 H          26.6327  129.8658   18.4138 H         1 LEC         0.0645
     31 H          28.8976  129.6925   18.8593 H         1 LEC         0.2100
     32 H          26.3888  132.2787   19.0337 H         1 LEC         0.0647
     33 H          27.2987  133.7985   17.5301 H         1 LEC         0.2100
     34 H          24.7345  131.2579   17.5278 H         1 LEC         0.0647
     35 H          24.7489  133.7725   18.0919 H         1 LEC         0.0584
     36 H          23.7283  133.2255   16.7111 H         1 LEC         0.0584
     37 H          26.3216  134.3858   16.5340 H         1 LEC         0.2095
     38 H          26.7961  130.0549   14.6511 H         1 LEC         0.0993
     39 H          25.0651  126.7646   15.1314 H         1 LEC         0.0561
     40 H          22.9467  125.9912   14.0479 H         1 LEC         0.0666
     41 H          21.1981  129.9449   14.5977 H         1 LEC         0.0666
     42 H          23.3243  130.7242   15.6776 H         1 LEC         0.0561
@<TRIPOS>BOND
     1    1    2 1  
     2    2    3 2  
     3    2    4 am 
     4    4    5 1  
     5    5    6 1  
     6    5   14 1  
     7    6    7 1  
     8    6    8 1  
     9    8    9 1  
    10    8   10 1  
    11   10   11 1  
    12   10   13 1  
    13   11   12 1  
    14   13   14 1  
    15   14   15 1  
    16   15   16 1  
    17   16   17 ar 
    18   16   24 ar 
    19   17   18 ar 
    20   18   19 ar 
    21   19   20 1  
    22   19   23 ar 
    23   20   21 2  
    24   20   22 2  
    25   23   24 ar 
    26    1   25 1  
    27    1   26 1  
    28    1   27 1  
    29    4   28 1  
    30    5   29 1  
    31    6   30 1  
    32    7   31 1  
    33    8   32 1  
    34    9   33 1  
    35   10   34 1  
    36   11   35 1  
    37   11   36 1  
    38   12   37 1  
    39   14   38 1  
    40   17   39 1  
    41   18   40 1  
    42   23   41 1  
    43   24   42 1  
@<TRIPOS>SUBSTRUCTURE
     1 LEC         1

