### 
### Created by X-TOOL on Mon Sep 10 21:13:04 2018
### 

@<TRIPOS>MOLECULE
3lmp_ligand
   59    63     1     0     0
SMALL
GAST_HUCK


@<TRIPOS>ATOM
      1 C1         15.2380   51.2990   66.9070 C.3       1 CEK         0.0097
      2 C2         16.1160   51.2530   65.6560 C.2       1 CEK         0.1356
      3 O3         17.2390   51.7540   65.6560 O.2       1 CEK        -0.3829
      4 C4         15.5580   50.5930   64.4030 C.2       1 CEK         0.1144
      5 C5         14.6580   49.3320   64.5750 C.2       1 CEK         0.1009
      6 C6         14.6510   48.3690   63.3260 C.3       1 CEK         0.0193
      7 C7         14.7470   49.2040   62.0370 C.2       1 CEK         0.0784
      8 C8         15.2970   50.4520   62.0030 C.2       1 CEK         0.0476
      9 C9         15.8010   51.0400   63.1300 C.2       1 CEK         0.1602
     10 O10        14.2220   48.5820   60.9340 O.3       1 CEK        -0.2538
     11 C11        13.2080   47.8180   61.5070 C.ar      1 CEK         0.1375
     12 C12        13.3760   47.6470   62.8830 C.ar      1 CEK        -0.0237
     13 C13        12.1030   47.2470   60.8360 C.ar      1 CEK         0.1225
     14 C14        11.1650   46.4950   61.5950 C.ar      1 CEK         0.1211
     15 C15        11.3580   46.3380   62.9860 C.ar      1 CEK         0.0141
     16 C16        12.4550   46.9100   63.6240 C.ar      1 CEK         0.0922
     17 C17        15.8420   47.3840   63.4340 C.3       1 CEK        -0.1142
     18 O18        14.0110   49.0930   65.5930 O.2       1 CEK        -0.3389
     19 O19        16.5890   52.1440   62.9430 O.3       1 CEK        -0.3083
     20 O20        12.6070   46.7340   64.9740 O.3       1 CEK        -0.3190
     21 O21        10.0770   45.9370   60.9140 O.3       1 CEK        -0.3058
     22 C22         9.1190   45.0120   61.4890 C.3       1 CEK         0.0663
     23 C23        11.9920   47.4800   59.3280 C.2       1 CEK         0.1953
     24 O24        12.9970   47.7110   58.6580 O.2       1 CEK        -0.3994
     25 N25        10.8290   47.4120   58.6520 N.am      1 CEK        -0.2783
     26 C26        10.4680   48.2180   57.4680 C.3       1 CEK         0.0655
     27 C27         8.9520   48.5290   57.3970 C.ar      1 CEK        -0.0105
     28 C28         7.9170   47.5620   57.5500 C.ar      1 CEK        -0.0102
     29 C29         6.5400   47.9910   57.4640 C.ar      1 CEK        -0.0242
     30 C30         6.2490   49.3350   57.2340 C.ar      1 CEK        -0.0631
     31 C31         7.2760   50.2650   57.0870 C.ar      1 CEK        -0.0706
     32 C32         8.6080   49.8690   57.1680 C.ar      1 CEK        -0.0588
     33 C33         5.5070   47.0510   57.6130 C.ar      1 CEK        -0.0569
     34 C34         5.8090   45.7110   57.8430 C.ar      1 CEK        -0.0629
     35 C35         7.1330   45.2880   57.9270 C.ar      1 CEK        -0.0625
     36 C36         8.1760   46.2010   57.7840 C.ar      1 CEK        -0.0547
     37 H          15.7462   50.7884   67.7250 H         1 CEK         0.0444
     38 H          15.0551   52.3375   67.1830 H         1 CEK         0.0444
     39 H          14.2890   50.8038   66.7017 H         1 CEK         0.0444
     40 H          15.3355   50.9921   61.0570 H         1 CEK         0.1057
     41 H          10.6383   45.7614   63.5671 H         1 CEK         0.0463
     42 H          15.8336   46.7104   62.5771 H         1 CEK         0.0000
     43 H          16.7762   47.9455   63.4473 H         1 CEK         0.0000
     44 H          15.7512   46.8055   64.3533 H         1 CEK         0.0000
     45 H          16.8856   52.4721   63.7951 H         1 CEK         0.2583
     46 H          13.4031   47.1836   65.2665 H         1 CEK         0.2595
     47 H           9.6393   44.1164   61.8284 H         1 CEK         0.0593
     48 H           8.6202   45.4863   62.3342 H         1 CEK         0.0593
     49 H           8.3801   44.7407   60.7349 H         1 CEK         0.0593
     50 H          10.1353   46.7439   58.9878 H         1 CEK         0.1863
     51 H          10.7345   47.6458   56.5794 H         1 CEK         0.0694
     52 H          11.0017   49.1662   57.5329 H         1 CEK         0.0694
     53 H           5.2108   49.6604   57.1687 H         1 CEK         0.0542
     54 H           7.0341   51.3125   56.9069 H         1 CEK         0.0595
     55 H           9.3964   50.6126   57.0515 H         1 CEK         0.0530
     56 H           4.4670   47.3709   57.5485 H         1 CEK         0.0609
     57 H           5.0021   44.9873   57.9582 H         1 CEK         0.0616
     58 H           7.3550   44.2359   58.1058 H         1 CEK         0.0601
     59 H           9.2070   45.8545   57.8547 H         1 CEK         0.0628
@<TRIPOS>BOND
     1    1    2 1  
     2    2    3 2  
     3    2    4 1  
     4    4    5 1  
     5    4    9 2  
     6    5    6 1  
     7    5   18 2  
     8    6    7 1  
     9    6   12 1  
    10    6   17 1  
    11    7    8 2  
    12    7   10 1  
    13    8    9 1  
    14    9   19 1  
    15   10   11 1  
    16   11   12 ar 
    17   11   13 ar 
    18   12   16 ar 
    19   13   14 ar 
    20   13   23 1  
    21   14   15 ar 
    22   14   21 1  
    23   15   16 ar 
    24   16   20 1  
    25   21   22 1  
    26   23   24 2  
    27   23   25 am 
    28   25   26 1  
    29   26   27 1  
    30   27   28 ar 
    31   27   32 ar 
    32   28   29 ar 
    33   28   36 ar 
    34   29   30 ar 
    35   29   33 ar 
    36   30   31 ar 
    37   31   32 ar 
    38   33   34 ar 
    39   34   35 ar 
    40   35   36 ar 
    41    1   37 1  
    42    1   38 1  
    43    1   39 1  
    44    8   40 1  
    45   15   41 1  
    46   17   42 1  
    47   17   43 1  
    48   17   44 1  
    49   19   45 1  
    50   20   46 1  
    51   22   47 1  
    52   22   48 1  
    53   22   49 1  
    54   25   50 1  
    55   26   51 1  
    56   26   52 1  
    57   30   53 1  
    58   31   54 1  
    59   32   55 1  
    60   33   56 1  
    61   34   57 1  
    62   35   58 1  
    63   36   59 1  
@<TRIPOS>SUBSTRUCTURE
     1 CEK         1

