### 
### Created by X-TOOL on Mon Sep 10 21:13:03 2018
### 

@<TRIPOS>MOLECULE
3lnk_ligand
   88    91     1     0     0
SMALL
GAST_HUCK


@<TRIPOS>ATOM
      1 C1         18.4900   13.3590   25.2480 C.2       1 74A         0.2078
      2 F1         26.8380   10.8410   18.9120 F         1 74A        -0.1863
      3 N1         18.9890   12.1110   25.4530 N.am      1 74A        -0.2618
      4 O1         18.7770   14.0810   24.2960 O.2       1 74A        -0.3845
      5 C2         26.8970   14.3080   23.5050 C.ar      1 74A         0.0490
      6 F2         22.9970   13.3960   18.3660 F         1 74A        -0.1863
      7 N2         23.5040   11.7310   23.2950 N.am      1 74A        -0.2784
      8 O2         29.0280   13.7420   24.1420 O.2       1 74A        -0.3844
      9 C3         28.2720   13.8600   23.1470 C.2       1 74A         0.2069
     10 N3         20.8220    9.9890   26.3000 N.4       1 74A         0.2339
     11 O3         22.2150   13.5840   23.2130 O.2       1 74A        -0.3846
     12 C4         23.3010   13.0360   23.3900 C.2       1 74A         0.2049
     13 N4         28.6280   13.5430   21.8730 N.am      1 74A        -0.2724
     14 O4         20.9410    8.9940   23.6350 O.3       1 74A        -0.3837
     15 C5         21.1780   10.8440   25.1400 C.3       1 74A         0.0270
     16 C6         22.4520   10.7620   22.9250 C.3       1 74A         0.0820
     17 C7         24.4740   13.8830   23.7000 C.ar      1 74A         0.0488
     18 C8         21.9070    9.9500   24.1180 C.3       1 74A         0.1239
     19 C9         19.9420   11.5450   24.4770 C.3       1 74A         0.0788
     20 C10        25.7670   13.4920   23.2220 C.ar      1 74A        -0.0289
     21 C11        23.6990   10.6490   20.6760 C.ar      1 74A        -0.0445
     22 C12        23.0310    9.8550   21.8090 C.3       1 74A         0.0048
     23 C13        26.7270   15.5280   24.2230 C.ar      1 74A        -0.0367
     24 C14        24.3090   15.1110   24.4430 C.ar      1 74A        -0.0367
     25 C15        17.5390   13.9210   26.2380 C.ar      1 74A         0.0500
     26 C16        24.9680   12.1010   18.5590 C.ar      1 74A        -0.0019
     27 C17        25.6270   11.0870   19.2590 C.ar      1 74A         0.1242
     28 C18        23.6460   12.4000   18.9710 C.ar      1 74A         0.1242
     29 C19        25.4670   15.9380   24.6970 C.ar      1 74A        -0.0353
     30 C20        25.0450   10.3560   20.3280 C.ar      1 74A        -0.0310
     31 C21        22.9880   11.6850   19.9960 C.ar      1 74A        -0.0310
     32 C22        18.6520   11.1650   26.5710 C.3       1 74A         0.0735
     33 C23        19.9690   10.6970   27.2830 C.3       1 74A        -0.0124
     34 C24        29.9450   12.9110   21.6220 C.3       1 74A         0.0331
     35 C25        27.7720   13.9130   20.6930 C.3       1 74A         0.0331
     36 C26        18.0740   14.6240   27.3720 C.ar      1 74A        -0.0419
     37 C27        16.1270   13.7510   26.0570 C.ar      1 74A        -0.0419
     38 C28        25.3310   17.2760   25.4790 C.3       1 74A        -0.0293
     39 C29        29.8600   11.4460   21.1230 C.3       1 74A        -0.0354
     40 C30        28.4620   14.9440   19.7640 C.3       1 74A        -0.0354
     41 C31        28.9420   10.5950   22.0150 C.3       1 74A        -0.0634
     42 C32        28.9060   16.2260   20.5150 C.3       1 74A        -0.0634
     43 C33        15.2220   14.2920   27.0130 C.ar      1 74A        -0.0562
     44 C34        17.1700   15.1640   28.3300 C.ar      1 74A        -0.0562
     45 C35        15.7550   14.9850   28.1420 C.ar      1 74A        -0.0575
     46 H          24.4399   11.3745   23.4883 H         1 74A         0.1851
     47 H          21.6862    9.7182   26.7694 H         1 74A         0.2019
     48 H          20.3005    9.1849   25.9510 H         1 74A         0.2019
     49 H          21.3586    8.4155   22.9926 H         1 74A         0.2102
     50 H          21.8145   11.6570   25.4892 H         1 74A         0.0897
     51 H          21.5791   11.3050   22.5627 H         1 74A         0.0606
     52 H          22.7598    9.4707   24.5988 H         1 74A         0.0676
     53 H          20.3195   12.3700   23.8728 H         1 74A         0.0579
     54 H          19.4087   10.7896   23.8999 H         1 74A         0.0579
     55 H          25.8839   12.5747   22.6450 H         1 74A         0.0665
     56 H          22.2041    9.2916   21.3767 H         1 74A         0.0448
     57 H          23.7911    9.2174   22.2604 H         1 74A         0.0448
     58 H          27.5956   16.1595   24.4096 H         1 74A         0.0642
     59 H          23.3258   15.4095   24.8067 H         1 74A         0.0642
     60 H          25.4467   12.6347   17.7379 H         1 74A         0.0532
     61 H          25.6122    9.5950   20.8641 H         1 74A         0.0508
     62 H          21.9575   11.9191   20.2631 H         1 74A         0.0508
     63 H          18.1326   10.2968   26.1654 H         1 74A         0.0575
     64 H          18.0118   11.6722   27.2928 H         1 74A         0.0575
     65 H          20.5019   11.5625   27.6768 H         1 74A         0.0834
     66 H          19.7237   10.0272   28.1072 H         1 74A         0.0834
     67 H          30.4820   12.8977   22.5705 H         1 74A         0.0522
     68 H          30.4363   13.4898   20.8399 H         1 74A         0.0522
     69 H          26.8525   14.3607   21.0701 H         1 74A         0.0522
     70 H          27.5859   13.0084   20.1141 H         1 74A         0.0522
     71 H          19.1506   14.7413   27.4959 H         1 74A         0.0669
     72 H          15.7479   13.2094   25.1904 H         1 74A         0.0669
     73 H          24.6525   17.9406   24.9441 H         1 74A         0.0391
     74 H          24.9351   17.0749   26.4745 H         1 74A         0.0391
     75 H          26.3104   17.7466   25.5644 H         1 74A         0.0391
     76 H          30.8609   11.0151   21.1496 H         1 74A         0.0282
     77 H          29.4503   11.4501   20.1129 H         1 74A         0.0282
     78 H          27.7435   15.2372   18.9985 H         1 74A         0.0282
     79 H          29.3536   14.4747   19.3482 H         1 74A         0.0282
     80 H          29.3304   10.5896   23.0334 H         1 74A         0.0230
     81 H          27.9379   11.0190   22.0100 H         1 74A         0.0230
     82 H          28.9090    9.5751   21.6319 H         1 74A         0.0230
     83 H          28.0336   16.7068   20.9576 H         1 74A         0.0230
     84 H          29.6129   15.9589   21.3006 H         1 74A         0.0230
     85 H          29.3825   16.9102   19.8129 H         1 74A         0.0230
     86 H          14.1453   14.1797   26.8861 H         1 74A         0.0629
     87 H          17.5460   15.7074   29.1969 H         1 74A         0.0629
     88 H          15.0682   15.3911   28.8846 H         1 74A         0.0653
@<TRIPOS>BOND
     1    3    1 am 
     2    1    4 2  
     3    1   25 1  
     4   27    2 1  
     5   19    3 1  
     6    3   32 1  
     7    5    9 1  
     8   20    5 ar 
     9    5   23 ar 
    10   28    6 1  
    11    7   12 am 
    12   16    7 1  
    13    9    8 2  
    14    9   13 am 
    15   15   10 1  
    16   10   33 1  
    17   12   11 2  
    18   12   17 1  
    19   13   34 1  
    20   13   35 1  
    21   18   14 1  
    22   18   15 1  
    23   15   19 1  
    24   16   18 1  
    25   22   16 1  
    26   17   20 ar 
    27   17   24 ar 
    28   21   22 1  
    29   30   21 ar 
    30   21   31 ar 
    31   29   23 ar 
    32   24   29 ar 
    33   25   36 ar 
    34   25   37 ar 
    35   27   26 ar 
    36   26   28 ar 
    37   27   30 ar 
    38   28   31 ar 
    39   29   38 1  
    40   32   33 1  
    41   34   39 1  
    42   35   40 1  
    43   36   44 ar 
    44   37   43 ar 
    45   39   41 1  
    46   40   42 1  
    47   43   45 ar 
    48   44   45 ar 
    49    7   46 1  
    50   10   47 1  
    51   10   48 1  
    52   14   49 1  
    53   15   50 1  
    54   16   51 1  
    55   18   52 1  
    56   19   53 1  
    57   19   54 1  
    58   20   55 1  
    59   22   56 1  
    60   22   57 1  
    61   23   58 1  
    62   24   59 1  
    63   26   60 1  
    64   30   61 1  
    65   31   62 1  
    66   32   63 1  
    67   32   64 1  
    68   33   65 1  
    69   33   66 1  
    70   34   67 1  
    71   34   68 1  
    72   35   69 1  
    73   35   70 1  
    74   36   71 1  
    75   37   72 1  
    76   38   73 1  
    77   38   74 1  
    78   38   75 1  
    79   39   76 1  
    80   39   77 1  
    81   40   78 1  
    82   40   79 1  
    83   41   80 1  
    84   41   81 1  
    85   41   82 1  
    86   42   83 1  
    87   42   84 1  
    88   42   85 1  
    89   43   86 1  
    90   44   87 1  
    91   45   88 1  
@<TRIPOS>SUBSTRUCTURE
     1 74A         1

