### 
### Created by X-TOOL on Mon Sep 10 21:13:04 2018
### 

@<TRIPOS>MOLECULE
3lok_ligand
   38    40     1     0     0
SMALL
GAST_HUCK


@<TRIPOS>ATOM
      1 C51         6.4360   -8.1200    1.7340 C.3       1 DJK        -0.0477
      2 C11         6.1430   -9.2600    0.7680 C.3       1 DJK         0.0405
      3 C10         6.2560   -8.7840   -0.6680 C.2       1 DJK         0.2039
      4 O61         5.3480   -8.1310   -1.1940 O.2       1 DJK        -0.3846
      5 N11         7.3680   -9.1660   -1.3340 N.am      1 DJK        -0.2321
      6 C9          8.1960   -8.5570   -2.2620 C.ar      1 DJK         0.0745
      7 C8          7.8030   -7.7350   -3.3350 C.ar      1 DJK        -0.0233
      8 C13         9.5580   -8.8760   -2.1310 C.ar      1 DJK        -0.0283
      9 C17        10.5300   -8.3840   -3.0090 C.ar      1 DJK        -0.0453
     10 C18        10.1530   -7.5440   -4.0600 C.ar      1 DJK         0.0351
     11 C7          8.7870   -7.2270   -4.2200 C.ar      1 DJK         0.0428
     12 C6          8.4670   -6.3810   -5.3000 C.ar      1 DJK         0.1549
     13 N3          9.4980   -5.9280   -6.1090 N.ar      1 DJK        -0.2575
     14 C19        10.7910   -6.2460   -5.9210 C.ar      1 DJK         0.0558
     15 N2         11.1160   -7.0470   -4.9030 N.ar      1 DJK        -0.3004
     16 N1          7.1390   -6.0340   -5.4910 N.pl3     1 DJK        -0.2472
     17 C5          6.6030   -5.2460   -6.4780 C.ar      1 DJK         0.0708
     18 C4          7.1360   -5.1990   -7.7810 C.ar      1 DJK        -0.0272
     19 C20         5.4770   -4.4800   -6.1900 C.ar      1 DJK        -0.0342
     20 C21         4.9090   -3.6760   -7.1810 C.ar      1 DJK        -0.0680
     21 C22         5.4490   -3.6320   -8.4790 C.ar      1 DJK        -0.0632
     22 C3          6.5770   -4.3980   -8.7810 C.ar      1 DJK         0.0042
     23 BR          7.3390   -4.3870  -10.5140 Br        1 DJK        -0.0528
     24 H           7.4469   -7.7504    1.5619 H         1 DJK         0.0254
     25 H           5.7205   -7.3141    1.5707 H         1 DJK         0.0254
     26 H           6.3497   -8.4823    2.7584 H         1 DJK         0.0254
     27 H           5.1289   -9.6195    0.9425 H         1 DJK         0.0505
     28 H           6.8662  -10.0585    0.9337 H         1 DJK         0.0505
     29 H           7.6633  -10.1142   -1.1013 H         1 DJK         0.2265
     30 H           6.7511   -7.4912   -3.4841 H         1 DJK         0.0508
     31 H           9.8685   -9.5301   -1.3163 H         1 DJK         0.0618
     32 H          11.5771   -8.6549   -2.8736 H         1 DJK         0.0616
     33 H          11.5604   -5.8568   -6.5878 H         1 DJK         0.1015
     34 H           6.4772   -6.4117   -4.8129 H         1 DJK         0.2216
     35 H           8.0106   -5.8054   -8.0166 H         1 DJK         0.0569
     36 H           5.0390   -4.5075   -5.1923 H         1 DJK         0.0566
     37 H           4.0326   -3.0726   -6.9445 H         1 DJK         0.0596
     38 H           4.9905   -3.0047   -9.2435 H         1 DJK         0.0550
@<TRIPOS>BOND
     1    1    2 1  
     2    2    3 1  
     3    3    4 2  
     4    3    5 am 
     5    5    6 1  
     6    6    7 ar 
     7    6    8 ar 
     8    7   11 ar 
     9    8    9 ar 
    10    9   10 ar 
    11   10   11 ar 
    12   10   15 ar 
    13   11   12 ar 
    14   12   13 ar 
    15   12   16 1  
    16   13   14 ar 
    17   14   15 ar 
    18   16   17 1  
    19   17   18 ar 
    20   17   19 ar 
    21   18   22 ar 
    22   19   20 ar 
    23   20   21 ar 
    24   21   22 ar 
    25   22   23 1  
    26    1   24 1  
    27    1   25 1  
    28    1   26 1  
    29    2   27 1  
    30    2   28 1  
    31    5   29 1  
    32    7   30 1  
    33    8   31 1  
    34    9   32 1  
    35   14   33 1  
    36   16   34 1  
    37   18   35 1  
    38   19   36 1  
    39   20   37 1  
    40   21   38 1  
@<TRIPOS>SUBSTRUCTURE
     1 DJK         1

