### 
### Created by X-TOOL on Mon Sep 10 21:13:06 2018
### 

@<TRIPOS>MOLECULE
3lox_ligand
   91    94     1     0     0
SMALL
GAST_HUCK


@<TRIPOS>ATOM
      1 C1        191.9840  -10.5550   48.6290 C.2       1 MCX         0.2601
      2 O2        192.5240  -11.6020   49.0190 O.2       1 MCX        -0.4007
      3 N3        190.6720  -10.3400   48.7070 N.am      1 MCX        -0.2673
      4 C4        189.7200  -11.3360   49.2460 C.3       1 MCX         0.0506
      5 C5        189.6260  -12.4860   48.2590 C.3       1 MCX        -0.0393
      6 C6        188.3070  -10.7100   49.3590 C.3       1 MCX        -0.0275
      7 C7        188.2710   -9.6810   50.4650 C.3       1 MCX        -0.0507
      8 C8        188.6440  -10.3270   51.7930 C.3       1 MCX        -0.0529
      9 C9        190.0380  -10.9510   51.7250 C.3       1 MCX        -0.0507
     10 C10       190.1240  -11.9670   50.6020 C.3       1 MCX        -0.0275
     11 N11       192.6760   -9.5580   48.0900 N.am      1 MCX        -0.2514
     12 C12       194.1320   -9.5360   48.1240 C.3       1 MCX         0.1363
     13 C13       194.7250   -8.9530   46.8050 C.3       1 MCX         0.0023
     14 C14       196.2520   -8.8660   46.9590 C.3       1 MCX        -0.0558
     15 C15       194.3760   -9.9340   45.6680 C.3       1 MCX        -0.0558
     16 C16       194.2150   -7.5510   46.3770 C.3       1 MCX        -0.0558
     17 C17       194.5750   -8.7350   49.3400 C.2       1 MCX         0.2067
     18 O18       194.2300   -7.5600   49.4730 O.2       1 MCX        -0.3942
     19 N19       195.2460   -9.3920   50.2980 N.am      1 MCX        -0.2492
     20 C20       195.5670  -10.8260   50.3820 C.3       1 MCX         0.0405
     21 C21       195.6990   -8.6650   51.4840 C.3       1 MCX         0.1372
     22 C22       196.2280   -9.6530   52.4360 C.3       1 MCX         0.0102
     23 C23       196.3550  -10.9060   51.6490 C.3       1 MCX        -0.0073
     24 C24       195.4980  -10.8660   52.9250 C.3       1 MCX        -0.0224
     25 C25       196.0510  -11.5240   54.1300 C.3       1 MCX        -0.0590
     26 C26       193.9830  -10.8780   52.8280 C.3       1 MCX        -0.0590
     27 C27       196.7210   -7.6350   51.0420 C.2       1 MCX         0.2026
     28 O28       197.7060   -7.9780   50.3890 O.2       1 MCX        -0.3945
     29 N29       196.4660   -6.3720   51.3730 N.am      1 MCX        -0.2772
     30 C30       197.3450   -5.2790   50.9840 C.3       1 MCX         0.0853
     31 C31       196.5500   -4.2430   50.1850 C.3       1 MCX        -0.0224
     32 C32       195.9650   -4.7170   48.8280 C.3       1 MCX        -0.0387
     33 C33       196.9240   -4.9110   47.6170 C.3       1 MCX        -0.0501
     34 C34       195.2030   -3.6510   48.0150 C.3       1 MCX        -0.0501
     35 C35       195.9710   -4.0650   46.7490 C.3       1 MCX        -0.0526
     36 O36       198.6090   -5.6530   53.0430 O.3       1 MCX        -0.3691
     37 C37       198.0920   -4.6080   52.1680 C.3       1 MCX         0.1660
     38 O38       199.0230   -2.5960   51.3360 O.2       1 MCX        -0.3943
     39 N39       200.4210   -4.3390   51.2580 N.am      1 MCX        -0.2987
     40 C40       199.2510   -3.7820   51.5480 C.2       1 MCX         0.2047
     41 H         190.3060   -9.4460   48.3795 H         1 MCX         0.1851
     42 H         190.5934  -12.9833   48.1893 H         1 MCX         0.0254
     43 H         188.8744  -13.1970   48.6020 H         1 MCX         0.0254
     44 H         189.3429  -12.1003   47.2796 H         1 MCX         0.0254
     45 H         187.5878  -11.4974   49.5844 H         1 MCX         0.0290
     46 H         188.0583  -10.2245   48.4153 H         1 MCX         0.0290
     47 H         187.2645   -9.2690   50.5377 H         1 MCX         0.0266
     48 H         188.9846   -8.8885   50.2397 H         1 MCX         0.0266
     49 H         187.9202  -11.1107   52.0166 H         1 MCX         0.0265
     50 H         188.6409   -9.5607   52.5682 H         1 MCX         0.0265
     51 H         190.2420  -11.4554   52.6695 H         1 MCX         0.0266
     52 H         190.7661  -10.1614   51.5390 H         1 MCX         0.0266
     53 H         191.1527  -12.3201   50.5294 H         1 MCX         0.0290
     54 H         189.4414  -12.7879   50.8216 H         1 MCX         0.0290
     55 H         192.1764   -8.7899   47.6419 H         1 MCX         0.1877
     56 H         194.5100  -10.5552   48.2050 H         1 MCX         0.0802
     57 H         196.4947   -8.2145   47.7985 H         1 MCX         0.0237
     58 H         196.6548   -9.8622   47.1422 H         1 MCX         0.0237
     59 H         196.6855   -8.4599   46.0451 H         1 MCX         0.0237
     60 H         194.8123  -10.9091   45.8845 H         1 MCX         0.0237
     61 H         193.2928  -10.0282   45.5908 H         1 MCX         0.0237
     62 H         194.7771   -9.5558   44.7277 H         1 MCX         0.0237
     63 H         193.1358   -7.5881   46.2284 H         1 MCX         0.0237
     64 H         194.4510   -6.8264   47.1564 H         1 MCX         0.0237
     65 H         194.7013   -7.2573   45.4467 H         1 MCX         0.0237
     66 H         196.1147  -11.1931   49.5140 H         1 MCX         0.0527
     67 H         194.6822  -11.4625   50.3879 H         1 MCX         0.0527
     68 H         194.8981   -8.1231   51.9870 H         1 MCX         0.0805
     69 H         196.7793   -8.9424   53.0519 H         1 MCX         0.0357
     70 H         197.1644  -11.5445   51.2950 H         1 MCX         0.0331
     71 H         197.0718  -11.8490   53.9288 H         1 MCX         0.0235
     72 H         196.0501  -10.8181   54.9606 H         1 MCX         0.0235
     73 H         195.4369  -12.3877   54.3849 H         1 MCX         0.0235
     74 H         193.5764  -10.0504   53.4092 H         1 MCX         0.0235
     75 H         193.6861  -10.7713   51.7846 H         1 MCX         0.0235
     76 H         193.6025  -11.8209   53.2207 H         1 MCX         0.0235
     77 H         195.6284   -6.1630   51.9163 H         1 MCX         0.1857
     78 H         198.1282   -5.7157   50.3643 H         1 MCX         0.0607
     79 H         197.2498   -3.4414   49.9489 H         1 MCX         0.0292
     80 H         195.6950   -3.9741   50.8053 H         1 MCX         0.0292
     81 H         195.4676   -5.5867   49.2574 H         1 MCX         0.0302
     82 H         197.2157   -5.9122   47.2999 H         1 MCX         0.0268
     83 H         197.9775   -4.6437   47.6999 H         1 MCX         0.0268
     84 H         195.2099   -2.6106   48.3401 H         1 MCX         0.0268
     85 H         194.1130   -3.6444   48.0127 H         1 MCX         0.0268
     86 H         195.4430   -4.5196   45.9108 H         1 MCX         0.0265
     87 H         196.3698   -3.3059   46.0761 H         1 MCX         0.0265
     88 H         197.8793   -6.1820   53.3737 H         1 MCX         0.2134
     89 H         197.4419   -3.9611   52.7570 H         1 MCX         0.0861
     90 H         201.1652   -3.7767   50.8451 H         1 MCX         0.1815
     91 H         200.5756   -5.3291   51.4481 H         1 MCX         0.1815
@<TRIPOS>BOND
     1    1    2 2  
     2    1    3 am 
     3    1   11 am 
     4    3    4 1  
     5    4    5 1  
     6    4    6 1  
     7    4   10 1  
     8    6    7 1  
     9    7    8 1  
    10    8    9 1  
    11    9   10 1  
    12   11   12 1  
    13   12   13 1  
    14   12   17 1  
    15   13   14 1  
    16   13   15 1  
    17   13   16 1  
    18   17   18 2  
    19   17   19 am 
    20   19   20 1  
    21   19   21 1  
    22   20   23 1  
    23   21   22 1  
    24   21   27 1  
    25   22   23 1  
    26   22   24 1  
    27   23   24 1  
    28   24   25 1  
    29   24   26 1  
    30   27   28 2  
    31   27   29 am 
    32   29   30 1  
    33   30   31 1  
    34   30   37 1  
    35   31   32 1  
    36   32   33 1  
    37   32   34 1  
    38   33   35 1  
    39   34   35 1  
    40   37   36 1  
    41   37   40 1  
    42   40   38 2  
    43   40   39 am 
    44    3   41 1  
    45    5   42 1  
    46    5   43 1  
    47    5   44 1  
    48    6   45 1  
    49    6   46 1  
    50    7   47 1  
    51    7   48 1  
    52    8   49 1  
    53    8   50 1  
    54    9   51 1  
    55    9   52 1  
    56   10   53 1  
    57   10   54 1  
    58   11   55 1  
    59   12   56 1  
    60   14   57 1  
    61   14   58 1  
    62   14   59 1  
    63   15   60 1  
    64   15   61 1  
    65   15   62 1  
    66   16   63 1  
    67   16   64 1  
    68   16   65 1  
    69   20   66 1  
    70   20   67 1  
    71   21   68 1  
    72   22   69 1  
    73   23   70 1  
    74   25   71 1  
    75   25   72 1  
    76   25   73 1  
    77   26   74 1  
    78   26   75 1  
    79   26   76 1  
    80   29   77 1  
    81   30   78 1  
    82   31   79 1  
    83   31   80 1  
    84   32   81 1  
    85   33   82 1  
    86   33   83 1  
    87   34   84 1  
    88   34   85 1  
    89   35   86 1  
    90   35   87 1  
    91   36   88 1  
    92   37   89 1  
    93   39   90 1  
    94   39   91 1  
@<TRIPOS>SUBSTRUCTURE
     1 MCX         1

