### 
### Created by X-TOOL on Mon Sep 10 21:13:04 2018
### 

@<TRIPOS>MOLECULE
3lp0_ligand
   30    31     1     0     0
SMALL
GAST_HUCK


@<TRIPOS>ATOM
      1 C          -2.0410   70.9810   30.6270 C.ar      1 LP7        -0.0561
      2 N          -3.9600   72.0390   31.6460 N.ar      1 LP7        -0.2874
      3 O           0.3750   73.5500   32.8800 O.3       1 LP7        -0.3797
      4 C1         -3.4130   71.1280   30.8040 C.ar      1 LP7        -0.0124
      5 C2         -1.2090   71.8230   31.3620 C.ar      1 LP7        -0.0490
      6 C3         -1.7300   72.7750   32.2400 C.ar      1 LP7         0.0413
      7 C4         -3.1240   72.8450   32.3470 C.ar      1 LP7         0.1788
      8 N5         -3.6420   73.7700   33.1990 N.pl3     1 LP7        -0.0808
      9 C6         -2.9370   74.6440   33.9690 C.2       1 LP7         0.2328
     10 C7         -1.5390   74.5780   33.8650 C.2       1 LP7         0.0941
     11 C8         -0.9470   73.6440   33.0030 C.3       1 LP7         0.1092
     12 O9         -5.0310   73.8160   33.2860 O.3       1 LP7        -0.2459
     13 O10        -3.5150   75.5240   34.7850 O.3       1 LP7        -0.2949
     14 C11        -0.6560   75.4900   34.6700 C.2       1 LP7         0.2118
     15 O12        -0.8490   76.6890   34.8100 O.2       1 LP7        -0.3998
     16 O13         0.3540   74.7940   35.2070 O.3       1 LP7        -0.2902
     17 C14         0.0630   74.0480   36.4220 C.3       1 LP7         0.0708
     18 C15         1.1480   72.9870   36.6250 C.3       1 LP7        -0.0375
     19 H          -1.6337   70.2378   29.9416 H         1 LP7         0.0581
     20 H           0.7952   74.1963   33.4521 H         1 LP7         0.2136
     21 H          -4.0810   70.4789   30.2379 H         1 LP7         0.0708
     22 H          -0.1283   71.7365   31.2490 H         1 LP7         0.0616
     23 H          -1.2486   74.4239   33.7023 H         1 LP7         0.0761
     24 H          -5.4093   73.1564   32.6999 H         1 LP7         0.2566
     25 H          -4.0795   76.1092   34.2746 H         1 LP7         0.2605
     26 H          -0.9110   73.5666   36.3342 H         1 LP7         0.0606
     27 H           0.0466   74.7259   37.2754 H         1 LP7         0.0606
     28 H           1.1575   72.3107   35.7702 H         1 LP7         0.0255
     29 H           2.1188   73.4745   36.7150 H         1 LP7         0.0255
     30 H           0.9375   72.4231   37.5338 H         1 LP7         0.0255
@<TRIPOS>BOND
     1    1    4 ar 
     2    5    1 ar 
     3    2    4 ar 
     4    7    2 ar 
     5   11    3 1  
     6    6    5 ar 
     7    6    7 ar 
     8    6   11 1  
     9    7    8 1  
    10    8    9 1  
    11    8   12 1  
    12    9   10 2  
    13    9   13 1  
    14   10   11 1  
    15   10   14 1  
    16   14   15 2  
    17   14   16 1  
    18   16   17 1  
    19   17   18 1  
    20    1   19 1  
    21    3   20 1  
    22    4   21 1  
    23    5   22 1  
    24   11   23 1  
    25   12   24 1  
    26   13   25 1  
    27   17   26 1  
    28   17   27 1  
    29   18   28 1  
    30   18   29 1  
    31   18   30 1  
@<TRIPOS>SUBSTRUCTURE
     1 LP7         1

