### 
### Created by X-TOOL on Mon Sep 10 21:13:02 2018
### 

@<TRIPOS>MOLECULE
3lp4_ligand
   25    24     1     0     0
SMALL
GAST_HUCK


@<TRIPOS>ATOM
      1 N          26.1750  -42.4930    3.7970 N.4       1 LYS         0.2327
      2 CA         26.0410  -42.7180    5.2560 C.3       1 LYS         0.0283
      3 C          24.6230  -43.2200    5.5520 C.2       1 LYS         0.0844
      4 O          24.2810  -43.2540    6.7460 O.co2     1 LYS        -0.5643
      5 CB         26.3500  -41.4020    6.0070 C.3       1 LYS         0.0026
      6 CG         25.3710  -40.2760    5.7480 C.3       1 LYS        -0.0416
      7 CD         25.7330  -39.0390    6.5010 C.3       1 LYS        -0.0123
      8 CE         24.7060  -37.9900    6.1990 C.3       1 LYS        -0.0354
      9 NZ         24.9710  -36.7080    6.8940 N.4       1 LYS         0.2185
     10 OXT        23.8830  -43.5620    4.5920 O.co2     1 LYS        -0.5643
     11 H1         27.1049  -42.1624    3.5920 H         1 LYS         0.2010
     12 H2         25.5008  -41.8051    3.4998 H         1 LYS         0.2010
     13 H3         26.0105  -43.3584    3.3070 H         1 LYS         0.2010
     14 H4         26.7630  -43.4846    5.5740 H         1 LYS         0.1024
     15 H5         27.3507  -41.0616    5.7027 H         1 LYS         0.0339
     16 H6         26.3477  -41.6155    7.0861 H         1 LYS         0.0339
     17 H7         24.3665  -40.5998    6.0581 H         1 LYS         0.0270
     18 H8         25.3671  -40.0487    4.6718 H         1 LYS         0.0270
     19 H9         26.7270  -38.6886    6.1859 H         1 LYS         0.0317
     20 H10        25.7437  -39.2498    7.5805 H         1 LYS         0.0317
     21 H11        23.7201  -38.3628    6.5137 H         1 LYS         0.0813
     22 H12        24.6996  -37.8067    5.1144 H         1 LYS         0.0813
     23 H13        24.2528  -36.0420    6.6559 H         1 LYS         0.1994
     24 H14        25.8690  -36.3502    6.6082 H         1 LYS         0.1994
     25 H15        24.9714  -36.8598    7.8905 H         1 LYS         0.1994
@<TRIPOS>BOND
     1    1    2 1  
     2    2    3 1  
     3    2    5 1  
     4    3    4 ar 
     5    3   10 ar 
     6    5    6 1  
     7    6    7 1  
     8    7    8 1  
     9    8    9 1  
    10    1   11 1  
    11    1   12 1  
    12    1   13 1  
    13    2   14 1  
    14    5   15 1  
    15    5   16 1  
    16    6   17 1  
    17    6   18 1  
    18    7   19 1  
    19    7   20 1  
    20    8   21 1  
    21    8   22 1  
    22    9   23 1  
    23    9   24 1  
    24    9   25 1  
@<TRIPOS>SUBSTRUCTURE
     1 LYS         1

