### 
### Created by X-TOOL on Mon Sep 10 21:13:02 2018
### 

@<TRIPOS>MOLECULE
3lp7_ligand
   28    27     1     0     0
SMALL
GAST_HUCK


@<TRIPOS>ATOM
      1 N          21.1510  -17.7340    5.3370 N.4       1 HAR         0.2327
      2 CA         21.0810  -17.6770    6.6990 C.3       1 HAR         0.0284
      3 C          20.2330  -16.4650    7.0950 C.2       1 HAR         0.0844
      4 O          20.1580  -16.4040    8.4140 O.co2     1 HAR        -0.5643
      5 CB         22.4620  -17.5820    7.2700 C.3       1 HAR         0.0045
      6 CG         23.3370  -16.3610    7.5430 C.3       1 HAR        -0.0240
      7 CD         23.7150  -14.9760    7.1440 C.3       1 HAR         0.0284
      8 NE         24.6740  -14.5320    7.9950 N.pl3     1 HAR        -0.3084
      9 CZ         25.8200  -13.9850    7.6280 C.cat     1 HAR         0.2806
     10 NH1        26.1350  -13.8150    6.3450 N.pl3     1 HAR        -0.0589
     11 NH2        26.6760  -13.5970    8.5670 N.pl3     1 HAR        -0.3213
     12 OH1        27.3100  -13.2580    6.0980 O.3       1 HAR        -0.1070
     13 OXT        19.6630  -15.6190    6.2580 O.co2     1 HAR        -0.5643
     14 H1         21.7072  -18.5285    5.0621 H         1 HAR         0.2010
     15 H2         21.5753  -16.8894    4.9867 H         1 HAR         0.2010
     16 H3         20.2222  -17.8263    4.9564 H         1 HAR         0.2010
     17 H4         20.6010  -18.5910    7.0787 H         1 HAR         0.1024
     18 H5         23.0721  -18.2021    6.5968 H         1 HAR         0.0339
     19 H6         22.3801  -18.0756    8.2496 H         1 HAR         0.0339
     20 H7         24.3277  -16.8369    7.4984 H         1 HAR         0.0291
     21 H8         23.0655  -16.1771    8.5930 H         1 HAR         0.0291
     22 H9         22.8344  -14.3194    7.2015 H         1 HAR         0.0548
     23 H10        24.1038  -14.9788    6.1150 H         1 HAR         0.0548
     24 H11        24.4952  -14.6286    9.0048 H         1 HAR         0.1886
     25 H12        25.4992  -14.1012    5.5869 H         1 HAR         0.3884
     26 H13        26.4416  -13.7242    9.5619 H         1 HAR         0.1856
     27 H14        27.5741  -13.1690    8.3001 H         1 HAR         0.1856
     28 H15        27.9990  -13.7978    6.4673 H         1 HAR         0.4002
@<TRIPOS>BOND
     1    1    2 1  
     2    2    3 1  
     3    2    5 1  
     4    3    4 ar 
     5    3   13 ar 
     6    5    6 1  
     7    6    7 1  
     8    7    8 1  
     9    8    9 ar 
    10    9   10 ar 
    11    9   11 ar 
    12   10   12 1  
    13    1   14 1  
    14    1   15 1  
    15    1   16 1  
    16    2   17 1  
    17    5   18 1  
    18    5   19 1  
    19    6   20 1  
    20    6   21 1  
    21    7   22 1  
    22    7   23 1  
    23    8   24 1  
    24   10   25 1  
    25   11   26 1  
    26   11   27 1  
    27   12   28 1  
@<TRIPOS>SUBSTRUCTURE
     1 HAR         1

