### 
### Created by X-TOOL on Mon Sep 10 21:13:02 2018
### 

@<TRIPOS>MOLECULE
3lpb_ligand
   56    59     1     0     0
SMALL
GAST_HUCK


@<TRIPOS>ATOM
      1 S1        111.9540   62.7430    7.2580 S.o2      1 NVB         0.0682
      2 O2        111.0950   62.6620    8.4100 O.2       1 NVB        -0.1502
      3 O3        112.3600   61.5320    6.6270 O.2       1 NVB        -0.1502
      4 N4        111.0970   63.6160    6.2030 N.am      1 NVB        -0.2504
      5 C6        110.2420   64.6810    6.6980 C.3       1 NVB         0.0151
      6 C10       113.3930   63.7400    7.5650 C.ar      1 NVB         0.1086
      7 C11       113.8950   63.8160    8.8730 C.ar      1 NVB        -0.0340
      8 C13       115.0450   64.5560    9.1440 C.ar      1 NVB        -0.0514
      9 C15       115.6780   65.2800    8.0970 C.ar      1 NVB        -0.0135
     10 C16       115.1560   65.2220    6.7890 C.ar      1 NVB        -0.0514
     11 C18       114.0210   64.4470    6.5110 C.ar      1 NVB        -0.0340
     12 C20       116.9060   66.0850    8.3270 C.ar      1 NVB         0.0112
     13 C21       117.1090   66.8010    9.5090 C.ar      1 NVB         0.0769
     14 N22       116.1580   66.8230   10.4690 N.ar      1 NVB        -0.2715
     15 C23       116.3370   67.5720   11.5870 C.ar      1 NVB         0.0704
     16 C24       117.5160   68.2960   11.7660 C.ar      1 NVB         0.0469
     17 N26       118.4520   68.2780   10.7980 N.ar      1 NVB        -0.2708
     18 C27       118.2740   67.5680    9.6660 C.ar      1 NVB         0.0728
     19 C28       119.2750   67.5650    8.6720 C.ar      1 NVB        -0.0326
     20 C30       119.1050   66.8130    7.4980 C.ar      1 NVB        -0.0518
     21 C32       117.9130   66.0900    7.3280 C.ar      1 NVB        -0.0446
     22 C34       115.2550   67.5140   12.6070 C.ar      1 NVB        -0.0188
     23 C35       114.0510   66.9160   12.2940 C.ar      1 NVB        -0.0377
     24 C37       113.0240   66.8340   13.2520 C.ar      1 NVB         0.1169
     25 C38       113.2420   67.3150   14.5460 C.ar      1 NVB         0.1532
     26 C39       114.4590   67.8790   14.8820 C.ar      1 NVB         0.1169
     27 C40       115.4820   67.9800   13.9050 C.ar      1 NVB        -0.0377
     28 O42       114.6180   68.3650   16.1720 O.3       1 NVB        -0.3269
     29 C43       115.4890   69.4610   16.4860 C.3       1 NVB         0.0565
     30 O47       112.2540   67.2060   15.5110 O.3       1 NVB        -0.3253
     31 C48       112.1690   65.9590   16.2470 C.3       1 NVB         0.0557
     32 O52       111.7790   66.2830   12.9670 O.3       1 NVB        -0.3269
     33 C53       111.3400   65.8480   11.6450 C.3       1 NVB         0.0565
     34 H         111.1554   63.4221    5.2033 H         1 NVB         0.1669
     35 H         109.4974   64.2624    7.3750 H         1 NVB         0.0439
     36 H         110.8481   65.4138    7.2307 H         1 NVB         0.0439
     37 H         109.7413   65.1631    5.8584 H         1 NVB         0.0439
     38 H         113.3832   63.2938    9.6814 H         1 NVB         0.0638
     39 H         115.4565   64.5793   10.1531 H         1 NVB         0.0628
     40 H         115.6378   65.7833    5.9884 H         1 NVB         0.0628
     41 H         113.6271   64.3895    5.4963 H         1 NVB         0.0638
     42 H         117.6777   68.8695   12.6787 H         1 NVB         0.0950
     43 H         120.1842   68.1488    8.8157 H         1 NVB         0.0666
     44 H         119.8824   66.7910    6.7343 H         1 NVB         0.0664
     45 H         117.7587   65.5218    6.4107 H         1 NVB         0.0673
     46 H         113.8947   66.5042   11.2970 H         1 NVB         0.0460
     47 H         116.4442   68.4206   14.1661 H         1 NVB         0.0460
     48 H         116.5097   69.2052   16.2019 H         1 NVB         0.0572
     49 H         115.1689   70.3466   15.9371 H         1 NVB         0.0572
     50 H         115.4478   69.6609   17.5567 H         1 NVB         0.0572
     51 H         111.9842   65.1401   15.5517 H         1 NVB         0.0571
     52 H         113.1070   65.7851   16.7742 H         1 NVB         0.0571
     53 H         111.3521   66.0180   16.9662 H         1 NVB         0.0571
     54 H         111.3609   66.6953   10.9596 H         1 NVB         0.0572
     55 H         112.0078   65.0675   11.2804 H         1 NVB         0.0572
     56 H         110.3245   65.4574   11.7111 H         1 NVB         0.0572
@<TRIPOS>BOND
     1    1    2 2  
     2    1    3 2  
     3    1    4 am 
     4    1    6 1  
     5    4    5 1  
     6    6    7 ar 
     7    6   11 ar 
     8    7    8 ar 
     9    8    9 ar 
    10    9   10 ar 
    11    9   12 1  
    12   10   11 ar 
    13   12   13 ar 
    14   12   21 ar 
    15   13   14 ar 
    16   13   18 ar 
    17   14   15 ar 
    18   15   16 ar 
    19   15   22 1  
    20   16   17 ar 
    21   17   18 ar 
    22   18   19 ar 
    23   19   20 ar 
    24   20   21 ar 
    25   22   23 ar 
    26   22   27 ar 
    27   23   24 ar 
    28   24   25 ar 
    29   24   32 1  
    30   25   26 ar 
    31   25   30 1  
    32   26   27 ar 
    33   26   28 1  
    34   28   29 1  
    35   30   31 1  
    36   32   33 1  
    37    4   34 1  
    38    5   35 1  
    39    5   36 1  
    40    5   37 1  
    41    7   38 1  
    42    8   39 1  
    43   10   40 1  
    44   11   41 1  
    45   16   42 1  
    46   19   43 1  
    47   20   44 1  
    48   21   45 1  
    49   23   46 1  
    50   27   47 1  
    51   29   48 1  
    52   29   49 1  
    53   29   50 1  
    54   31   51 1  
    55   31   52 1  
    56   31   53 1  
    57   33   54 1  
    58   33   55 1  
    59   33   56 1  
@<TRIPOS>SUBSTRUCTURE
     1 NVB         1

