### 
### Created by X-TOOL on Mon Sep 10 21:13:04 2018
### 

@<TRIPOS>MOLECULE
3lpf_ligand
   54    56     1     0     0
SMALL
GAST_HUCK


@<TRIPOS>ATOM
      1 N1        -24.3860    4.2490   -4.1660 N.am      1 Z77        -0.2340
      2 N2        -24.4770    6.6260   -4.1080 N.am      1 Z77        -0.2519
      3 N3        -27.0610    6.4190   -7.9640 N.am      1 Z77        -0.2344
      4 CAA       -23.1520    0.3580   -0.2350 C.3       1 Z77         0.0590
      5 CAB       -27.2850   11.6030  -10.3560 C.3       1 Z77        -0.0392
      6 CAC       -29.2220    9.5050  -11.1710 C.3       1 Z77        -0.0356
      7 OAD       -26.0620    4.9640   -6.4790 O.2       1 Z77        -0.4002
      8 OAE       -25.6080    9.9230   -2.7320 O.3       1 Z77        -0.3928
      9 SAF       -24.9050    5.4350   -1.8140 S.2       1 Z77        -0.2962
     10 CAG       -24.9480    0.6390   -4.0340 C.ar      1 Z77        -0.0827
     11 CAH       -24.8060    1.9430   -4.5130 C.ar      1 Z77        -0.0500
     12 CAI       -24.7960    0.3780   -2.6750 C.ar      1 Z77        -0.0476
     13 CAJ       -24.3570    2.7270   -2.2810 C.ar      1 Z77        -0.0118
     14 CAK       -26.2530    9.9310   -8.7460 C.ar      1 Z77        -0.0700
     15 CAL       -28.0710    7.9700   -9.5160 C.ar      1 Z77        -0.0403
     16 CAM       -25.2310    8.3500   -7.1700 C.2       1 Z77        -0.0526
     17 CAN       -25.6460    8.8360   -3.6600 C.3       1 Z77         0.0665
     18 CAO       -24.5720    7.8300   -3.2410 C.3       1 Z77         0.0652
     19 CAP       -24.0810    6.7760   -5.5310 C.3       1 Z77         0.0781
     20 OAS       -24.3520    1.1580   -0.4650 O.3       1 Z77        -0.3250
     21 CAT       -24.5550    5.4190   -3.5030 C.2       1 Z77         0.1670
     22 CAU       -27.2160   10.2140   -9.7180 C.ar      1 Z77        -0.0558
     23 CAV       -28.1370    9.2310  -10.1010 C.ar      1 Z77        -0.0536
     24 CAW       -24.5100    3.0040   -3.6480 C.ar      1 Z77         0.0635
     25 CAX       -24.5010    1.4230   -1.7950 C.ar      1 Z77         0.0782
     26 CAY       -25.1820    7.0700   -6.5800 C.2       1 Z77         0.0499
     27 CAZ       -26.0990    6.1010   -6.9840 C.2       1 Z77         0.2165
     28 CBA       -26.1940    8.6700   -8.1480 C.ar      1 Z77        -0.0133
     29 CBB       -27.1050    7.6910   -8.5510 C.ar      1 Z77         0.0705
     30 H         -24.1409    4.3127   -5.1541 H         1 Z77         0.2354
     31 H         -27.7369    5.7110   -8.2510 H         1 Z77         0.2336
     32 H         -23.2352   -0.5837   -0.7775 H         1 Z77         0.0577
     33 H         -22.2784    0.9061   -0.5878 H         1 Z77         0.0577
     34 H         -23.0499    0.1567    0.8314 H         1 Z77         0.0577
     35 H         -27.1494   11.5135  -11.4338 H         1 Z77         0.0354
     36 H         -28.2570   12.0497  -10.1467 H         1 Z77         0.0354
     37 H         -26.4976   12.2318   -9.9404 H         1 Z77         0.0354
     38 H         -29.8593   10.3245  -10.8388 H         1 Z77         0.0380
     39 H         -28.7425    9.7743  -12.1121 H         1 Z77         0.0380
     40 H         -29.8253    8.6083  -11.3127 H         1 Z77         0.0380
     41 H         -25.7847    9.5937   -1.8478 H         1 Z77         0.2095
     42 H         -25.1776   -0.1735   -4.7233 H         1 Z77         0.0553
     43 H         -24.9276    2.1385   -5.5784 H         1 Z77         0.0423
     44 H         -24.9068   -0.6388   -2.2982 H         1 Z77         0.0425
     45 H         -24.1233    3.5369   -1.5899 H         1 Z77         0.0429
     46 H         -25.5408   10.7018   -8.4515 H         1 Z77         0.0494
     47 H         -28.7786    7.1964   -9.8142 H         1 Z77         0.0436
     48 H         -24.5094    9.1072   -6.8634 H         1 Z77         0.0549
     49 H         -25.4567    9.1940   -4.6720 H         1 Z77         0.0579
     50 H         -26.6294    8.3660   -3.6540 H         1 Z77         0.0579
     51 H         -23.6130    8.3441   -3.3056 H         1 Z77         0.0570
     52 H         -24.8355    7.4819   -2.2422 H         1 Z77         0.0570
     53 H         -23.6694    5.8075   -5.8150 H         1 Z77         0.0702
     54 H         -23.4271    7.6478   -5.5535 H         1 Z77         0.0702
@<TRIPOS>BOND
     1   21    1 am 
     2    1   24 1  
     3    2   18 1  
     4   19    2 1  
     5    2   21 am 
     6    3   27 am 
     7   29    3 1  
     8   20    4 1  
     9   22    5 1  
    10   23    6 1  
    11   27    7 2  
    12   17    8 1  
    13   21    9 2  
    14   11   10 ar 
    15   10   12 ar 
    16   24   11 ar 
    17   25   12 ar 
    18   24   13 ar 
    19   13   25 ar 
    20   22   14 ar 
    21   14   28 ar 
    22   23   15 ar 
    23   15   29 ar 
    24   16   26 2  
    25   28   16 1  
    26   18   17 1  
    27   26   19 1  
    28   25   20 1  
    29   22   23 ar 
    30   26   27 1  
    31   28   29 ar 
    32    1   30 1  
    33    3   31 1  
    34    4   32 1  
    35    4   33 1  
    36    4   34 1  
    37    5   35 1  
    38    5   36 1  
    39    5   37 1  
    40    6   38 1  
    41    6   39 1  
    42    6   40 1  
    43    8   41 1  
    44   10   42 1  
    45   11   43 1  
    46   12   44 1  
    47   13   45 1  
    48   14   46 1  
    49   15   47 1  
    50   16   48 1  
    51   17   49 1  
    52   17   50 1  
    53   18   51 1  
    54   18   52 1  
    55   19   53 1  
    56   19   54 1  
@<TRIPOS>SUBSTRUCTURE
     1 Z77         1

