### 
### Created by X-TOOL on Mon Sep 10 21:13:03 2018
### 

@<TRIPOS>MOLECULE
3lpg_ligand
   47    49     1     0     0
SMALL
GAST_HUCK


@<TRIPOS>ATOM
      1 N1        -27.1830    7.2200   -8.2180 N.am      1 Z78        -0.2326
      2 N2        -25.0700    7.6430   -4.0820 N.am      1 Z78        -0.2409
      3 N3        -24.4810    5.2110   -3.6420 N.am      1 Z78        -0.2187
      4 CAA       -27.3300   12.5670  -10.4810 C.3       1 Z78        -0.0375
      5 OAB       -24.5490    6.8080   -2.0240 O.2       1 Z78        -0.3905
      6 OAC       -26.3020    5.6070   -6.5880 O.2       1 Z78        -0.3984
      7 OAD       -25.6240   11.1180   -3.3920 O.3       1 Z78        -0.3930
      8 FAE       -24.8160    3.5450   -6.0280 F         1 Z78        -0.1939
      9 CAF       -24.8520    0.9190   -3.4660 C.ar      1 Z78        -0.0792
     10 CAG       -24.6840    1.7280   -2.2460 C.ar      1 Z78        -0.0797
     11 CAH       -24.8910    1.5550   -4.7260 C.ar      1 Z78        -0.0418
     12 CAI       -24.5540    3.1390   -2.3390 C.ar      1 Z78        -0.0430
     13 CAJ       -28.1270   10.1360  -10.3930 C.ar      1 Z78        -0.0714
     14 CAK       -28.0830    8.7690   -9.8170 C.ar      1 Z78        -0.0419
     15 CAL       -26.3960   10.8950   -8.7820 C.ar      1 Z78        -0.0656
     16 CAM       -25.4910    9.2070   -7.1210 C.2       1 Z78        -0.0484
     17 CAN       -25.8060   10.0160   -3.7970 C.3       1 Z78         0.0645
     18 CAO       -24.7300    8.9550   -3.5930 C.3       1 Z78         0.0601
     19 CAP       -24.5430    7.4940   -5.4300 C.3       1 Z78         0.0748
     20 CAS       -24.5270    6.6050   -3.1950 C.2       1 Z78         0.2908
     21 CAT       -27.2660   11.1720   -9.8610 C.ar      1 Z78        -0.0594
     22 CAU       -24.7660    2.9190   -4.8160 C.ar      1 Z78         0.1511
     23 CAV       -25.4720    7.8990   -6.5970 C.2       1 Z78         0.0515
     24 CAW       -24.5730    3.7560   -3.5560 C.ar      1 Z78         0.1004
     25 CAX       -26.3180    6.9090   -7.1250 C.2       1 Z78         0.2193
     26 CAY       -26.3550    9.5120   -8.1930 C.ar      1 Z78        -0.0078
     27 CAZ       -27.2050    8.4840   -8.7380 C.ar      1 Z78         0.0764
     28 H         -24.2268    5.3309   -4.6225 H         1 Z78         0.2244
     29 H         -27.0705   12.5057  -11.5379 H         1 Z78         0.0366
     30 H         -28.3397   12.9639  -10.3759 H         1 Z78         0.0366
     31 H         -26.6253   13.2230   -9.9699 H         1 Z78         0.0366
     32 H1        -27.7739    6.5115   -8.6038 H         1 Z78         0.2338
     33 H         -24.9457   -0.1647   -3.3962 H         1 Z78         0.0476
     34 H         -24.6595    1.2425   -1.2704 H         1 Z78         0.0543
     35 H         -25.0208    0.9607   -5.6305 H         1 Z78         0.0561
     36 H         -24.4383    3.7331   -1.4325 H         1 Z78         0.0488
     37 H         -28.8064   10.3601  -11.2154 H         1 Z78         0.0529
     38 H         -28.7235    7.9852  -10.2214 H         1 Z78         0.0502
     39 H         -25.7573   11.6807   -8.3785 H         1 Z78         0.0505
     40 H         -24.8433    9.9766   -6.7012 H         1 Z78         0.0556
     41 H         -26.3793   11.6574   -3.5946 H         1 Z78         0.2095
     42 H         -23.8540    9.2828   -4.1528 H         1 Z78         0.0545
     43 H         -24.5796    8.8613   -2.5175 H         1 Z78         0.0545
     44 H         -24.3522    6.4285   -5.5582 H         1 Z78         0.0685
     45 H         -23.6839    8.1622   -5.4886 H         1 Z78         0.0685
     46 H         -25.9743   10.0970   -4.8810 H         1 Z78         0.0577
     47 H         -26.7196    9.6430   -3.3109 H         1 Z78         0.0577
@<TRIPOS>BOND
     1    1   25 am 
     2   27    1 1  
     3    2   18 1  
     4   19    2 1  
     5    2   20 am 
     6   20    3 am 
     7    3   24 1  
     8   21    4 1  
     9   20    5 2  
    10   25    6 2  
    11   17    7 1  
    12   22    8 1  
    13   10    9 ar 
    14    9   11 ar 
    15   12   10 ar 
    16   11   22 ar 
    17   24   12 ar 
    18   13   14 ar 
    19   21   13 ar 
    20   14   27 ar 
    21   15   21 ar 
    22   26   15 ar 
    23   23   16 2  
    24   16   26 1  
    25   18   17 1  
    26   19   23 1  
    27   22   24 ar 
    28   23   25 1  
    29   26   27 ar 
    30    3   28 1  
    31    4   29 1  
    32    4   30 1  
    33    4   31 1  
    34    1   32 1  
    35    9   33 1  
    36   10   34 1  
    37   11   35 1  
    38   12   36 1  
    39   13   37 1  
    40   14   38 1  
    41   15   39 1  
    42   16   40 1  
    43    7   41 1  
    44   18   42 1  
    45   18   43 1  
    46   19   44 1  
    47   19   45 1  
    48   17   46 1  
    49   17   47 1  
@<TRIPOS>SUBSTRUCTURE
     1 Z78         1

