### 
### Created by X-TOOL on Mon Sep 10 21:13:03 2018
### 

@<TRIPOS>MOLECULE
3lpi_ligand
   89    92     1     0     0
SMALL
GAST_HUCK


@<TRIPOS>ATOM
      1 C1         26.8470   15.4820   24.3230 C.ar      1 Z74        -0.0367
      2 F1         26.8590   10.8750   18.9070 F         1 Z74        -0.1863
      3 N1         23.5520   11.7160   23.4240 N.am      1 Z74        -0.2784
      4 O1         18.1610   13.6830   24.2780 O.2       1 Z74        -0.1501
      5 S1         17.7460   12.8380   25.3590 S.o2      1 Z74         0.0709
      6 C2         27.0070   14.2550   23.6180 C.ar      1 Z74         0.0490
      7 F2         22.8730   13.3690   18.3710 F         1 Z74        -0.1863
      8 N2         28.7070   13.5230   21.8620 N.am      1 Z74        -0.2724
      9 O2         17.1720   13.4280   26.5360 O.2       1 Z74        -0.1501
     10 C3         25.8600   13.4590   23.3370 C.ar      1 Z74        -0.0289
     11 N3         19.2090   12.0450   25.9100 N.am      1 Z74        -0.2236
     12 O3         29.2290   13.7560   24.0900 O.2       1 Z74        -0.3844
     13 C4         24.5680   13.8820   23.7490 C.ar      1 Z74         0.0488
     14 N4         21.0580    9.8280   26.4480 N.4       1 Z74         0.2334
     15 O4         22.2540   13.5770   23.2840 O.2       1 Z74        -0.3846
     16 C5         24.4290   15.1150   24.4540 C.ar      1 Z74        -0.0367
     17 O5         21.0960    8.9550   23.7550 O.3       1 Z74        -0.3837
     18 C6         25.5650   15.9210   24.7450 C.ar      1 Z74        -0.0353
     19 C7         23.3600   13.0780   23.4680 C.2       1 Z74         0.2049
     20 C8         28.3760   13.8350   23.2060 C.2       1 Z74         0.2069
     21 C9         29.9730   12.7570   21.6410 C.3       1 Z74         0.0331
     22 C10        27.9130   13.9060   20.6480 C.3       1 Z74         0.0331
     23 C11        28.5960   14.9910   19.7980 C.3       1 Z74        -0.0354
     24 C12        28.7010   16.3390   20.5220 C.3       1 Z74        -0.0634
     25 C13        29.7500   11.3400   21.0550 C.3       1 Z74        -0.0354
     26 C14        28.9080   10.4240   21.9550 C.3       1 Z74        -0.0634
     27 C15        25.4210   17.2280   25.4910 C.3       1 Z74        -0.0293
     28 C16        22.5060   10.7690   22.9900 C.3       1 Z74         0.0820
     29 C17        22.0230    9.9310   24.2000 C.3       1 Z74         0.1235
     30 C18        21.3380   10.7460   25.3190 C.3       1 Z74         0.0236
     31 C19        23.0820    9.8770   21.8500 C.3       1 Z74         0.0048
     32 C20        23.7050   10.6680   20.7180 C.ar      1 Z74        -0.0445
     33 C21        22.9700   11.6920   20.0400 C.ar      1 Z74        -0.0310
     34 C22        23.5760   12.4160   18.9910 C.ar      1 Z74         0.1242
     35 C23        24.9040   12.1590   18.5790 C.ar      1 Z74        -0.0019
     36 C24        25.6110   11.1450   19.2620 C.ar      1 Z74         0.1242
     37 C25        25.0390   10.4000   20.3190 C.ar      1 Z74        -0.0310
     38 C26        20.0180   11.4220   24.8450 C.3       1 Z74         0.0751
     39 C27        19.0730   11.1750   27.1190 C.3       1 Z74         0.0698
     40 C28        20.3810   10.5050   27.5750 C.3       1 Z74        -0.0158
     41 C29        16.6830   11.5370   24.7550 C.ar      1 Z74         0.1084
     42 C30        16.6540   11.2460   23.3700 C.ar      1 Z74        -0.0351
     43 C31        15.8150   10.2110   22.8890 C.ar      1 Z74        -0.0599
     44 C32        15.0090    9.4700   23.7900 C.ar      1 Z74        -0.0616
     45 C33        15.0390    9.7610   25.1710 C.ar      1 Z74        -0.0599
     46 C34        15.8770   10.7970   25.6580 C.ar      1 Z74        -0.0351
     47 H1         27.7177   16.0900   24.5406 H         1 Z74         0.0642
     48 H2         24.4415   11.3508   23.6988 H         1 Z74         0.1851
     49 H3         25.9739   12.5220   22.8040 H         1 Z74         0.0665
     50 H4         21.9305    9.4459   26.7778 H         1 Z74         0.2018
     51 H5         20.4673    9.0809   26.1181 H         1 Z74         0.2018
     52 H6         23.4455   15.4417   24.7719 H         1 Z74         0.0642
     53 H7         21.5168    8.3859   23.1214 H         1 Z74         0.2102
     54 H8         30.4907   12.6559   22.6063 H         1 Z74         0.0522
     55 H9         30.6055   13.3255   20.9434 H         1 Z74         0.0522
     56 H10        26.9329   14.2831   20.9753 H         1 Z74         0.0522
     57 H11        27.7719   13.0105   20.0250 H         1 Z74         0.0522
     58 H12        28.0136   15.1326   18.8757 H         1 Z74         0.0282
     59 H13        29.6101   14.6500   19.5426 H         1 Z74         0.0282
     60 H14        29.1960   17.0700   19.8658 H         1 Z74         0.0230
     61 H15        29.2894   16.2156   21.4431 H         1 Z74         0.0230
     62 H16        27.6929   16.6982   20.7762 H         1 Z74         0.0230
     63 H17        30.7323   10.8690   20.9025 H         1 Z74         0.0282
     64 H18        29.2377   11.4415   20.0869 H         1 Z74         0.0282
     65 H19        28.7941    9.4414   21.4739 H         1 Z74         0.0230
     66 H20        27.9161   10.8734   22.1101 H         1 Z74         0.0230
     67 H21        29.4106   10.3009   22.9257 H         1 Z74         0.0230
     68 H22        26.4110   17.6920   25.6122 H         1 Z74         0.0391
     69 H23        24.9813   17.0385   26.4813 H         1 Z74         0.0391
     70 H24        24.7661   17.9046   24.9224 H         1 Z74         0.0391
     71 H25        21.6494   11.3347   22.5948 H         1 Z74         0.0606
     72 H26        22.9005    9.4272   24.6315 H         1 Z74         0.0676
     73 H27        22.0285   11.5336   25.6548 H         1 Z74         0.0893
     74 H28        22.2644    9.2666   21.4390 H         1 Z74         0.0448
     75 H29        23.8516    9.2183   22.2788 H         1 Z74         0.0448
     76 H30        21.9493   11.9112   20.3318 H         1 Z74         0.0508
     77 H31        25.3614   12.7182   17.7708 H         1 Z74         0.0532
     78 H32        25.6154    9.6306   20.8200 H         1 Z74         0.0508
     79 H33        20.2795   12.2033   24.1162 H         1 Z74         0.0535
     80 H34        19.4008   10.6548   24.3546 H         1 Z74         0.0535
     81 H35        18.3430   10.3840   26.8924 H         1 Z74         0.0531
     82 H36        18.6976   11.7942   27.9471 H         1 Z74         0.0531
     83 H37        21.0522   11.2727   27.9874 H         1 Z74         0.0830
     84 H38        20.1510    9.7625   28.3533 H         1 Z74         0.0830
     85 H39        17.2705   11.8121   22.6812 H         1 Z74         0.0637
     86 H40        15.7891    9.9848   21.8292 H         1 Z74         0.0618
     87 H41        14.3686    8.6786   23.4177 H         1 Z74         0.0618
     88 H42        14.4224    9.1935   25.8586 H         1 Z74         0.0618
     89 H43        15.9014   11.0227   26.7180 H         1 Z74         0.0637
@<TRIPOS>BOND
     1    6    1 ar 
     2   18    1 ar 
     3   36    2 1  
     4    3   19 am 
     5   28    3 1  
     6    5    4 2  
     7    5    9 2  
     8   11    5 am 
     9    5   41 1  
    10   10    6 ar 
    11    6   20 1  
    12   34    7 1  
    13   20    8 am 
    14    8   21 1  
    15    8   22 1  
    16   13   10 ar 
    17   38   11 1  
    18   11   39 1  
    19   20   12 2  
    20   13   16 ar 
    21   19   13 1  
    22   30   14 1  
    23   14   40 1  
    24   19   15 2  
    25   16   18 ar 
    26   29   17 1  
    27   18   27 1  
    28   21   25 1  
    29   22   23 1  
    30   23   24 1  
    31   25   26 1  
    32   28   29 1  
    33   31   28 1  
    34   29   30 1  
    35   30   38 1  
    36   32   31 1  
    37   33   32 ar 
    38   32   37 ar 
    39   34   33 ar 
    40   35   34 ar 
    41   35   36 ar 
    42   36   37 ar 
    43   39   40 1  
    44   41   42 ar 
    45   41   46 ar 
    46   42   43 ar 
    47   43   44 ar 
    48   44   45 ar 
    49   45   46 ar 
    50    1   47 1  
    51    3   48 1  
    52   10   49 1  
    53   14   50 1  
    54   14   51 1  
    55   16   52 1  
    56   17   53 1  
    57   21   54 1  
    58   21   55 1  
    59   22   56 1  
    60   22   57 1  
    61   23   58 1  
    62   23   59 1  
    63   24   60 1  
    64   24   61 1  
    65   24   62 1  
    66   25   63 1  
    67   25   64 1  
    68   26   65 1  
    69   26   66 1  
    70   26   67 1  
    71   27   68 1  
    72   27   69 1  
    73   27   70 1  
    74   28   71 1  
    75   29   72 1  
    76   30   73 1  
    77   31   74 1  
    78   31   75 1  
    79   33   76 1  
    80   35   77 1  
    81   37   78 1  
    82   38   79 1  
    83   38   80 1  
    84   39   81 1  
    85   39   82 1  
    86   40   83 1  
    87   40   84 1  
    88   42   85 1  
    89   43   86 1  
    90   44   87 1  
    91   45   88 1  
    92   46   89 1  
@<TRIPOS>SUBSTRUCTURE
     1 Z74         1

