### 
### Created by X-TOOL on Mon Sep 10 21:13:02 2018
### 

@<TRIPOS>MOLECULE
3lpj_ligand
   90    93     1     0     0
SMALL
GAST_HUCK


@<TRIPOS>ATOM
      1 C1         26.7720   15.5390   24.4530 C.ar      1 Z75        -0.0367
      2 F1         26.9440   10.6810   19.1230 F         1 Z75        -0.1863
      3 N1         28.5590   13.6580   21.9190 N.am      1 Z75        -0.2724
      4 O1         29.0830   13.6710   24.1490 O.2       1 Z75        -0.3844
      5 C2         26.9290   14.3350   23.7270 C.ar      1 Z75         0.0490
      6 F2         23.0960   13.2670   18.3770 F         1 Z75        -0.1863
      7 N2         23.5450   11.7420   23.3740 N.am      1 Z75        -0.2784
      8 O2         22.1960   13.5700   23.4630 O.2       1 Z75        -0.3846
      9 C3         25.7920   13.5270   23.4410 C.ar      1 Z75        -0.0289
     10 N3         21.0310    9.9670   26.5070 N.4       1 Z75         0.2386
     11 O3         21.0520    8.9800   23.8390 O.3       1 Z75        -0.3835
     12 C4         24.5060   13.9100   23.8610 C.ar      1 Z75         0.0488
     13 N4         19.1270   12.0900   25.8760 N.4       1 Z75         0.2549
     14 C5         24.3550   15.1240   24.5830 C.ar      1 Z75        -0.0367
     15 C6         25.4830   15.9430   24.8850 C.ar      1 Z75        -0.0353
     16 C7         28.2510   13.8790   23.2810 C.2       1 Z75         0.2069
     17 C8         29.9260   13.1710   21.6120 C.3       1 Z75         0.0331
     18 C9         27.6510   13.8710   20.7530 C.3       1 Z75         0.0331
     19 C10        28.1530   15.0140   19.8450 C.3       1 Z75        -0.0354
     20 C11        28.3630   16.3380   20.6070 C.3       1 Z75        -0.0634
     21 C12        29.8900   11.6850   21.1180 C.3       1 Z75        -0.0354
     22 C13        29.1420   10.7020   22.0620 C.3       1 Z75        -0.0634
     23 C14        25.3110   17.2320   25.6540 C.3       1 Z75        -0.0293
     24 C15        23.3210   13.0860   23.5540 C.2       1 Z75         0.2049
     25 C16        22.4770   10.7660   23.0390 C.3       1 Z75         0.0822
     26 C17        21.9870    9.9670   24.2620 C.3       1 Z75         0.1270
     27 C18        23.0260    9.8400   21.9260 C.3       1 Z75         0.0048
     28 C19        23.7140   10.5970   20.8090 C.ar      1 Z75        -0.0445
     29 C20        25.0500   10.2850   20.4690 C.ar      1 Z75        -0.0310
     30 C21        25.6900   10.9910   19.4260 C.ar      1 Z75         0.1242
     31 C22        25.0520   12.0090   18.6980 C.ar      1 Z75        -0.0019
     32 C23        23.7240   12.3130   19.0440 C.ar      1 Z75         0.1242
     33 C24        23.0390   11.6330   20.0790 C.ar      1 Z75        -0.0310
     34 C25        21.2770   10.8240   25.3240 C.3       1 Z75         0.0472
     35 C26        19.9330   11.4310   24.8060 C.3       1 Z75         0.0163
     36 C28        19.0160   11.2530   27.1140 C.3       1 Z75         0.0108
     37 C29        20.3750   10.7170   27.5990 C.3       1 Z75         0.0080
     38 C30        17.7620   12.5170   25.3410 C.3       1 Z75         0.0024
     39 C31        16.7650   11.3810   25.0270 C.ar      1 Z75         0.0014
     40 C32        15.7970   10.9700   25.9950 C.ar      1 Z75        -0.0553
     41 C33        14.8860    9.9250   25.7120 C.ar      1 Z75        -0.0684
     42 C34        14.9250    9.2740   24.4530 C.ar      1 Z75        -0.0687
     43 C35        15.8770    9.6690   23.4830 C.ar      1 Z75        -0.0684
     44 C36        16.7850   10.7120   23.7670 C.ar      1 Z75        -0.0553
     45 H1         27.6366   16.1525   24.6790 H         1 Z75         0.0642
     46 H2         24.4801   11.4021   23.4743 H         1 Z75         0.1851
     47 H3         25.9199   12.6019   22.8907 H         1 Z75         0.0665
     48 H4         21.9125    9.6093   26.8402 H         1 Z75         0.2021
     49 H5         20.4374    9.1987   26.2360 H         1 Z75         0.2021
     50 H6         21.4716    8.3915   23.2225 H         1 Z75         0.2102
     51 H7         19.6176   12.9306   26.1383 H         1 Z75         0.2053
     52 H8         23.3683   15.4324   24.9091 H         1 Z75         0.0642
     53 H9         30.5436   13.2341   22.5201 H         1 Z75         0.0522
     54 H10        30.3652   13.8019   20.8252 H         1 Z75         0.0522
     55 H11        26.6468   14.1242   21.1238 H         1 Z75         0.0522
     56 H12        27.6014   12.9429   20.1646 H         1 Z75         0.0522
     57 H13        27.4124   15.1809   19.0490 H         1 Z75         0.0282
     58 H14        29.1109   14.7113   19.3969 H         1 Z75         0.0282
     59 H15        28.7194   17.1101   19.9092 H         1 Z75         0.0230
     60 H16        29.1090   16.1894   21.4016 H         1 Z75         0.0230
     61 H17        27.4104   16.6591   21.0537 H         1 Z75         0.0230
     62 H18        30.9272   11.3346   21.0115 H         1 Z75         0.0282
     63 H19        29.3928   11.6624   20.1371 H         1 Z75         0.0282
     64 H20        29.1699    9.6893   21.6334 H         1 Z75         0.0230
     65 H21        28.0962   11.0245   22.1730 H         1 Z75         0.0230
     66 H22        29.6307   10.6966   23.0475 H         1 Z75         0.0230
     67 H23        26.2908   17.7146   25.7844 H         1 Z75         0.0391
     68 H24        24.8749   17.0152   26.6403 H         1 Z75         0.0391
     69 H25        24.6422   17.9047   25.0972 H         1 Z75         0.0391
     70 H26        21.6148   11.3201   22.6395 H         1 Z75         0.0606
     71 H27        22.8570    9.4787   24.7254 H         1 Z75         0.0677
     72 H28        22.1872    9.2711   21.4985 H         1 Z75         0.0448
     73 H29        23.7500    9.1441   22.3750 H         1 Z75         0.0448
     74 H30        25.5811    9.5075   21.0061 H         1 Z75         0.0508
     75 H31        25.5629   12.5385   17.9020 H         1 Z75         0.0532
     76 H32        22.0140   11.8919   20.3185 H         1 Z75         0.0508
     77 H33        21.9411   11.6529   25.6101 H         1 Z75         0.0931
     78 H34        20.1636   12.1788   24.0330 H         1 Z75         0.0872
     79 H35        19.3321   10.6217   24.3657 H         1 Z75         0.0872
     80 H36        18.3572   10.3981   26.9017 H         1 Z75         0.0868
     81 H37        18.5750   11.8661   27.9137 H         1 Z75         0.0868
     82 H38        21.0146   11.5599   27.8998 H         1 Z75         0.0867
     83 H39        20.2192   10.0495   28.4594 H         1 Z75         0.0867
     84 H40        17.9280   13.0834   24.4127 H         1 Z75         0.0980
     85 H41        17.2975   13.1724   26.0924 H         1 Z75         0.0980
     86 H42        15.7603   11.4653   26.9585 H         1 Z75         0.0558
     87 H43        14.1590    9.6224   26.4570 H         1 Z75         0.0599
     88 H44        14.2265    8.4746   24.2336 H         1 Z75         0.0559
     89 H45        15.9089    9.1702   22.5211 H         1 Z75         0.0599
     90 H46        17.5084   11.0091   23.0163 H         1 Z75         0.0558
@<TRIPOS>BOND
     1    5    1 ar 
     2   15    1 ar 
     3   30    2 1  
     4   16    3 am 
     5    3   17 1  
     6    3   18 1  
     7   16    4 2  
     8    9    5 ar 
     9    5   16 1  
    10   32    6 1  
    11    7   24 am 
    12   25    7 1  
    13   24    8 2  
    14   12    9 ar 
    15   34   10 1  
    16   10   37 1  
    17   26   11 1  
    18   12   14 ar 
    19   24   12 1  
    20   35   13 1  
    21   13   36 1  
    22   13   38 1  
    23   14   15 ar 
    24   15   23 1  
    25   17   21 1  
    26   18   19 1  
    27   19   20 1  
    28   21   22 1  
    29   26   25 1  
    30   25   27 1  
    31   34   26 1  
    32   27   28 1  
    33   28   29 ar 
    34   28   33 ar 
    35   29   30 ar 
    36   30   31 ar 
    37   32   31 ar 
    38   33   32 ar 
    39   34   35 1  
    40   36   37 1  
    41   38   39 1  
    42   39   40 ar 
    43   39   44 ar 
    44   40   41 ar 
    45   41   42 ar 
    46   42   43 ar 
    47   43   44 ar 
    48    1   45 1  
    49    7   46 1  
    50    9   47 1  
    51   10   48 1  
    52   10   49 1  
    53   11   50 1  
    54   13   51 1  
    55   14   52 1  
    56   17   53 1  
    57   17   54 1  
    58   18   55 1  
    59   18   56 1  
    60   19   57 1  
    61   19   58 1  
    62   20   59 1  
    63   20   60 1  
    64   20   61 1  
    65   21   62 1  
    66   21   63 1  
    67   22   64 1  
    68   22   65 1  
    69   22   66 1  
    70   23   67 1  
    71   23   68 1  
    72   23   69 1  
    73   25   70 1  
    74   26   71 1  
    75   27   72 1  
    76   27   73 1  
    77   29   74 1  
    78   31   75 1  
    79   33   76 1  
    80   34   77 1  
    81   35   78 1  
    82   35   79 1  
    83   36   80 1  
    84   36   81 1  
    85   37   82 1  
    86   37   83 1  
    87   38   84 1  
    88   38   85 1  
    89   40   86 1  
    90   41   87 1  
    91   42   88 1  
    92   43   89 1  
    93   44   90 1  
@<TRIPOS>SUBSTRUCTURE
     1 Z75         1

