### 
### Created by X-TOOL on Mon Sep 10 21:13:03 2018
### 

@<TRIPOS>MOLECULE
3lpk_ligand
   91    95     1     0     0
SMALL
GAST_HUCK


@<TRIPOS>ATOM
      1 C1         26.8180   15.4440   24.4540 C.ar      1 Z76        -0.0367
      2 F1         26.8000   10.9570   18.7530 F         1 Z76        -0.1863
      3 N1         28.5350   13.7020   21.9030 N.am      1 Z76        -0.2671
      4 O1         29.2400   13.5910   24.0520 O.2       1 Z76        -0.3844
      5 S1         17.8210   12.9150   25.2690 S.o2      1 Z76         0.0694
      6 C2         26.9870   14.2580   23.6810 C.ar      1 Z76         0.0490
      7 F2         22.6960   13.2920   18.1430 F         1 Z76        -0.1863
      8 N2         23.6440   11.7320   23.2570 N.am      1 Z76        -0.2784
      9 O2         22.2620   13.5200   23.1620 O.2       1 Z76        -0.3846
     10 C3         25.8400   13.4740   23.3350 C.ar      1 Z76        -0.0289
     11 N3         21.1940    9.9620   26.3420 N.4       1 Z76         0.2334
     12 O3         21.1370    8.9980   23.6200 O.3       1 Z76        -0.3837
     13 C4         24.5400   13.8700   23.7460 C.ar      1 Z76         0.0488
     14 N4         19.2910   12.0850   25.7630 N.am      1 Z76        -0.2237
     15 C5         24.3740   15.0610   24.5160 C.ar      1 Z76        -0.0367
     16 O5         29.2820   11.2170   22.5620 O.3       1 Z76        -0.3807
     17 C6         25.5140   15.8460   24.8690 C.ar      1 Z76        -0.0353
     18 O6         17.3120   13.5330   26.4560 O.2       1 Z76        -0.1502
     19 C7         28.3340   13.8310   23.2550 C.2       1 Z76         0.2072
     20 O7         18.1980   13.7170   24.1460 O.2       1 Z76        -0.1502
     21 C8         29.8470   13.2800   21.4110 C.3       1 Z76         0.0678
     22 C9         27.5740   13.9570   20.8380 C.3       1 Z76         0.0339
     23 C10        28.3900   14.2350   19.6000 C.3       1 Z76        -0.0304
     24 C11        29.8250   13.9050   20.0090 C.3       1 Z76        -0.0257
     25 C12        29.7950   11.7450   21.3470 C.3       1 Z76         0.0704
     26 C14        25.3430   17.0730   25.6640 C.3       1 Z76        -0.0293
     27 C15        23.3810   13.0550   23.3680 C.2       1 Z76         0.2049
     28 C16        22.5430   10.8400   22.8710 C.3       1 Z76         0.0820
     29 C17        22.0720    9.9840   24.0820 C.3       1 Z76         0.1235
     30 C18        23.0140    9.9060   21.7430 C.3       1 Z76         0.0048
     31 C19        23.6170   10.6880   20.5880 C.ar      1 Z76        -0.0445
     32 C20        24.9680   10.4490   20.2010 C.ar      1 Z76        -0.0310
     33 C21        25.5380   11.1780   19.1160 C.ar      1 Z76         0.1242
     34 C22        24.7650   12.1420   18.4180 C.ar      1 Z76        -0.0019
     35 C23        23.4180   12.3830   18.8020 C.ar      1 Z76         0.1242
     36 C24        22.8400   11.6570   19.8850 C.ar      1 Z76        -0.0310
     37 C25        20.0450   11.3900   24.6920 C.3       1 Z76         0.0751
     38 C27        19.1820   11.1940   26.9420 C.3       1 Z76         0.0698
     39 C28        20.5470   10.7280   27.4120 C.3       1 Z76        -0.0158
     40 C29        21.3940   10.8400   25.1800 C.3       1 Z76         0.0236
     41 C32        15.6250    9.8930   21.5440 C.3       1 Z76        -0.0311
     42 C34        29.5580    9.8250   22.6760 C.3       1 Z76         0.0365
     43 C35        15.9480   10.9250   25.7200 C.ar      1 Z76        -0.0421
     44 C36        15.0680    9.8830   25.3110 C.ar      1 Z76        -0.0667
     45 C37        14.9630    9.5440   23.9330 C.ar      1 Z76        -0.0605
     46 C38        15.7360   10.2450   22.9650 C.ar      1 Z76        -0.0442
     47 C39        16.6170   11.2870   23.3730 C.ar      1 Z76        -0.0340
     48 C40        16.7220   11.6270   24.7510 C.ar      1 Z76         0.1017
     49 H1         27.6811   16.0406   24.7265 H         1 Z76         0.0642
     50 H2         24.5605   11.3726   23.4326 H         1 Z76         0.1851
     51 H3         25.9655   12.5682   22.7529 H         1 Z76         0.0665
     52 H4         20.6083    9.1842   26.0812 H         1 Z76         0.2018
     53 H5         22.0854    9.6184   26.6635 H         1 Z76         0.2018
     54 H6         21.5586    8.4403   22.9769 H         1 Z76         0.2102
     55 H7         23.3840   15.3691   24.8323 H         1 Z76         0.0642
     56 H8         30.6904   13.6335   22.0223 H         1 Z76         0.0581
     57 H9         26.9491   14.8272   21.0873 H         1 Z76         0.0522
     58 H10        26.9324   13.0770   20.6833 H         1 Z76         0.0522
     59 H11        28.3024   15.2911   19.3050 H         1 Z76         0.0285
     60 H12        28.0652   13.5936   18.7675 H         1 Z76         0.0285
     61 H13        30.2539   13.1940   19.2876 H         1 Z76         0.0289
     62 H14        30.4228   14.8283   20.0135 H         1 Z76         0.0289
     63 H15        29.1441   11.4386   20.5149 H         1 Z76         0.0583
     64 H16        30.8099   11.3544   21.1817 H         1 Z76         0.0583
     65 H17        26.3247   17.5386   25.8353 H         1 Z76         0.0391
     66 H18        24.8824   16.8222   26.6309 H         1 Z76         0.0391
     67 H19        24.6942   17.7751   25.1198 H         1 Z76         0.0391
     68 H20        21.6993   11.4476   22.5118 H         1 Z76         0.0606
     69 H21        22.9472    9.4804   24.5184 H         1 Z76         0.0676
     70 H22        22.1532    9.3294   21.3735 H         1 Z76         0.0448
     71 H23        23.7726    9.2170   22.1427 H         1 Z76         0.0448
     72 H24        25.5619    9.7134   20.7313 H         1 Z76         0.0508
     73 H25        25.2013   12.6937   17.5932 H         1 Z76         0.0532
     74 H26        21.8115   11.8410   20.1739 H         1 Z76         0.0508
     75 H27        20.2300   12.1009   23.8732 H         1 Z76         0.0535
     76 H28        19.4370   10.5522   24.3199 H         1 Z76         0.0535
     77 H29        18.5774   10.3156   26.6721 H         1 Z76         0.0531
     78 H30        18.6896   11.7409   27.7596 H         1 Z76         0.0531
     79 H31        21.1663   11.6014   27.6645 H         1 Z76         0.0830
     80 H32        20.4314   10.0910   28.3013 H         1 Z76         0.0830
     81 H33        22.0482   11.6809   25.4536 H         1 Z76         0.0893
     82 H34        14.9020    9.0726   21.4249 H         1 Z76         0.0391
     83 H35        16.6078    9.5730   21.1676 H         1 Z76         0.0391
     84 H36        15.2820   10.7695   20.9748 H         1 Z76         0.0391
     85 H37        29.1493    9.4467   23.6246 H         1 Z76         0.0524
     86 H38        30.6459    9.6640   22.6554 H         1 Z76         0.0524
     87 H39        29.0920    9.2888   21.8362 H         1 Z76         0.0524
     88 H40        16.0293   11.1845   26.7693 H         1 Z76         0.0578
     89 H41        14.4792    9.3490   26.0480 H         1 Z76         0.0600
     90 H42        14.2935    8.7509   23.6201 H         1 Z76         0.0557
     91 H43        17.2063   11.8200   22.6356 H         1 Z76         0.0576
@<TRIPOS>BOND
     1    6    1 ar 
     2   17    1 ar 
     3   33    2 1  
     4   19    3 am 
     5    3   21 1  
     6    3   22 1  
     7   19    4 2  
     8    5   14 am 
     9    5   18 2  
    10    5   20 2  
    11   48    5 1  
    12   10    6 ar 
    13    6   19 1  
    14   35    7 1  
    15    8   27 am 
    16   28    8 1  
    17   27    9 2  
    18   13   10 ar 
    19   39   11 1  
    20   40   11 1  
    21   29   12 1  
    22   13   15 ar 
    23   27   13 1  
    24   14   37 1  
    25   14   38 1  
    26   15   17 ar 
    27   25   16 1  
    28   16   42 1  
    29   17   26 1  
    30   21   24 1  
    31   21   25 1  
    32   22   23 1  
    33   23   24 1  
    34   29   28 1  
    35   28   30 1  
    36   40   29 1  
    37   30   31 1  
    38   31   32 ar 
    39   31   36 ar 
    40   32   33 ar 
    41   33   34 ar 
    42   35   34 ar 
    43   36   35 ar 
    44   37   40 1  
    45   38   39 1  
    46   46   41 1  
    47   44   43 ar 
    48   43   48 ar 
    49   45   44 ar 
    50   45   46 ar 
    51   46   47 ar 
    52   47   48 ar 
    53    1   49 1  
    54    8   50 1  
    55   10   51 1  
    56   11   52 1  
    57   11   53 1  
    58   12   54 1  
    59   15   55 1  
    60   21   56 1  
    61   22   57 1  
    62   22   58 1  
    63   23   59 1  
    64   23   60 1  
    65   24   61 1  
    66   24   62 1  
    67   25   63 1  
    68   25   64 1  
    69   26   65 1  
    70   26   66 1  
    71   26   67 1  
    72   28   68 1  
    73   29   69 1  
    74   30   70 1  
    75   30   71 1  
    76   32   72 1  
    77   34   73 1  
    78   36   74 1  
    79   37   75 1  
    80   37   76 1  
    81   38   77 1  
    82   38   78 1  
    83   39   79 1  
    84   39   80 1  
    85   40   81 1  
    86   41   82 1  
    87   41   83 1  
    88   41   84 1  
    89   42   85 1  
    90   42   86 1  
    91   42   87 1  
    92   43   88 1  
    93   44   89 1  
    94   45   90 1  
    95   47   91 1  
@<TRIPOS>SUBSTRUCTURE
     1 Z76         1

