### 
### Created by X-TOOL on Mon Sep 10 21:13:02 2018
### 

@<TRIPOS>MOLECULE
3lpp_ligand
   50    50     1     0     0
SMALL
GAST_HUCK


@<TRIPOS>ATOM
      1 OAA        42.6470   59.5550   72.8240 O.3       1 KTL        -0.3924
      2 OAB        40.0720   55.7350   84.0270 O.3       1 KTL        -0.3900
      3 OAC        41.2560   57.7780   74.3250 O.3       1 KTL        -0.3869
      4 OAD        36.5150   59.1090   83.8500 O.3       1 KTL        -0.3844
      5 OAE        37.6510   58.0580   78.7070 O.3       1 KTL        -0.3844
      6 OAF        38.7030   59.3910   73.9830 O.3       1 KTL        -0.3865
      7 OAG        39.1760   58.8960   84.8880 O.3       1 KTL        -0.3840
      8 OAH        39.6160   57.1640   75.9630 O.3       1 KTL        -0.3864
      9 OAI        41.6450   61.4230   76.9670 O.co2     1 KTL        -0.4611
     10 OAJ        41.1400   61.0200   79.2730 O.co2     1 KTL        -0.4611
     11 OAK        43.1830   60.1080   78.3000 O.co2     1 KTL        -0.4611
     12 CAL        41.4410   60.0520   73.4210 C.3       1 KTL         0.0727
     13 CAM        40.7500   56.6760   83.1940 C.3       1 KTL         0.0944
     14 CAN        37.4150   58.0280   81.7850 C.3       1 KTL         0.1386
     15 CAO        39.5710   58.4240   80.1450 C.3       1 KTL         0.1386
     16 OAP        41.0030   59.0560   77.6610 O.3       1 KTL        -0.2570
     17 CAQ        41.0630   59.1770   74.6210 C.3       1 KTL         0.1065
     18 CAR        37.6700   58.8820   83.0350 C.3       1 KTL         0.1303
     19 CAS        39.0800   58.0570   78.7400 C.3       1 KTL         0.1304
     20 CAT        39.6290   59.4520   75.0930 C.3       1 KTL         0.1115
     21 CAU        38.7240   58.1130   83.8030 C.3       1 KTL         0.1349
     22 CAV        39.1640   58.5140   76.2170 C.3       1 KTL         0.1143
     23 CAW        39.8110   57.8080   82.7770 C.3       1 KTL         0.1711
     24 CAX        39.5880   58.9840   77.6190 C.3       1 KTL         0.1429
     25 SAY        38.9440   57.4870   81.3760 S.3       1 KTL         0.0029
     26 SAZ        41.7600   60.4420   78.0570 S.o2      1 KTL        -0.0733
     27 H1         43.3483   59.5766   73.4644 H         1 KTL         0.2095
     28 H2         39.7562   56.1747   84.8077 H         1 KTL         0.2096
     29 H3         41.0151   57.2589   75.0833 H         1 KTL         0.2100
     30 H4         35.8522   59.5591   83.3396 H         1 KTL         0.2101
     31 H5         37.3307   58.9228   78.9350 H         1 KTL         0.2101
     32 H6         38.9434   60.0430   73.3353 H         1 KTL         0.2100
     33 H7         39.8375   58.4145   85.3707 H         1 KTL         0.2101
     34 H8         40.5650   57.1517   75.9206 H         1 KTL         0.2100
     35 H9         40.6286   60.0276   72.6798 H         1 KTL         0.0584
     36 H10        41.5989   61.0871   73.7580 H         1 KTL         0.0584
     37 H11        41.1168   56.1617   82.2935 H         1 KTL         0.0608
     38 H12        41.6015   57.0992   83.7470 H         1 KTL         0.0608
     39 H13        36.9807   58.6329   80.9754 H         1 KTL         0.0867
     40 H14        36.7458   57.1851   82.0125 H         1 KTL         0.0867
     41 H15        39.2974   59.4715   80.3398 H         1 KTL         0.0867
     42 H16        40.6661   58.3218   80.1618 H         1 KTL         0.0867
     43 H17        41.7394   59.4387   75.4480 H         1 KTL         0.0643
     44 H18        38.0667   59.8613   82.7290 H         1 KTL         0.0668
     45 H19        39.4372   57.0398   78.5216 H         1 KTL         0.0668
     46 H20        39.6096   60.4766   75.4926 H         1 KTL         0.0647
     47 H21        38.3083   57.1723   84.1931 H         1 KTL         0.0672
     48 H22        38.0642   58.5061   76.1991 H         1 KTL         0.0648
     49 H23        40.4287   58.7053   82.6242 H         1 KTL         0.0928
     50 H24        39.1724   59.9881   77.7893 H         1 KTL         0.0674
@<TRIPOS>BOND
     1   12    1 1  
     2   13    2 1  
     3   17    3 1  
     4   18    4 1  
     5   19    5 1  
     6   20    6 1  
     7   21    7 1  
     8   22    8 1  
     9   26    9 ar 
    10   26   10 ar 
    11   26   11 ar 
    12   17   12 1  
    13   23   13 1  
    14   14   18 1  
    15   25   14 1  
    16   19   15 1  
    17   15   25 1  
    18   24   16 1  
    19   16   26 1  
    20   20   17 1  
    21   18   21 1  
    22   24   19 1  
    23   22   20 1  
    24   21   23 1  
    25   22   24 1  
    26   23   25 1  
    27    1   27 1  
    28    2   28 1  
    29    3   29 1  
    30    4   30 1  
    31    5   31 1  
    32    6   32 1  
    33    7   33 1  
    34    8   34 1  
    35   12   35 1  
    36   12   36 1  
    37   13   37 1  
    38   13   38 1  
    39   14   39 1  
    40   14   40 1  
    41   15   41 1  
    42   15   42 1  
    43   17   43 1  
    44   18   44 1  
    45   19   45 1  
    46   20   46 1  
    47   21   47 1  
    48   22   48 1  
    49   23   49 1  
    50   24   50 1  
@<TRIPOS>SUBSTRUCTURE
     1 KTL         1

