### 
### Created by X-TOOL on Mon Sep 10 21:13:04 2018
### 

@<TRIPOS>MOLECULE
3lpt_ligand
   33    35     1     0     0
SMALL
GAST_HUCK


@<TRIPOS>ATOM
      1 N          37.1750   33.5370    5.4660 N.am      1 723        -0.2295
      2 CL         39.7850   28.2510    6.1940 Cl        1 723        -0.0833
      3 C1         35.0010   32.6980    6.2910 C.2       1 723         0.0531
      4 O1         35.4360   34.9370    5.5720 O.2       1 723        -0.3961
      5 C2         33.5550   32.9650    6.6450 C.3       1 723         0.0422
      6 O2         34.4760   33.2870    8.8510 O.co2     1 723        -0.5660
      7 C3         35.5800   31.3570    6.5180 C.2       1 723        -0.0012
      8 O3         32.6040   34.2850    8.3780 O.co2     1 723        -0.5660
      9 C4         34.7660   30.2200    7.0090 C.ar      1 723        -0.0215
     10 C5         37.0080   31.1720    6.1580 C.ar      1 723         0.0075
     11 C6         37.7680   32.3420    5.6280 C.ar      1 723         0.0825
     12 C7         35.8850   33.7810    5.7600 C.2       1 723         0.2227
     13 C8         34.6520   29.8890    8.3530 C.ar      1 723        -0.0558
     14 C9         33.8600   28.7960    8.7060 C.ar      1 723        -0.0624
     15 C10        33.1980   28.0410    7.7360 C.ar      1 723        -0.0628
     16 C11        33.3170   28.3760    6.3910 C.ar      1 723        -0.0624
     17 C12        34.1060   29.4670    6.0320 C.ar      1 723        -0.0558
     18 C13        37.6430   29.9510    6.3190 C.ar      1 723        -0.0519
     19 C14        38.9880   29.8370    5.9750 C.ar      1 723         0.0257
     20 C15        39.7110   30.9250    5.4750 C.ar      1 723        -0.0601
     21 C16        39.1160   32.1760    5.3030 C.ar      1 723        -0.0364
     22 C17        33.5440   33.5450    8.0500 C.2       1 723         0.0474
     23 H          37.7365   34.3050    5.0981 H         1 723         0.2349
     24 H          32.9703   32.0461    6.6015 H         1 723         0.0603
     25 H          33.1055   33.6604    5.9361 H         1 723         0.0603
     26 H          35.1701   30.4706    9.1155 H         1 723         0.0613
     27 H          33.7563   28.5269    9.7572 H         1 723         0.0615
     28 H          32.5874   27.1883    8.0328 H         1 723         0.0608
     29 H          32.8002   27.7931    5.6286 H         1 723         0.0615
     30 H          34.2099   29.7361    4.9808 H         1 723         0.0613
     31 H          37.0977   29.0917    6.7094 H         1 723         0.0582
     32 H          40.7611   30.7932    5.2142 H         1 723         0.0585
     33 H          39.6973   33.0143    4.9191 H         1 723         0.0514
@<TRIPOS>BOND
     1   11    1 1  
     2    1   12 am 
     3   19    2 1  
     4    3    5 1  
     5    7    3 2  
     6    3   12 1  
     7   12    4 2  
     8    5   22 1  
     9   22    6 ar 
    10    7    9 1  
    11   10    7 1  
    12   22    8 ar 
    13    9   13 ar 
    14    9   17 ar 
    15   10   11 ar 
    16   18   10 ar 
    17   11   21 ar 
    18   13   14 ar 
    19   14   15 ar 
    20   16   15 ar 
    21   17   16 ar 
    22   18   19 ar 
    23   19   20 ar 
    24   20   21 ar 
    25    1   23 1  
    26    5   24 1  
    27    5   25 1  
    28   13   26 1  
    29   14   27 1  
    30   15   28 1  
    31   16   29 1  
    32   17   30 1  
    33   18   31 1  
    34   20   32 1  
    35   21   33 1  
@<TRIPOS>SUBSTRUCTURE
     1 723         1

