### 
### Created by X-TOOL on Mon Sep 10 21:13:03 2018
### 

@<TRIPOS>MOLECULE
3lpu_ligand
   44    46     1     0     0
SMALL
GAST_HUCK


@<TRIPOS>ATOM
      1 N          37.4400   33.9690    5.6730 N.ar      1 976        -0.3052
      2 CL         39.8140   28.5220    6.1010 Cl        1 976        -0.0708
      3 C1         39.1110   30.1590    5.9640 C.ar      1 976         0.0413
      4 O1         34.3750   33.7760    8.7190 O.co2     1 976        -0.5660
      5 C2         39.9050   31.2580    5.6390 C.ar      1 976        -0.0470
      6 O2         32.6370   34.8750    8.0220 O.co2     1 976        -0.5660
      7 C3         39.3650   32.5410    5.5390 C.ar      1 976        -0.0462
      8 C4         38.0060   32.7370    5.7620 C.ar      1 976         0.0313
      9 C5         37.1820   31.5490    6.1050 C.ar      1 976         0.0018
     10 C6         37.7520   30.2950    6.1970 C.ar      1 976        -0.0384
     11 C7         36.1120   34.1890    5.8910 C.ar      1 976         0.0299
     12 C8         35.1890   33.0800    6.2390 C.ar      1 976         0.0144
     13 C9         35.7390   31.7270    6.3600 C.ar      1 976         0.0075
     14 C10        34.8850   30.5670    6.6850 C.ar      1 976        -0.0131
     15 C11        33.7470   33.2840    6.4840 C.3       1 976         0.0506
     16 C12        33.6010   33.9950    7.8040 C.2       1 976         0.0500
     17 C13        33.1340   34.0700    5.3240 C.3       1 976        -0.0287
     18 C14        32.8580   33.1630    4.1250 C.3       1 976        -0.0523
     19 C15        31.8700   32.0640    4.4660 C.3       1 976        -0.0650
     20 C16        35.5570   35.5830    5.7750 C.3       1 976        -0.0148
     21 C17        34.5100   30.2860    7.9900 C.ar      1 976        -0.0528
     22 C18        33.7110   29.1770    8.2350 C.ar      1 976        -0.0604
     23 C19        33.2930   28.3540    7.1920 C.ar      1 976        -0.0610
     24 C20        33.6720   28.6450    5.8870 C.ar      1 976        -0.0604
     25 C21        34.4730   29.7540    5.6370 C.ar      1 976        -0.0528
     26 H          40.9701   31.1120    5.4592 H         1 976         0.0630
     27 H          40.0056   33.3862    5.2871 H         1 976         0.0616
     28 H          37.1432   29.4266    6.4487 H         1 976         0.0634
     29 H          33.2117   32.3360    6.5378 H         1 976         0.0631
     30 H          33.8375   34.8447    5.0190 H         1 976         0.0308
     31 H          32.1905   34.5022    5.6573 H         1 976         0.0308
     32 H          33.7968   32.6984    3.8235 H         1 976         0.0265
     33 H          32.4325   33.7707    3.3264 H         1 976         0.0265
     34 H          32.2732   31.4523    5.2731 H         1 976         0.0230
     35 H          30.9273   32.5101    4.7827 H         1 976         0.0230
     36 H          31.7020   31.4425    3.5865 H         1 976         0.0230
     37 H          34.7928   35.6050    4.9980 H         1 976         0.0424
     38 H          35.1170   35.8779    6.7276 H         1 976         0.0424
     39 H          36.3606   36.2722    5.5156 H         1 976         0.0424
     40 H          34.8370   30.9252    8.8101 H         1 976         0.0630
     41 H          33.4071   28.9477    9.2564 H         1 976         0.0620
     42 H          32.6701   27.4838    7.3988 H         1 976         0.0623
     43 H          33.3438   28.0085    5.0652 H         1 976         0.0620
     44 H          34.7781   29.9856    4.6165 H         1 976         0.0630
@<TRIPOS>BOND
     1    1    8 ar 
     2   11    1 ar 
     3    3    2 1  
     4    3    5 ar 
     5   10    3 ar 
     6   16    4 ar 
     7    7    5 ar 
     8   16    6 ar 
     9    8    7 ar 
    10    9    8 ar 
    11    9   10 ar 
    12   13    9 ar 
    13   12   11 ar 
    14   11   20 1  
    15   12   13 ar 
    16   15   12 1  
    17   13   14 1  
    18   14   21 ar 
    19   14   25 ar 
    20   15   16 1  
    21   15   17 1  
    22   17   18 1  
    23   18   19 1  
    24   21   22 ar 
    25   22   23 ar 
    26   23   24 ar 
    27   24   25 ar 
    28    5   26 1  
    29    7   27 1  
    30   10   28 1  
    31   15   29 1  
    32   17   30 1  
    33   17   31 1  
    34   18   32 1  
    35   18   33 1  
    36   19   34 1  
    37   19   35 1  
    38   19   36 1  
    39   20   37 1  
    40   20   38 1  
    41   20   39 1  
    42   21   40 1  
    43   22   41 1  
    44   23   42 1  
    45   24   43 1  
    46   25   44 1  
@<TRIPOS>SUBSTRUCTURE
     1 976         1

