### 
### Created by X-TOOL on Mon Sep 10 21:13:05 2018
### 

@<TRIPOS>MOLECULE
3lq5_ligand
   61    64     1     0     0
SMALL
GAST_HUCK


@<TRIPOS>ATOM
      1 N1         55.3360  -17.5040  -11.3650 N.ar      1 SLQ        -0.2560
      2 O1         52.5640  -20.6300  -12.4950 O.3       1 SLQ        -0.3927
      3 C2         53.9860  -17.4670  -11.4850 C.ar      1 SLQ         0.1544
      4 N2         53.1850  -18.5830  -11.0300 N.pl3     1 SLQ        -0.2923
      5 N3         53.3860  -16.3350  -11.9370 N.ar      1 SLQ        -0.2645
      6 C4         54.1220  -15.2610  -12.2740 C.ar      1 SLQ         0.1424
      7 C5         55.4730  -15.3040  -12.1610 C.ar      1 SLQ         0.0919
      8 C6         56.0670  -16.4410  -11.7000 C.ar      1 SLQ         0.1222
      9 N6         57.4890  -16.5040  -11.4960 N.pl3     1 SLQ        -0.2914
     10 N7         55.9610  -14.1320  -12.5600 N.2       1 SLQ        -0.3043
     11 C8         54.9160  -13.3570  -12.9260 C.2       1 SLQ         0.1048
     12 C9         52.4200  -13.6060  -12.9800 C.3       1 SLQ         0.0648
     13 N9         53.7810  -14.0610  -12.7440 N.pl3     1 SLQ        -0.2248
     14 C1'        59.3820  -17.8390  -12.1210 C.ar      1 SLQ        -0.0178
     15 C10        51.6790  -14.3280  -14.1040 C.3       1 SLQ        -0.0349
     16 C11        51.5930  -13.4670  -11.7050 C.3       1 SLQ        -0.0349
     17 C12        52.0570  -19.2990  -10.4650 C.3       1 SLQ         0.0634
     18 C13        50.7890  -18.4390  -10.5570 C.3       1 SLQ        -0.0304
     19 C14        49.4790  -19.1140  -10.1560 C.3       1 SLQ        -0.0631
     20 C15        51.8790  -20.5580  -11.2750 C.3       1 SLQ         0.0673
     21 C1B        61.1020  -19.7340  -15.3930 C.ar      1 SLQ         0.0481
     22 N1B        61.8240  -18.9440  -16.2670 N.ar      1 SLQ        -0.2940
     23 C2'        60.1650  -17.1100  -13.0120 C.ar      1 SLQ        -0.0551
     24 C2B        60.9340  -21.1080  -15.6340 C.ar      1 SLQ        -0.0287
     25 C3'        60.7360  -17.7670  -14.0950 C.ar      1 SLQ        -0.0567
     26 C3B        61.5130  -21.6670  -16.7460 C.ar      1 SLQ        -0.0433
     27 C4'        60.5150  -19.1370  -14.2840 C.ar      1 SLQ        -0.0068
     28 C4B        62.2370  -20.8740  -17.6090 C.ar      1 SLQ        -0.0355
     29 C5'        59.7060  -19.8630  -13.3830 C.ar      1 SLQ        -0.0567
     30 C5B        62.3990  -19.4980  -17.3760 C.ar      1 SLQ         0.0086
     31 C6'        59.1250  -19.2070  -12.2890 C.ar      1 SLQ        -0.0551
     32 CA'        58.7250  -17.0630  -11.0090 C.3       1 SLQ         0.0645
     33 H          52.3750  -21.4710  -12.9177 H         1 SLQ         0.2095
     34 H          53.8119  -19.3597  -11.2400 H         1 SLQ         0.1849
     35 H          57.8102  -15.6628  -11.9753 H         1 SLQ         0.1884
     36 H          54.9801  -12.3366  -13.3039 H         1 SLQ         0.1309
     37 H          52.5529  -12.5938  -13.3619 H         1 SLQ         0.0642
     38 H          52.2197  -14.1911  -15.0405 H         1 SLQ         0.0259
     39 H          51.6158  -15.3911  -13.8716 H         1 SLQ         0.0259
     40 H          50.6747  -13.9152  -14.1991 H         1 SLQ         0.0259
     41 H          51.5318  -14.4341  -11.2059 H         1 SLQ         0.0259
     42 H          52.0684  -12.7440  -11.0421 H         1 SLQ         0.0259
     43 H          50.5902  -13.1239  -11.9595 H         1 SLQ         0.0259
     44 H          52.2343  -19.5318   -9.4150 H         1 SLQ         0.0581
     45 H          50.6814  -18.1704  -11.6079 H         1 SLQ         0.0286
     46 H          50.9311  -17.6151   -9.8576 H         1 SLQ         0.0286
     47 H          49.3035  -19.9755  -10.8004 H         1 SLQ         0.0231
     48 H          49.5434  -19.4418   -9.1185 H         1 SLQ         0.0231
     49 H          48.6584  -18.4047  -10.2640 H         1 SLQ         0.0231
     50 H          52.2773  -21.3660  -10.6614 H         1 SLQ         0.0580
     51 H          50.8191  -20.6042  -11.5251 H         1 SLQ         0.0580
     52 H          60.3272  -16.0425  -12.8626 H         1 SLQ         0.0566
     53 H          60.3516  -21.7219  -14.9470 H         1 SLQ         0.0706
     54 H          61.3577  -17.2146  -14.7995 H         1 SLQ         0.0625
     55 H          61.4005  -22.7327  -16.9451 H         1 SLQ         0.0732
     56 H          62.6936  -21.3234  -18.4908 H         1 SLQ         0.0697
     57 H          59.5341  -20.9282  -13.5374 H         1 SLQ         0.0625
     58 H          62.9737  -18.8827  -18.0682 H         1 SLQ         0.0823
     59 H          58.4896  -19.7467  -11.5868 H         1 SLQ         0.0566
     60 H          58.5232  -17.7252  -10.1671 H         1 SLQ         0.0696
     61 H          59.3863  -16.2621  -10.6782 H         1 SLQ         0.0696
@<TRIPOS>BOND
     1    1    3 ar 
     2    8    1 ar 
     3   20    2 1  
     4    3    4 1  
     5    3    5 ar 
     6    4   17 1  
     7    6    5 ar 
     8    7    6 ar 
     9    6   13 1  
    10    8    7 ar 
    11    7   10 1  
    12    9    8 1  
    13   32    9 1  
    14   10   11 2  
    15   11   13 1  
    16   13   12 1  
    17   12   15 1  
    18   12   16 1  
    19   23   14 ar 
    20   14   31 ar 
    21   14   32 1  
    22   17   18 1  
    23   17   20 1  
    24   18   19 1  
    25   21   22 ar 
    26   21   24 ar 
    27   27   21 1  
    28   22   30 ar 
    29   25   23 ar 
    30   24   26 ar 
    31   25   27 ar 
    32   26   28 ar 
    33   27   29 ar 
    34   28   30 ar 
    35   29   31 ar 
    36    2   33 1  
    37    4   34 1  
    38    9   35 1  
    39   11   36 1  
    40   12   37 1  
    41   15   38 1  
    42   15   39 1  
    43   15   40 1  
    44   16   41 1  
    45   16   42 1  
    46   16   43 1  
    47   17   44 1  
    48   18   45 1  
    49   18   46 1  
    50   19   47 1  
    51   19   48 1  
    52   19   49 1  
    53   20   50 1  
    54   20   51 1  
    55   23   52 1  
    56   24   53 1  
    57   25   54 1  
    58   26   55 1  
    59   28   56 1  
    60   29   57 1  
    61   30   58 1  
    62   31   59 1  
    63   32   60 1  
    64   32   61 1  
@<TRIPOS>SUBSTRUCTURE
     1 SLQ         1

