### 
### Created by X-TOOL on Mon Sep 10 21:13:03 2018
### 

@<TRIPOS>MOLECULE
3lq8_ligand
   81    86     1     0     0
SMALL
GAST_HUCK


@<TRIPOS>ATOM
      1 C1         -4.1270    3.1380   30.7040 C.ar      1 88Z         0.1283
      2 C2         -5.0100    4.3010   30.5130 C.ar      1 88Z         0.1288
      3 C3         -4.5070    5.6010   30.3670 C.ar      1 88Z        -0.0216
      4 C4         -3.1310    5.7950   30.3810 C.ar      1 88Z         0.0168
      5 C5         -2.2500    4.6130   30.5820 C.ar      1 88Z         0.0268
      6 C6         -2.7380    3.3300   30.7410 C.ar      1 88Z        -0.0224
      7 N7         -2.5880    7.0190   30.2290 N.ar      1 88Z        -0.3289
      8 C8         -1.2580    7.2500   30.2170 C.ar      1 88Z        -0.0140
      9 C9         -0.3540    6.1810   30.4530 C.ar      1 88Z        -0.0096
     10 C10        -0.8220    4.8600   30.6120 C.ar      1 88Z         0.1344
     11 O11        -4.7660    1.9090   30.8150 O.3       1 88Z        -0.3209
     12 C12        -4.0970    0.6650   31.0330 C.3       1 88Z         0.0581
     13 O13        -6.3280    3.9790   30.5020 O.3       1 88Z        -0.3150
     14 O14        -0.0100    3.7510   30.7610 O.3       1 88Z        -0.2531
     15 C15         1.2820    3.8340   30.3260 C.ar      1 88Z         0.1420
     16 C16         1.6580    3.7710   28.9990 C.ar      1 88Z        -0.0398
     17 C17         2.9920    3.8710   28.6730 C.ar      1 88Z        -0.0498
     18 C18         3.9860    4.0490   29.6490 C.ar      1 88Z         0.0574
     19 C19         3.6530    4.0910   30.9980 C.ar      1 88Z        -0.0124
     20 C20         2.3080    4.0020   31.3610 C.ar      1 88Z         0.1549
     21 F21         1.8570    4.0670   32.6250 F         1 88Z        -0.1917
     22 N22         5.2660    4.1510   29.2260 N.am      1 88Z        -0.2395
     23 C23        -7.3870    4.9350   30.6280 C.3       1 88Z         0.0752
     24 C24        -8.6720    4.1240   30.7980 C.3       1 88Z         0.0153
     25 C25        -9.1570    3.8610   29.3920 C.3       1 88Z        -0.0292
     26 N26       -10.3380    3.0260   29.3180 N.4       1 88Z         0.2385
     27 C27       -10.6240    2.5090   27.9740 C.3       1 88Z        -0.0078
     28 C28       -12.1230    2.2180   27.8660 C.3       1 88Z         0.0878
     29 O29       -12.4340    1.3970   28.9820 O.3       1 88Z        -0.3693
     30 C30       -12.3360    2.2120   30.1590 C.3       1 88Z         0.0878
     31 C31       -10.8380    2.3140   30.4910 C.3       1 88Z        -0.0078
     32 C32         6.4110    3.8540   29.8760 C.2       1 88Z         0.2296
     33 C33         7.7140    3.9280   29.1010 C.3       1 88Z         0.1387
     34 C34         7.6440    4.1760   27.5770 C.2       1 88Z         0.2316
     35 N35         8.7740    4.3730   26.8710 N.am      1 88Z        -0.2358
     36 O36         6.4690    3.5060   31.0310 O.2       1 88Z        -0.3416
     37 O37         6.5800    4.5870   27.0980 O.2       1 88Z        -0.3396
     38 C38         8.7450    4.5550   25.5100 C.ar      1 88Z         0.0640
     39 C39         8.1720    5.7060   24.9340 C.ar      1 88Z        -0.0416
     40 C40         8.1180    5.9050   23.5480 C.ar      1 88Z        -0.0409
     41 C41         8.7120    4.9090   22.7350 C.ar      1 88Z         0.1166
     42 C42         9.2930    3.7690   23.2980 C.ar      1 88Z        -0.0409
     43 C43         9.3470    3.5810   24.6850 C.ar      1 88Z        -0.0416
     44 F44         8.7230    5.0430   21.3910 F         1 88Z        -0.1956
     45 C45         8.6780    2.8460   29.6270 C.3       1 88Z        -0.0349
     46 C46         8.9860    4.3190   29.8840 C.3       1 88Z        -0.0349
     47 H1         -5.1805    6.4416   30.2451 H         1 88Z         0.0484
     48 H2         -2.0648    2.4936   30.8905 H         1 88Z         0.0520
     49 H3         -0.8814    8.2487   30.0277 H         1 88Z         0.0770
     50 H4          0.7095    6.3826   30.5117 H         1 88Z         0.0545
     51 H5         -4.8381   -0.1464   31.0807 H         1 88Z         0.0575
     52 H6         -3.5403    0.7092   31.9807 H         1 88Z         0.0575
     53 H7         -3.3978    0.4747   30.2055 H         1 88Z         0.0575
     54 H8          0.9118    3.6443   28.2230 H         1 88Z         0.0516
     55 H9          3.2840    3.8105   27.6308 H         1 88Z         0.0456
     56 H10         4.4234    4.1910   31.7540 H         1 88Z         0.0473
     57 H11         5.3814    4.4973   28.2950 H         1 88Z         0.2247
     58 H12        -7.4467    5.5600   29.7248 H         1 88Z         0.0616
     59 H13        -7.2207    5.5754   31.5067 H         1 88Z         0.0616
     60 H14        -9.4200    4.6988   31.3638 H         1 88Z         0.0343
     61 H15        -8.4658    3.1775   31.3192 H         1 88Z         0.0343
     62 H16        -8.3484    3.3649   28.8352 H         1 88Z         0.0815
     63 H17        -9.3878    4.8275   28.9202 H         1 88Z         0.0815
     64 H18       -11.0242    3.7642   29.3312 H         1 88Z         0.2035
     65 H19       -10.0546    1.5831   27.8051 H         1 88Z         0.0837
     66 H20       -10.3377    3.2581   27.2211 H         1 88Z         0.0837
     67 H21       -12.3449    1.6897   26.9270 H         1 88Z         0.0613
     68 H22       -12.6997    3.1539   27.9053 H         1 88Z         0.0613
     69 H23       -12.8796    1.7437   30.9927 H         1 88Z         0.0613
     70 H24       -12.7520    3.2118   29.9655 H         1 88Z         0.0613
     71 H25       -10.6674    2.8873   31.4142 H         1 88Z         0.0837
     72 H26       -10.3772    1.3197   30.5864 H         1 88Z         0.0837
     73 H27         9.6528    4.3870   27.3480 H         1 88Z         0.2260
     74 H28         7.7577    6.4656   25.5870 H         1 88Z         0.0499
     75 H29         7.6439    6.7800   23.1183 H         1 88Z         0.0568
     76 H30         9.7120    3.0119   22.6451 H         1 88Z         0.0568
     77 H31         9.8366    2.7132   25.1120 H         1 88Z         0.0499
     78 H32         9.2957    2.2712   28.9212 H         1 88Z         0.0240
     79 H33         8.3717    2.1960   30.4598 H         1 88Z         0.0240
     80 H34         8.9006    4.7286   30.9013 H         1 88Z         0.0240
     81 H35         9.8246    4.8038   29.3627 H         1 88Z         0.0240
@<TRIPOS>BOND
     1    1    2 ar 
     2    1    6 ar 
     3    1   11 1  
     4    2    3 ar 
     5    2   13 1  
     6    3    4 ar 
     7    4    5 ar 
     8    4    7 ar 
     9    5    6 ar 
    10    5   10 ar 
    11    7    8 ar 
    12    8    9 ar 
    13    9   10 ar 
    14   10   14 1  
    15   11   12 1  
    16   13   23 1  
    17   14   15 1  
    18   15   16 ar 
    19   15   20 ar 
    20   16   17 ar 
    21   17   18 ar 
    22   18   19 ar 
    23   18   22 1  
    24   19   20 ar 
    25   20   21 1  
    26   22   32 am 
    27   23   24 1  
    28   24   25 1  
    29   25   26 1  
    30   26   27 1  
    31   26   31 1  
    32   27   28 1  
    33   28   29 1  
    34   29   30 1  
    35   30   31 1  
    36   32   33 1  
    37   32   36 2  
    38   33   34 1  
    39   33   45 1  
    40   33   46 1  
    41   34   35 am 
    42   34   37 2  
    43   35   38 1  
    44   38   39 ar 
    45   38   43 ar 
    46   39   40 ar 
    47   40   41 ar 
    48   41   42 ar 
    49   41   44 1  
    50   42   43 ar 
    51   45   46 1  
    52    3   47 1  
    53    6   48 1  
    54    8   49 1  
    55    9   50 1  
    56   12   51 1  
    57   12   52 1  
    58   12   53 1  
    59   16   54 1  
    60   17   55 1  
    61   19   56 1  
    62   22   57 1  
    63   23   58 1  
    64   23   59 1  
    65   24   60 1  
    66   24   61 1  
    67   25   62 1  
    68   25   63 1  
    69   26   64 1  
    70   27   65 1  
    71   27   66 1  
    72   28   67 1  
    73   28   68 1  
    74   30   69 1  
    75   30   70 1  
    76   31   71 1  
    77   31   72 1  
    78   35   73 1  
    79   39   74 1  
    80   40   75 1  
    81   42   76 1  
    82   43   77 1  
    83   45   78 1  
    84   45   79 1  
    85   46   80 1  
    86   46   81 1  
@<TRIPOS>SUBSTRUCTURE
     1 88Z         1

