### 
### Created by X-TOOL on Mon Sep 10 21:13:04 2018
### 

@<TRIPOS>MOLECULE
3ls4_ligand
   53    55     1     0     0
SMALL
GAST_HUCK


@<TRIPOS>ATOM
      1 C1         29.0150   19.9760  -32.0420 C.ar      1 TCI        -0.0490
      2 O1         27.1890   21.4940  -31.9010 O.3       1 TCI        -0.3197
      3 C2         30.1380   19.5470  -32.7250 C.ar      1 TCI        -0.0667
      4 O2         30.0360   21.7900  -35.6130 O.3       1 TCI        -0.3413
      5 C3         30.4930   20.1700  -33.9280 C.ar      1 TCI        -0.0493
      6 C4         29.7100   21.2460  -34.4170 C.ar      1 TCI         0.0760
      7 C5         28.6090   21.6850  -33.6790 C.ar      1 TCI         0.0146
      8 C6         28.2930   21.0600  -32.5290 C.ar      1 TCI         0.0802
      9 C7         27.5520   22.7750  -34.0670 C.3       1 TCI        -0.0029
     10 C8         28.3500   23.8630  -34.8620 C.2       1 TCI        -0.0989
     11 C9         27.9470   25.1910  -34.9040 C.2       1 TCI        -0.0822
     12 C10        26.7040   25.5380  -34.1470 C.3       1 TCI        -0.0277
     13 C11        25.7580   24.3870  -33.8040 C.3       1 TCI        -0.0361
     14 C12        26.6440   23.4360  -32.9690 C.3       1 TCI         0.0050
     15 C13        25.9820   22.1990  -32.4140 C.3       1 TCI         0.0898
     16 C14        25.1160   22.5600  -31.2120 C.3       1 TCI        -0.0314
     17 C15        25.3030   21.2740  -33.4530 C.3       1 TCI        -0.0314
     18 C16        28.7780   26.3100  -35.5420 C.3       1 TCI        -0.0400
     19 C17        30.9520   18.4100  -32.0530 C.3       1 TCI        -0.0270
     20 C18        30.1610   17.1280  -31.9220 C.3       1 TCI        -0.0445
     21 C19        30.9940   16.0910  -31.1180 C.3       1 TCI        -0.0516
     22 C20        30.3050   14.7300  -31.0220 C.3       1 TCI        -0.0558
     23 C21        31.2140   13.7710  -30.2270 C.3       1 TCI        -0.0653
     24 H1         28.7003   19.4720  -31.1353 H         1 TCI         0.0374
     25 H2         29.9824   21.1236  -36.2879 H         1 TCI         0.2452
     26 H3         31.3612   19.8316  -34.4819 H         1 TCI         0.0374
     27 H4         26.8522   22.2881  -34.7621 H         1 TCI         0.0481
     28 H5         29.2502   23.5684  -35.3993 H         1 TCI         0.0257
     29 H6         26.1391   26.2635  -34.7507 H         1 TCI         0.0412
     30 H7         27.0114   26.0083  -33.2013 H         1 TCI         0.0412
     31 H8         25.3960   23.8893  -34.7157 H         1 TCI         0.0293
     32 H9         24.8998   24.7441  -33.2158 H         1 TCI         0.0293
     33 H10        27.1907   23.9869  -32.1895 H         1 TCI         0.0367
     34 H11        24.2121   23.0842  -31.5556 H         1 TCI         0.0261
     35 H12        25.6839   23.2142  -30.5342 H         1 TCI         0.0261
     36 H13        24.8272   21.6420  -30.6792 H         1 TCI         0.0261
     37 H14        24.4049   21.7680  -33.8521 H         1 TCI         0.0261
     38 H15        25.0171   20.3279  -32.9702 H         1 TCI         0.0261
     39 H16        26.0045   21.0688  -34.2751 H         1 TCI         0.0261
     40 H17        29.6488   25.8740  -36.0535 H         1 TCI         0.0377
     41 H18        29.1213   27.0032  -34.7600 H         1 TCI         0.0377
     42 H19        28.1603   26.8557  -36.2704 H         1 TCI         0.0377
     43 H20        31.2562   18.7404  -31.0489 H         1 TCI         0.0411
     44 H21        31.8472   18.2111  -32.6604 H         1 TCI         0.0411
     45 H22        29.9422   16.7272  -32.9227 H         1 TCI         0.0286
     46 H23        29.2176   17.3305  -31.3938 H         1 TCI         0.0286
     47 H24        31.1515   16.4785  -30.1006 H         1 TCI         0.0267
     48 H25        31.9665   15.9591  -31.6148 H         1 TCI         0.0267
     49 H26        30.1366   14.3282  -32.0320 H         1 TCI         0.0263
     50 H27        29.3402   14.8391  -30.5052 H         1 TCI         0.0263
     51 H28        30.7298   12.7863  -30.1501 H         1 TCI         0.0230
     52 H29        31.3821   14.1767  -29.2185 H         1 TCI         0.0230
     53 H30        32.1785   13.6658  -30.7454 H         1 TCI         0.0230
@<TRIPOS>BOND
     1    3    1 ar 
     2    1    8 ar 
     3    8    2 1  
     4    2   15 1  
     5    5    3 ar 
     6    3   19 1  
     7    6    4 1  
     8    5    6 ar 
     9    6    7 ar 
    10    7    8 ar 
    11    7    9 1  
    12    9   10 1  
    13    9   14 1  
    14   10   11 2  
    15   11   12 1  
    16   11   18 1  
    17   12   13 1  
    18   13   14 1  
    19   14   15 1  
    20   15   16 1  
    21   15   17 1  
    22   19   20 1  
    23   20   21 1  
    24   21   22 1  
    25   22   23 1  
    26    1   24 1  
    27    4   25 1  
    28    5   26 1  
    29    9   27 1  
    30   10   28 1  
    31   12   29 1  
    32   12   30 1  
    33   13   31 1  
    34   13   32 1  
    35   14   33 1  
    36   16   34 1  
    37   16   35 1  
    38   16   36 1  
    39   17   37 1  
    40   17   38 1  
    41   17   39 1  
    42   18   40 1  
    43   18   41 1  
    44   18   42 1  
    45   19   43 1  
    46   19   44 1  
    47   20   45 1  
    48   20   46 1  
    49   21   47 1  
    50   21   48 1  
    51   22   49 1  
    52   22   50 1  
    53   23   51 1  
    54   23   52 1  
    55   23   53 1  
@<TRIPOS>SUBSTRUCTURE
     1 TCI         1

