### 
### Created by X-TOOL on Mon Sep 10 21:13:03 2018
### 

@<TRIPOS>MOLECULE
3luo_ligand
   82    83     1     0     0
SMALL
GAST_HUCK


@<TRIPOS>ATOM
      1 C1         16.2240  -17.0060  -23.3300 C.2       1 SIN         0.0351
      2 O1         17.4530  -17.0550  -23.5560 O.co2     1 SIN        -0.5690
      3 O2         15.3850  -16.7460  -24.2180 O.co2     1 SIN        -0.5690
      4 C2         15.7380  -17.2760  -21.9240 C.3       1 SIN         0.0077
      5 C3         14.2130  -17.2640  -21.8800 C.3       1 SIN         0.0281
      6 C4         13.7070  -18.6270  -21.4660 C.3       1 SIN         0.0839
      7 O3         14.3430  -19.6320  -21.7370 O.3       1 SIN        -0.3530
      8 N          12.5040  -18.5470  -22.0340 N.4       1 ALA         0.2677
      9 CA         11.5060  -19.2670  -22.8210 C.3       1 ALA         0.0665
     10 C          10.3810  -18.3530  -23.3030 C.2       1 ALA         0.2266
     11 O          10.4780  -17.7470  -24.3720 O.2       1 ALA        -0.3907
     12 CB         10.9400  -20.4350  -22.0240 C.3       1 ALA        -0.0038
     13 N           9.3130  -18.2650  -22.5140 N.am      1 LEU        -0.2610
     14 CA          8.1540  -17.4470  -22.8680 C.3       1 LEU         0.1315
     15 C           8.5670  -15.9930  -23.1380 C.2       1 LEU         0.2064
     16 O           9.5860  -15.5330  -22.6200 O.2       1 LEU        -0.3942
     17 CB          7.0990  -17.5200  -21.7580 C.3       1 LEU        -0.0101
     18 CG          6.7470  -18.9290  -21.2710 C.3       1 LEU        -0.0425
     19 CD1         5.6980  -18.8970  -20.1550 C.3       1 LEU        -0.0625
     20 CD2         6.2790  -19.7930  -22.4330 C.3       1 LEU        -0.0625
     21 N           7.7740  -15.2560  -23.9410 N.am      1 PRO        -0.2498
     22 CA          6.4770  -15.5860  -24.5550 C.3       1 PRO         0.1338
     23 C           6.5290  -16.6940  -25.6100 C.2       1 PRO         0.2042
     24 O           7.2830  -16.5940  -26.5820 O.2       1 PRO        -0.3944
     25 CB          6.0640  -14.2710  -25.2320 C.3       1 PRO        -0.0104
     26 CG          6.9040  -13.2190  -24.6030 C.3       1 PRO        -0.0281
     27 CD          8.1950  -13.8870  -24.2840 C.3       1 PRO         0.0369
     28 N           5.7120  -17.7270  -25.4210 N.am      1 ALA        -0.2600
     29 CA          5.5840  -18.7990  -26.4030 C.3       1 ALA         0.1748
     30 C           4.1270  -18.9820  -26.8260 C.2       1 ALA         0.3876
     31 O           3.8010  -19.8940  -27.5870 O.2       1 ALA        -0.2799
     32 CB          6.1500  -20.1010  -25.8520 C.3       1 ALA        -0.0199
     33 N1          3.0420  -18.2350  -26.6230 N.am      1 NIT        -0.0835
     34 C1          1.7680  -18.0480  -27.0530 C.ar      1 NIT         0.3148
     35 C2          1.5070  -17.9670  -28.4170 C.ar      1 NIT         0.1241
     36 C3          0.2060  -17.7760  -28.8670 C.ar      1 NIT         0.0809
     37 C4         -0.8370  -17.6700  -27.9530 C.ar      1 NIT         0.1874
     38 N4         -2.1440  -17.4790  -28.4180 N.2       1 NIT        -0.1366
     39 ON1        -2.3300  -17.0980  -29.5630 O.2       1 NIT        -0.4480
     40 ON2        -3.1640  -17.7190  -27.6340 O.2       1 NIT        -0.4480
     41 C5         -0.5790  -17.7510  -26.5880 C.ar      1 NIT         0.0809
     42 C6          0.7240  -17.9400  -26.1380 C.ar      1 NIT         0.1241
     43 H          16.1195  -16.5001  -21.2603 H         1 SIN         0.0433
     44 H          16.0957  -18.2552  -21.6055 H         1 SIN         0.0433
     45 H          13.8240  -17.0180  -22.8681 H         1 SIN         0.0364
     46 H          13.8773  -16.5186  -21.1590 H         1 SIN         0.0364
     47 H          13.7613  -18.7879  -20.3893 H         1 SIN         0.1185
     48 H          15.1905  -19.6041  -21.2869 H         1 SIN         0.2154
     49 H          12.8005  -17.9363  -22.7952 H         1 ALA         0.2063
     50 H          11.9837  -18.5938  -21.1579 H         1 ALA         0.2063
     51 H          12.0104  -19.6521  -23.7072 H         1 ALA         0.1097
     52 H          11.7469  -21.1195  -21.7623 H         1 ALA         0.0310
     53 H          10.4712  -20.0593  -21.1145 H         1 ALA         0.0310
     54 H          10.1983  -20.9591  -22.6268 H         1 ALA         0.0310
     55 H           9.3026  -18.7838  -21.6359 H         1 LEU         0.1884
     56 H           7.7199  -17.8420  -23.7865 H         1 LEU         0.0800
     57 H           6.1835  -17.0982  -22.1729 H         1 LEU         0.0315
     58 H           7.5149  -16.9910  -20.9005 H         1 LEU         0.0315
     59 H           7.6511  -19.3712  -20.8524 H         1 LEU         0.0298
     60 H           6.0856  -18.3280  -19.3099 H         1 LEU         0.0232
     61 H           4.7886  -18.4244  -20.5263 H         1 LEU         0.0232
     62 H           5.4760  -19.9158  -19.8375 H         1 LEU         0.0232
     63 H           5.3954  -19.3431  -22.8858 H         1 LEU         0.0232
     64 H           7.0739  -19.8626  -23.1756 H         1 LEU         0.0232
     65 H           6.0336  -20.7900  -22.0670 H         1 LEU         0.0232
     66 H           5.7909  -15.9649  -23.7975 H         1 PRO         0.0802
     67 H           5.0018  -14.0682  -25.0955 H         1 PRO         0.0313
     68 H           6.2169  -14.3121  -26.3104 H         1 PRO         0.0313
     69 H           6.4324  -12.8095  -23.7097 H         1 PRO         0.0287
     70 H           7.0462  -12.3676  -25.2685 H         1 PRO         0.0287
     71 H           8.9062  -13.8547  -25.1094 H         1 PRO         0.0524
     72 H           8.7410  -13.3954  -23.4788 H         1 PRO         0.0524
     73 H           5.1591  -17.7710  -24.5650 H         1 ALA         0.1885
     74 H           6.1593  -18.5193  -27.2855 H         1 ALA         0.0845
     75 H           7.2046  -19.9647  -25.6125 H         1 ALA         0.0278
     76 H           5.6045  -20.3801  -24.9505 H         1 ALA         0.0278
     77 H           6.0446  -20.8868  -26.5999 H         1 ALA         0.0278
     78 H           3.2392  -17.5650  -25.8796 H         1 NIT         0.4309
     79 H           2.3237  -18.0534  -29.1336 H         1 NIT         0.1344
     80 H           0.0031  -17.7093  -29.9359 H         1 NIT         0.1018
     81 H          -1.3966  -17.6665  -25.8722 H         1 NIT         0.1018
     82 H           0.9275  -18.0035  -25.0691 H         1 NIT         0.1344
@<TRIPOS>BOND
     1    1    2 ar 
     2    1    3 ar 
     3    1    4 1  
     4    4    5 1  
     5    5    6 1  
     6    6    7 1  
     7    6    8 1  
     8    8    9 1  
     9    9   10 1  
    10    9   12 1  
    11   10   11 2  
    12   10   13 am 
    13   13   14 1  
    14   14   15 1  
    15   14   17 1  
    16   15   16 2  
    17   15   21 am 
    18   17   18 1  
    19   18   19 1  
    20   18   20 1  
    21   21   22 1  
    22   21   27 1  
    23   22   23 1  
    24   22   25 1  
    25   23   24 2  
    26   23   28 am 
    27   25   26 1  
    28   26   27 1  
    29   28   29 1  
    30   29   30 1  
    31   29   32 1  
    32   30   31 2  
    33   30   33 am 
    34   33   34 1  
    35   34   35 ar 
    36   34   42 ar 
    37   35   36 ar 
    38   36   37 ar 
    39   37   38 1  
    40   37   41 ar 
    41   38   39 2  
    42   38   40 2  
    43   41   42 ar 
    44    4   43 1  
    45    4   44 1  
    46    5   45 1  
    47    5   46 1  
    48    6   47 1  
    49    7   48 1  
    50    8   49 1  
    51    8   50 1  
    52    9   51 1  
    53   12   52 1  
    54   12   53 1  
    55   12   54 1  
    56   13   55 1  
    57   14   56 1  
    58   17   57 1  
    59   17   58 1  
    60   18   59 1  
    61   19   60 1  
    62   19   61 1  
    63   19   62 1  
    64   20   63 1  
    65   20   64 1  
    66   20   65 1  
    67   22   66 1  
    68   25   67 1  
    69   25   68 1  
    70   26   69 1  
    71   26   70 1  
    72   27   71 1  
    73   27   72 1  
    74   28   73 1  
    75   29   74 1  
    76   32   75 1  
    77   32   76 1  
    78   32   77 1  
    79   33   78 1  
    80   35   79 1  
    81   36   80 1  
    82   41   81 1  
    83   42   82 1  
@<TRIPOS>SUBSTRUCTURE
     1 SIN         1

