### 
### Created by X-TOOL on Mon Sep 10 21:13:04 2018
### 

@<TRIPOS>MOLECULE
3lvp_ligand
   39    42     1     0     0
SMALL
GAST_HUCK


@<TRIPOS>ATOM
      1 CL          1.4650   57.3500   16.7910 Cl        1 PDR        -0.0673
      2 C1          2.6170   52.6810   12.7820 C.ar      1 PDR         0.0327
      3 C2          2.8760   51.6660   11.8810 C.ar      1 PDR         0.0772
      4 C3          2.8050   50.3280   12.3290 C.ar      1 PDR         0.0001
      5 C4          2.4670   50.0280   13.6850 C.ar      1 PDR         0.1380
      6 C5          2.2110   51.1220   14.5690 C.ar      1 PDR         0.1788
      7 N6          2.2810   52.4260   14.1310 N.ar      1 PDR        -0.3035
      8 C7          2.7360   53.9290   12.1410 C.2       1 PDR         0.0204
      9 C8          3.0870   53.5760   10.8140 C.2       1 PDR         0.0450
     10 N9          3.1740   52.1930   10.6550 N.pl3     1 PDR        -0.2626
     11 C10         2.1370   56.9050   14.1150 C.ar      1 PDR         0.0057
     12 C11         2.4390   57.4250   12.8440 C.ar      1 PDR         0.1303
     13 N12         2.6990   56.4140   11.9500 N.pl3     1 PDR        -0.2657
     14 C13         2.5380   55.2900   12.7450 C.2       1 PDR         0.0475
     15 C14         2.1840   55.5020   14.1150 C.2       1 PDR        -0.0604
     16 C15         1.8730   59.2820   14.8710 C.ar      1 PDR        -0.0409
     17 C16         2.1940   59.6820   13.5320 C.ar      1 PDR        -0.0092
     18 N17         2.4680   58.7870   12.5480 N.ar      1 PDR        -0.2902
     19 C18         1.8460   57.8830   15.1640 C.ar      1 PDR         0.0429
     20 C20         3.5150   51.4620    9.4160 C.3       1 PDR         0.0427
     21 O21         1.8810   50.8380   15.9130 O.3       1 PDR        -0.3108
     22 C22         1.3220   51.9500   16.6210 C.3       1 PDR         0.0596
     23 O23         2.3800   48.7270   14.1920 O.3       1 PDR        -0.3220
     24 C24         1.5400   47.7920   13.4990 C.3       1 PDR         0.0575
     25 H           3.0104   49.5151   11.6325 H         1 PDR         0.0558
     26 H           3.2668   54.2965   10.0161 H         1 PDR         0.1020
     27 H           2.9454   56.4748   10.9621 H         1 PDR         0.2257
     28 H           2.0045   54.7877   14.9185 H         1 PDR         0.0230
     29 H           1.6563   60.0217   15.6417 H         1 PDR         0.0594
     30 H           2.2191   60.7456   13.2947 H         1 PDR         0.0718
     31 H           2.7852   51.7006    8.6424 H         1 PDR         0.0571
     32 H           4.5096   51.7584    9.0828 H         1 PDR         0.0571
     33 H           3.5008   50.3900    9.6126 H         1 PDR         0.0571
     34 H           2.0394   52.7705   16.6309 H         1 PDR         0.0577
     35 H           0.4066   52.2720   16.1246 H         1 PDR         0.0577
     36 H           1.0960   51.6509   17.6445 H         1 PDR         0.0577
     37 H           0.5154   48.1637   13.4896 H         1 PDR         0.0574
     38 H           1.8952   47.6760   12.4750 H         1 PDR         0.0574
     39 H           1.5738   46.8287   14.0079 H         1 PDR         0.0574
@<TRIPOS>BOND
     1   19    1 1  
     2    2    3 ar 
     3    2    7 ar 
     4    8    2 1  
     5    3    4 ar 
     6   10    3 1  
     7    4    5 ar 
     8    6    5 ar 
     9    5   23 1  
    10    7    6 ar 
    11    6   21 1  
    12    8    9 2  
    13   14    8 1  
    14    9   10 1  
    15   10   20 1  
    16   11   12 ar 
    17   11   15 1  
    18   19   11 ar 
    19   12   13 1  
    20   12   18 ar 
    21   14   13 1  
    22   15   14 2  
    23   16   17 ar 
    24   16   19 ar 
    25   17   18 ar 
    26   21   22 1  
    27   23   24 1  
    28    4   25 1  
    29    9   26 1  
    30   13   27 1  
    31   15   28 1  
    32   16   29 1  
    33   17   30 1  
    34   20   31 1  
    35   20   32 1  
    36   20   33 1  
    37   22   34 1  
    38   22   35 1  
    39   22   36 1  
    40   24   37 1  
    41   24   38 1  
    42   24   39 1  
@<TRIPOS>SUBSTRUCTURE
     1 PDR         1

