### 
### Created by X-TOOL on Mon Sep 10 21:13:03 2018
### 

@<TRIPOS>MOLECULE
3lxe_ligand
   43    45     1     0     0
SMALL
GAST_HUCK


@<TRIPOS>ATOM
      1 CAT       -19.9080   36.8120   44.8220 C.3       1 TOR        -0.0107
      2 CAU       -18.7750   36.7690   43.8230 C.3       1 TOR         0.1686
      3 CAV       -19.1420   37.4720   42.5230 C.3       1 TOR        -0.0107
      4 OAR       -18.4590   35.3750   43.5640 O.3       1 TOR        -0.3130
      5 OAQ       -17.5480   37.2210   44.4390 O.3       1 TOR        -0.3378
      6 CAK       -16.4530   36.5000   43.8620 C.3       1 TOR         0.1466
      7 CAG       -15.2490   36.5550   44.8130 C.3       1 TOR         0.1215
      8 OAF       -14.1100   36.2060   44.0390 O.3       1 TOR        -0.3406
      9 CAE       -13.1970   35.3780   44.7740 C.3       1 TOR         0.1656
     10 CAD       -11.9740   36.1530   45.2700 C.3       1 TOR        -0.0108
     11 CAJ       -12.8890   34.1700   43.9370 C.3       1 TOR        -0.0108
     12 OAA       -13.9620   34.9420   45.9070 O.3       1 TOR        -0.3410
     13 CAB       -15.2210   35.5930   46.0320 C.3       1 TOR         0.1140
     14 CAC       -16.2800   34.5000   46.0330 C.3       1 TOR         0.0799
     15 OAH       -16.7340   34.1490   44.7020 O.3       1 TOR        -0.3418
     16 CAL       -17.0710   35.0810   43.6810 C.3       1 TOR         0.2280
     17 CAM       -16.5960   34.2960   42.4820 C.3       1 TOR         0.1347
     18 OAN       -16.7790   35.0520   41.2480 O.3       1 TOR        -0.2173
     19 SAO       -16.3050   34.4690   39.8670 S.o2      1 TOR         0.1598
     20 OAS       -17.3240   33.5430   39.5350 O.2       1 TOR        -0.1270
     21 OAI       -16.1080   35.6540   39.1060 O.2       1 TOR        -0.1270
     22 NAP       -14.9310   33.7020   40.0820 N.am      1 TOR        -0.2415
     23 H1        -20.8346   36.4659   44.3406 H         1 TOR         0.0281
     24 H2        -20.0434   37.8437   45.1787 H         1 TOR         0.0281
     25 H3        -19.6709   36.1576   45.6738 H         1 TOR         0.0281
     26 H4        -18.2935   37.4185   41.8250 H         1 TOR         0.0281
     27 H5        -19.3802   38.5257   42.7305 H         1 TOR         0.0281
     28 H6        -20.0174   36.9797   42.0743 H         1 TOR         0.0281
     29 H7        -16.1601   36.9196   42.8883 H         1 TOR         0.0679
     30 H8        -15.1617   37.5853   45.1882 H         1 TOR         0.0652
     31 H9        -11.3804   36.4919   44.4081 H         1 TOR         0.0281
     32 H10       -11.3582   35.4990   45.9049 H         1 TOR         0.0281
     33 H11       -12.3043   37.0251   45.8533 H         1 TOR         0.0281
     34 H12       -12.1891   33.5171   44.4791 H         1 TOR         0.0281
     35 H13       -12.4332   34.4881   42.9878 H         1 TOR         0.0281
     36 H14       -13.8190   33.6198   43.7310 H         1 TOR         0.0281
     37 H15       -15.2924   36.1691   46.9663 H         1 TOR         0.0647
     38 H16       -17.1441   34.8498   46.6170 H         1 TOR         0.0588
     39 H17       -15.8564   33.6022   46.5068 H         1 TOR         0.0588
     40 H18       -17.1691   33.3594   42.4168 H         1 TOR         0.0639
     41 H19       -15.5278   34.0645   42.6054 H         1 TOR         0.0639
     42 H20       -14.4767   33.2632   39.3067 H         1 TOR         0.1654
     43 H21       -14.5202   33.6579   40.9927 H         1 TOR         0.1654
@<TRIPOS>BOND
     1    1    2 1  
     2    2    3 1  
     3    2    4 1  
     4    2    5 1  
     5    4   16 1  
     6    5    6 1  
     7    6    7 1  
     8    6   16 1  
     9    7    8 1  
    10    7   13 1  
    11    8    9 1  
    12    9   10 1  
    13    9   11 1  
    14    9   12 1  
    15   12   13 1  
    16   13   14 1  
    17   14   15 1  
    18   15   16 1  
    19   16   17 1  
    20   17   18 1  
    21   18   19 1  
    22   19   20 2  
    23   19   21 2  
    24   19   22 am 
    25    1   23 1  
    26    1   24 1  
    27    1   25 1  
    28    3   26 1  
    29    3   27 1  
    30    3   28 1  
    31    6   29 1  
    32    7   30 1  
    33   10   31 1  
    34   10   32 1  
    35   10   33 1  
    36   11   34 1  
    37   11   35 1  
    38   11   36 1  
    39   13   37 1  
    40   14   38 1  
    41   14   39 1  
    42   17   40 1  
    43   17   41 1  
    44   22   42 1  
    45   22   43 1  
@<TRIPOS>SUBSTRUCTURE
     1 TOR         1

