### 
### Created by X-TOOL on Mon Sep 10 21:13:02 2018
### 

@<TRIPOS>MOLECULE
3lxg_ligand
   39    41     1     0     0
SMALL
GAST_HUCK


@<TRIPOS>ATOM
      1 C1         14.4540   15.2040  -11.0020 C.ar      1 Z73         0.1261
      2 C2         14.3880   15.6980   -9.6930 C.ar      1 Z73         0.1103
      3 N3         13.6970   15.8320  -12.0020 N.ar      1 Z73        -0.1841
      4 N4         13.6040   16.7480   -9.4040 N.ar      1 Z73        -0.2820
      5 C5         12.8950   16.9260  -11.6630 C.ar      1 Z73         0.1701
      6 C6         12.8650   17.3780  -10.3370 C.ar      1 Z73         0.2070
      7 C7         11.3270   19.1390  -10.9570 C.ar      1 Z73         0.2645
      8 N8         12.0860   18.4710  -10.0020 N.ar      1 Z73        -0.1381
      9 C9         11.3520   18.6900  -12.2750 C.ar      1 Z73         0.0647
     10 C10        12.1360   17.5940  -12.6190 C.ar      1 Z73         0.0338
     11 C11        13.7320   17.0210   -8.0890 C.2       1 Z73         0.0959
     12 N12        14.5840   16.1380   -7.5120 N.pl3     1 Z73        -0.3147
     13 C13        15.0050   15.3150   -8.4930 C.2       1 Z73         0.0522
     14 C14        15.3100   14.0200  -11.3770 C.3       1 Z73         0.0208
     15 C15        15.9790   14.1920   -8.2360 C.3       1 Z73        -0.0328
     16 C16        13.0310   18.0920   -7.3100 C.3       1 Z73        -0.0081
     17 C17        11.6980   17.4430   -6.8970 C.3       1 Z73        -0.0509
     18 C18        10.7420   18.3330   -6.0940 C.3       1 Z73        -0.0642
     19 O19        10.5670   20.2170  -10.5740 O.3       1 Z73        -0.2520
     20 C20        10.3430   20.4910   -9.1860 C.3       1 Z73         0.0823
     21 H1         10.7614   19.1939  -13.0315 H         1 Z73         0.0835
     22 H2         12.1561   17.2547  -13.6483 H         1 Z73         0.1152
     23 H3         14.8560   16.1030   -6.5192 H         1 Z73         0.2464
     24 H4         15.2023   13.8157  -12.4525 H         1 Z73         0.0590
     25 H5         14.9888   13.1387  -10.8025 H         1 Z73         0.0590
     26 H6         16.3631   14.2422  -11.1496 H         1 Z73         0.0590
     27 H7         16.1774   13.6564   -9.1761 H         1 Z73         0.0308
     28 H8         15.5498   13.4954   -7.5008 H         1 Z73         0.0308
     29 H9         16.9200   14.6053   -7.8438 H         1 Z73         0.0308
     30 H10        12.8560   18.9794   -7.9360 H         1 Z73         0.0357
     31 H11        13.6172   18.3780   -6.4242 H         1 Z73         0.0357
     32 H12        11.9287   16.5582   -6.2856 H         1 Z73         0.0277
     33 H13        11.1771   17.1296   -7.8137 H         1 Z73         0.0277
     34 H14         9.8285   17.7684   -5.8558 H         1 Z73         0.0231
     35 H15        10.4799   19.2202   -6.6891 H         1 Z73         0.0231
     36 H16        11.2316   18.6488   -5.1610 H         1 Z73         0.0231
     37 H17         9.7153   21.3888   -9.0862 H         1 Z73         0.0629
     38 H18        11.3077   20.6606   -8.6854 H         1 Z73         0.0629
     39 H19         9.8340   19.6341   -8.7206 H         1 Z73         0.0629
@<TRIPOS>BOND
     1    1    2 ar 
     2    1    3 ar 
     3    1   14 1  
     4    2    4 ar 
     5    2   13 2  
     6    3    5 ar 
     7    4    6 ar 
     8    4   11 2  
     9    5    6 ar 
    10    5   10 ar 
    11    6    8 ar 
    12    8    7 ar 
    13    7    9 ar 
    14    7   19 1  
    15    9   10 ar 
    16   11   12 1  
    17   11   16 1  
    18   12   13 1  
    19   13   15 1  
    20   16   17 1  
    21   17   18 1  
    22   19   20 1  
    23    9   21 1  
    24   10   22 1  
    25   12   23 1  
    26   14   24 1  
    27   14   25 1  
    28   14   26 1  
    29   15   27 1  
    30   15   28 1  
    31   15   29 1  
    32   16   30 1  
    33   16   31 1  
    34   17   32 1  
    35   17   33 1  
    36   18   34 1  
    37   18   35 1  
    38   18   36 1  
    39   20   37 1  
    40   20   38 1  
    41   20   39 1  
@<TRIPOS>SUBSTRUCTURE
     1 Z73         1

