### 
### Created by X-TOOL on Mon Sep 10 21:13:03 2018
### 

@<TRIPOS>MOLECULE
3lxk_ligand
   43    45     1     0     0
SMALL
GAST_HUCK


@<TRIPOS>ATOM
      1 C1          0.7260   15.7350    5.4100 C.3       1 MI1         0.0666
      2 C2          1.7900   16.8120    5.5120 C.3       1 MI1         0.0578
      3 C4          2.8080   15.6940    7.4290 C.3       1 MI1         0.0343
      4 C5          1.7000   14.6620    7.4460 C.3       1 MI1        -0.0277
      5 C6          0.4230   15.1790    6.8080 C.3       1 MI1        -0.0164
      6 N3          2.9870   16.2430    6.1130 N.am      1 MI1        -0.2692
      7 O21         4.2210   16.5720    4.2380 O.2       1 MI1        -0.3945
      8 C20         4.1440   16.1520    5.3790 C.2       1 MI1         0.2046
      9 C22         5.3220   15.5240    6.0770 C.3       1 MI1         0.1612
     10 C23         6.4300   15.3090    5.1680 C.1       1 MI1         0.1115
     11 N24         7.2990   15.0780    4.4380 N.1       1 MI1        -0.3008
     12 C7         -0.2050   16.2060    7.7500 C.3       1 MI1        -0.0601
     13 N8         -0.5650   16.2350    4.9240 N.pl3     1 MI1        -0.2856
     14 C9         -0.7470   17.6270    4.6020 C.3       1 MI1         0.0221
     15 C10        -1.3940   15.3750    4.1710 C.ar      1 MI1         0.1212
     16 C15        -1.2690   13.9880    4.0410 C.ar      1 MI1         0.0435
     17 C16        -0.3750   12.9580    4.4740 C.2       1 MI1        -0.0545
     18 C11        -0.8250   11.7580    3.9870 C.2       1 MI1         0.0249
     19 N12        -1.9660   12.0070    3.2910 N.pl3     1 MI1        -0.2665
     20 C14        -2.2400   13.3380    3.3070 C.ar      1 MI1         0.1355
     21 N17        -3.2950   13.8650    2.6890 N.ar      1 MI1        -0.2772
     22 C18        -3.2980   15.1830    2.8830 C.ar      1 MI1         0.0500
     23 N19        -2.4480   15.9530    3.5690 N.ar      1 MI1        -0.2730
     24 H1          1.0905   14.9370    4.7464 H         1 MI1         0.0587
     25 H2          1.4201   17.6372    6.1382 H         1 MI1         0.0546
     26 H3          2.0272   17.1919    4.5073 H         1 MI1         0.0546
     27 H4          3.7464   15.2182    7.7499 H         1 MI1         0.0522
     28 H5          2.5522   16.5066    8.1249 H         1 MI1         0.0522
     29 H6          1.4881   14.3873    8.4898 H         1 MI1         0.0288
     30 H7          2.0365   13.7722    6.8937 H         1 MI1         0.0288
     31 H8         -0.2821   14.3425    6.6933 H         1 MI1         0.0322
     32 H9          5.0128   14.5558    6.4977 H         1 MI1         0.0800
     33 H10         5.6510   16.1885    6.8895 H         1 MI1         0.0800
     34 H11        -1.1332   16.5929    7.3043 H         1 MI1         0.0233
     35 H12         0.4989   17.0361    7.9093 H         1 MI1         0.0233
     36 H13        -0.4327   15.7281    8.7142 H         1 MI1         0.0233
     37 H14        -1.7789   17.7920    4.2585 H         1 MI1         0.0492
     38 H15        -0.0451   17.9139    3.8051 H         1 MI1         0.0492
     39 H16        -0.5561   18.2383    5.4964 H         1 MI1         0.0492
     40 H17         0.5133   13.1029    5.0871 H         1 MI1         0.0311
     41 H18        -0.3557   10.7859    4.1309 H         1 MI1         0.0922
     42 H19        -2.5388   11.2918    2.8206 H         1 MI1         0.2318
     43 H20        -4.1172   15.7133    2.4111 H         1 MI1         0.0975
@<TRIPOS>BOND
     1    2    1 1  
     2    1    5 1  
     3    1   13 1  
     4    6    2 1  
     5    3    4 1  
     6    3    6 1  
     7    4    5 1  
     8    5   12 1  
     9    6    8 am 
    10    8    7 2  
    11    8    9 1  
    12    9   10 1  
    13   10   11 3  
    14   13   14 1  
    15   13   15 1  
    16   15   16 ar 
    17   15   23 ar 
    18   16   17 1  
    19   16   20 ar 
    20   17   18 2  
    21   18   19 1  
    22   19   20 1  
    23   20   21 ar 
    24   21   22 ar 
    25   22   23 ar 
    26    1   24 1  
    27    2   25 1  
    28    2   26 1  
    29    3   27 1  
    30    3   28 1  
    31    4   29 1  
    32    4   30 1  
    33    5   31 1  
    34    9   32 1  
    35    9   33 1  
    36   12   34 1  
    37   12   35 1  
    38   12   36 1  
    39   14   37 1  
    40   14   38 1  
    41   14   39 1  
    42   17   40 1  
    43   18   41 1  
    44   19   42 1  
    45   22   43 1  
@<TRIPOS>SUBSTRUCTURE
     1 MI1         1

