### 
### Created by X-TOOL on Mon Sep 10 21:13:03 2018
### 

@<TRIPOS>MOLECULE
3lxl_ligand
   39    42     1     0     0
SMALL
GAST_HUCK


@<TRIPOS>ATOM
      1 O0         -2.8790   13.5630    2.7270 O.2       1 IZA        -0.3903
      2 C11        -1.8130   13.2280    3.2460 C.2       1 IZA         0.1765
      3 N2         -1.4780   11.9060    3.3560 N.2       1 IZA        -0.2514
      4 C12        -0.2970   11.4250    3.8890 C.2       1 IZA         0.0382
      5 C13         0.6130   12.2730    4.3800 C.3       1 IZA         0.0550
      6 C9          0.3360   13.7010    4.3320 C.ar      1 IZA         0.0278
      7 C1          1.2530   14.5970    4.8430 C.ar      1 IZA         0.1106
      8 C10        -0.8320   14.2260    3.7800 C.ar      1 IZA         0.0474
      9 C8         -1.0700   15.6020    3.7430 C.ar      1 IZA        -0.0066
     10 C7         -2.2290   16.1700    3.2060 C.ar      1 IZA        -0.0201
     11 C6         -2.4070   17.5410    3.1960 C.ar      1 IZA         0.1360
     12 F1         -3.5440   18.0760    2.6530 F         1 IZA        -0.1788
     13 C5         -1.4540   18.4010    3.7210 C.ar      1 IZA        -0.0234
     14 C4         -0.2940   17.8580    4.2590 C.ar      1 IZA        -0.0469
     15 C3         -0.1270   16.4860    4.2640 C.ar      1 IZA         0.0307
     16 C0          1.0500   15.9630    4.8210 C.ar      1 IZA         0.1313
     17 N1          2.1140   16.6110    5.4000 N.pl3     1 IZA        -0.2394
     18 C2          2.9700   15.6730    5.7670 C.2       1 IZA         0.1067
     19 N0          2.4820   14.4340    5.4500 N.2       1 IZA        -0.2508
     20 C14         4.2680   15.8830    6.4690 C.3       1 IZA        -0.0142
     21 C17         5.0540   14.5930    6.6050 C.3       1 IZA        -0.0861
     22 C16         3.8560   16.3250    7.8570 C.3       1 IZA        -0.0861
     23 C15         5.1230   16.9580    5.8420 C.3       1 IZA        -0.0861
     24 H1         -0.1071   10.3529    3.9092 H         1 IZA         0.1324
     25 H2          1.5460   12.1054    3.8219 H         1 IZA         0.0780
     26 H3          0.7652   12.0082    5.4367 H         1 IZA         0.0780
     27 H4         -2.9978   15.5274    2.7923 H         1 IZA         0.0585
     28 H5         -1.6109   19.4736    3.7117 H         1 IZA         0.0598
     29 H6          0.4728   18.5041    4.6709 H         1 IZA         0.0669
     30 H7          2.2232   17.6277    5.5238 H         1 IZA         0.2422
     31 H8          6.0011   14.7941    7.1270 H         1 IZA         0.0116
     32 H9          5.2656   14.1854    5.6055 H         1 IZA         0.0116
     33 H10         4.4654   13.8640    7.1812 H         1 IZA         0.0116
     34 H11         3.2826   17.2612    7.7885 H         1 IZA         0.0116
     35 H12         4.7537   16.4890    8.4712 H         1 IZA         0.0116
     36 H13         3.2323   15.5461    8.3199 H         1 IZA         0.0116
     37 H14         5.4261   16.6431    4.8325 H         1 IZA         0.0116
     38 H15         6.0186   17.1210    6.4596 H         1 IZA         0.0116
     39 H16         4.5473   17.8930    5.7770 H         1 IZA         0.0116
@<TRIPOS>BOND
     1    1    2 2  
     2    2    3 1  
     3    2    8 1  
     4    3    4 2  
     5    4    5 1  
     6    5    6 1  
     7    6    7 ar 
     8    6    8 ar 
     9    7   16 ar 
    10    7   19 1  
    11    8    9 ar 
    12    9   10 ar 
    13    9   15 ar 
    14   10   11 ar 
    15   11   12 1  
    16   11   13 ar 
    17   13   14 ar 
    18   14   15 ar 
    19   15   16 ar 
    20   16   17 1  
    21   17   18 1  
    22   18   19 2  
    23   18   20 1  
    24   20   21 1  
    25   20   22 1  
    26   20   23 1  
    27    4   24 1  
    28    5   25 1  
    29    5   26 1  
    30   10   27 1  
    31   13   28 1  
    32   14   29 1  
    33   17   30 1  
    34   21   31 1  
    35   21   32 1  
    36   21   33 1  
    37   22   34 1  
    38   22   35 1  
    39   22   36 1  
    40   23   37 1  
    41   23   38 1  
    42   23   39 1  
@<TRIPOS>SUBSTRUCTURE
     1 IZA         1

