### 
### Created by X-TOOL on Mon Sep 10 21:13:03 2018
### 

@<TRIPOS>MOLECULE
3ly2_ligand
   46    49     1     0     0
SMALL
GAST_HUCK


@<TRIPOS>ATOM
      1 C1        -12.8940   42.0090   41.5780 C.ar      1 Z72         0.1654
      2 C2        -12.4930   42.0180   42.9380 C.ar      1 Z72         0.1611
      3 O3        -11.1540   41.7480   43.2860 O.3       1 Z72        -0.3210
      4 C4        -10.5670   40.6820   42.5160 C.3       1 Z72         0.0763
      5 C5        -10.1420   39.5230   43.4280 C.3       1 Z72        -0.0230
      6 C6         -8.6100   39.5340   43.4990 C.3       1 Z72        -0.0503
      7 C7         -8.1190   40.6790   42.6000 C.3       1 Z72        -0.0503
      8 C8         -9.3140   41.1630   41.7900 C.3       1 Z72        -0.0230
      9 C9        -13.4590   42.2210   43.9480 C.ar      1 Z72         0.1197
     10 CA        -12.2480   41.9510   39.2050 C.2       1 Z72         0.2327
     11 OA        -11.8900   41.8680   40.5650 O.3       1 Z72        -0.2238
     12 OB        -11.3010   41.8550   38.3870 O.2       1 Z72        -0.3965
     13 O10       -13.0500   42.2610   45.3020 O.3       1 Z72        -0.3236
     14 C11       -14.0290   42.8150   46.1930 C.3       1 Z72         0.0580
     15 C12       -14.8410   42.4190   43.6170 C.ar      1 Z72        -0.0430
     16 C13       -15.2330   42.4020   42.2430 C.ar      1 Z72        -0.0680
     17 C14       -14.2400   42.1990   41.2070 C.ar      1 Z72         0.0400
     18 C15       -14.5740   42.1860   39.8560 C.2       1 Z72         0.0723
     19 N16       -15.9660   42.2050   39.5040 N.pl3     1 Z72        -0.2576
     20 C17       -13.6340   42.1280   38.8840 C.2       1 Z72         0.0197
     21 C18       -16.4120   41.9600   38.1420 C.ar      1 Z72         0.1119
     22 C19       -16.9860   42.9600   37.4380 C.ar      1 Z72         0.0908
     23 CL20      -17.2570   44.4730   38.1850 Cl        1 Z72        -0.0695
     24 C21       -17.3390   42.7650   36.0810 C.ar      1 Z72         0.0127
     25 N22       -17.1100   41.5420   35.4490 N.ar      1 Z72        -0.3131
     26 C23       -16.5250   40.5360   36.2010 C.ar      1 Z72         0.0127
     27 C24       -16.1810   40.7520   37.5610 C.ar      1 Z72         0.0908
     28 CL25      -15.5270   39.4770   38.4850 Cl        1 Z72        -0.0695
     29 H         -11.3220   40.3536   41.8018 H         1 Z72         0.0640
     30 H         -10.4994   38.5731   43.0305 H         1 Z72         0.0293
     31 H         -10.5716   39.6420   44.4227 H         1 Z72         0.0293
     32 H          -8.2042   38.5806   43.1607 H         1 Z72         0.0266
     33 H          -8.2754   39.6828   44.5256 H         1 Z72         0.0266
     34 H          -7.3236   40.3333   41.9398 H         1 Z72         0.0266
     35 H          -7.7106   41.4905   43.2023 H         1 Z72         0.0266
     36 H          -9.3093   42.2498   41.7062 H         1 Z72         0.0293
     37 H          -9.2791   40.7663   40.7753 H         1 Z72         0.0293
     38 H         -14.2523   43.8391   45.8940 H         1 Z72         0.0576
     39 H         -14.9385   42.2159   46.1493 H         1 Z72         0.0576
     40 H         -13.6372   42.8093   47.2101 H         1 Z72         0.0576
     41 H         -15.5804   42.5799   44.4015 H         1 Z72         0.0463
     42 H         -16.2799   42.5418   41.9738 H         1 Z72         0.0525
     43 H         -16.6593   42.3951   40.2276 H         1 Z72         0.2199
     44 H         -13.9356   42.2173   37.8404 H         1 Z72         0.0309
     45 H         -17.7961   43.5815   35.5220 H         1 Z72         0.0790
     46 H         -16.3266   39.5671   35.7427 H         1 Z72         0.0790
@<TRIPOS>BOND
     1    1    2 ar 
     2    1   11 1  
     3    1   17 ar 
     4    2    3 1  
     5    2    9 ar 
     6    3    4 1  
     7    4    5 1  
     8    4    8 1  
     9    5    6 1  
    10    6    7 1  
    11    7    8 1  
    12    9   13 1  
    13    9   15 ar 
    14   11   10 1  
    15   10   12 2  
    16   10   20 1  
    17   13   14 1  
    18   15   16 ar 
    19   16   17 ar 
    20   17   18 1  
    21   18   19 1  
    22   18   20 2  
    23   19   21 1  
    24   21   22 ar 
    25   21   27 ar 
    26   22   23 1  
    27   22   24 ar 
    28   24   25 ar 
    29   25   26 ar 
    30   26   27 ar 
    31   27   28 1  
    32    4   29 1  
    33    5   30 1  
    34    5   31 1  
    35    6   32 1  
    36    6   33 1  
    37    7   34 1  
    38    7   35 1  
    39    8   36 1  
    40    8   37 1  
    41   14   38 1  
    42   14   39 1  
    43   14   40 1  
    44   15   41 1  
    45   16   42 1  
    46   19   43 1  
    47   20   44 1  
    48   24   45 1  
    49   26   46 1  
@<TRIPOS>SUBSTRUCTURE
     1 Z72         1

