### 
### Created by X-TOOL on Mon Sep 10 21:13:07 2018
### 

@<TRIPOS>MOLECULE
3lzb_ligand
   72    78     1     0     0
SMALL
GAST_HUCK


@<TRIPOS>ATOM
      1 C4         15.7310    7.2150   -4.6190 C.ar      1 ITI        -0.0767
      2 C5         15.9960    7.8550   -3.4340 C.ar      1 ITI        -0.0723
      3 C6         19.9780    2.7350   -5.8490 C.ar      1 ITI        -0.0579
      4 C7         19.8650    0.5560   -4.8720 C.ar      1 ITI        -0.0579
      5 C8         13.3330   12.0430    2.5220 C.ar      1 ITI        -0.0528
      6 C10        16.1820    5.9370   -4.8070 C.ar      1 ITI        -0.0430
      7 C13        13.8500    7.1610   -1.4780 C.ar      1 ITI        -0.0244
      8 C15        12.4960    7.1050   -1.6000 C.ar      1 ITI         0.0049
      9 C17        19.2590    1.7440   -5.2150 C.ar      1 ITI        -0.0238
     10 C20        16.8630    5.2930   -3.8040 C.ar      1 ITI         0.0641
     11 C21        14.3280    8.0380   -0.5410 C.ar      1 ITI         0.0663
     12 C22        16.8250    7.8290   -1.1300 C.2       1 ITI         0.0316
     13 C24        12.2620    8.6740    0.0570 C.ar      1 ITI         0.1965
     14 C26        15.8070    9.2680    1.9420 C.2       1 ITI         0.0648
     15 C28        17.2850    3.2670   -5.1250 C.2       1 ITI         0.2149
     16 C1         21.9260    1.3230   -5.8050 C.ar      1 ITI        -0.0684
     17 C2         21.3100    2.5140   -6.1330 C.ar      1 ITI        -0.0681
     18 C3         21.1960    0.3430   -5.1700 C.ar      1 ITI        -0.0681
     19 C9         11.2390   11.7270    3.6830 C.ar      1 ITI        -0.0528
     20 C11        12.9790   11.0740    1.6200 C.ar      1 ITI        -0.0489
     21 C12        10.9010   10.7750    2.7500 C.ar      1 ITI        -0.0489
     22 C14        17.0810    5.9200   -2.6070 C.ar      1 ITI        -0.0377
     23 C16        16.6770    7.2130   -2.4260 C.ar      1 ITI        -0.0347
     24 C18        12.4700   12.3220    3.5640 C.ar      1 ITI         0.0295
     25 C19        11.7720   10.4210    1.7440 C.ar      1 ITI         0.0529
     26 C23        15.7470    8.1830   -0.3400 C.2       1 ITI         0.1195
     27 C25        17.6240    8.6570    0.6260 C.2       1 ITI         0.2159
     28 C27        16.8380    9.6330    2.7150 C.2       1 ITI         0.0235
     29 C29        14.0770   13.8760    4.5700 C.3       1 ITI         0.0482
     30 C30        11.8660   13.3660    5.6180 C.3       1 ITI         0.0482
     31 C31        13.9810   14.9860    5.5980 C.3       1 ITI         0.0670
     32 C32        12.8010   13.2890    6.8090 C.3       1 ITI         0.0670
     33 C33        17.8200    1.8960   -4.8840 C.3       1 ITI         0.0762
     34 N34        11.7090    7.8660   -0.8480 N.ar      1 ITI        -0.2629
     35 N35        13.5710    8.7820    0.2520 N.ar      1 ITI        -0.2596
     36 N36        18.0140    8.1210   -0.5130 N.2       1 ITI        -0.3035
     37 N37        16.2850    8.7110    0.7860 N.pl3     1 ITI        -0.1952
     38 N38        12.7750   13.2520    4.5270 N.pl3     1 ITI        -0.3103
     39 N39        11.3800    9.4570    0.8130 N.pl3     1 ITI        -0.2505
     40 N40        17.3050    3.9630   -3.9340 N.am      1 ITI        -0.2330
     41 O41        16.9050    3.6460   -6.2300 O.2       1 ITI        -0.3820
     42 O42        13.5800   14.4850    6.8900 O.3       1 ITI        -0.3759
     43 S43        18.4130    9.2930    2.0410 S.3       1 ITI         0.0091
     44 H          15.1666    7.7201   -5.4028 H         1 ITI         0.0574
     45 H          15.6632    8.8830   -3.2902 H         1 ITI         0.0479
     46 H          19.5022    3.6771   -6.1213 H         1 ITI         0.0561
     47 H          19.2917   -0.2190   -4.3633 H         1 ITI         0.0561
     48 H          14.2749   12.5818    2.4195 H         1 ITI         0.0490
     49 H          16.0003    5.4296   -5.7544 H         1 ITI         0.0490
     50 H          14.5125    6.5466   -2.0876 H         1 ITI         0.0621
     51 H          12.0503    6.4251   -2.3261 H         1 ITI         0.0860
     52 H          14.7539    9.3943    2.1933 H         1 ITI         0.0897
     53 H          22.9766    1.1603   -6.0455 H         1 ITI         0.0561
     54 H          21.8876    3.2957   -6.6264 H         1 ITI         0.0600
     55 H          21.6695   -0.6016   -4.9025 H         1 ITI         0.0600
     56 H          10.5549   11.9988    4.4869 H         1 ITI         0.0490
     57 H          13.6537   10.8193    0.8027 H         1 ITI         0.0507
     58 H           9.9257   10.2918    2.8079 H         1 ITI         0.0507
     59 H          17.5779    5.3869   -1.7964 H         1 ITI         0.0479
     60 H          16.7046   10.1052    3.6883 H         1 ITI         0.0649
     61 H          14.8490   13.1557    4.8408 H         1 ITI         0.0532
     62 H          14.3566   14.2691    3.5925 H         1 ITI         0.0532
     63 H          11.2701   14.2783    5.5926 H         1 ITI         0.0532
     64 H          11.0942   12.5963    5.6219 H         1 ITI         0.0532
     65 H          13.2321   15.7024    5.2604 H         1 ITI         0.0579
     66 H          14.9639   15.4463    5.6986 H         1 ITI         0.0579
     67 H          13.4654   12.4330    6.6913 H         1 ITI         0.0579
     68 H          12.2148   13.1778    7.7212 H         1 ITI         0.0579
     69 H          17.7087    1.6874   -3.8199 H         1 ITI         0.0664
     70 H          17.2656    1.2141   -5.5288 H         1 ITI         0.0664
     71 H          10.3800    9.3126    0.6734 H         1 ITI         0.2143
     72 H          17.6590    3.4885   -3.1034 H         1 ITI         0.2255
@<TRIPOS>BOND
     1    2    1 ar 
     2    1    6 ar 
     3   23    2 ar 
     4    9    3 ar 
     5    3   17 ar 
     6    9    4 ar 
     7    4   18 ar 
     8    5   20 ar 
     9   24    5 ar 
    10   10    6 ar 
    11    8    7 ar 
    12   11    7 ar 
    13   34    8 ar 
    14   33    9 1  
    15   22   10 ar 
    16   10   40 1  
    17   11   26 1  
    18   35   11 ar 
    19   12   23 1  
    20   26   12 2  
    21   12   36 1  
    22   13   34 ar 
    23   13   35 ar 
    24   39   13 1  
    25   14   28 2  
    26   37   14 1  
    27   15   33 1  
    28   40   15 am 
    29   15   41 2  
    30   17   16 ar 
    31   18   16 ar 
    32   19   21 ar 
    33   24   19 ar 
    34   20   25 ar 
    35   21   25 ar 
    36   23   22 ar 
    37   38   24 1  
    38   25   39 1  
    39   26   37 1  
    40   27   36 2  
    41   37   27 1  
    42   27   43 1  
    43   43   28 1  
    44   29   31 1  
    45   38   29 1  
    46   30   32 1  
    47   30   38 1  
    48   31   42 1  
    49   32   42 1  
    50    1   44 1  
    51    2   45 1  
    52    3   46 1  
    53    4   47 1  
    54    5   48 1  
    55    6   49 1  
    56    7   50 1  
    57    8   51 1  
    58   14   52 1  
    59   16   53 1  
    60   17   54 1  
    61   18   55 1  
    62   19   56 1  
    63   20   57 1  
    64   21   58 1  
    65   22   59 1  
    66   28   60 1  
    67   29   61 1  
    68   29   62 1  
    69   30   63 1  
    70   30   64 1  
    71   31   65 1  
    72   31   66 1  
    73   32   67 1  
    74   32   68 1  
    75   33   69 1  
    76   33   70 1  
    77   39   71 1  
    78   40   72 1  
@<TRIPOS>SUBSTRUCTURE
     1 ITI         1

