### 
### Created by X-TOOL on Mon Sep 10 21:13:03 2018
### 

@<TRIPOS>MOLECULE
3lzs_ligand
   75    78     1     0     0
SMALL
GAST_HUCK


@<TRIPOS>ATOM
      1 N1         -8.1290   16.3510   -8.1130 N.pl3     1 017        -0.3369
      2 C2         -8.2680   16.1010   -6.7880 C.ar      1 017         0.0353
      3 C3         -7.1400   15.8180   -6.0340 C.ar      1 017        -0.0429
      4 C4         -7.2610   15.5480   -4.6770 C.ar      1 017        -0.0471
      5 C5         -8.5110   15.5830   -4.0740 C.ar      1 017         0.0949
      6 C6         -9.6500   15.8580   -4.8300 C.ar      1 017        -0.0471
      7 C7         -9.5250   16.1250   -6.1910 C.ar      1 017        -0.0429
      8 S8         -8.6110   15.2710   -2.5100 S.o2      1 017         0.0648
      9 O9         -9.9040   14.7120   -2.2320 O.2       1 017        -0.1518
     10 O10        -7.5390   14.3820   -2.1810 O.2       1 017        -0.1518
     11 N11        -8.4390   16.5670   -1.5710 N.am      1 017        -0.2327
     12 C12        -7.2400   17.3720   -1.8690 C.3       1 017         0.0319
     13 C13        -6.7330   18.0570   -0.5970 C.3       1 017        -0.0296
     14 C14        -6.0740   17.0800    0.3710 C.3       1 017        -0.0612
     15 C15        -5.7300   19.1680   -0.9050 C.3       1 017        -0.0612
     16 C16        -9.6900   17.3380   -1.5520 C.3       1 017         0.0578
     17 C17       -10.1370   17.4200   -0.1010 C.3       1 017         0.0967
     18 O18       -11.2110   18.3570    0.0170 O.3       1 017        -0.3877
     19 C19       -10.5460   16.0490    0.4360 C.3       1 017         0.0807
     20 N20       -10.6740   16.1600    1.8750 N.am      1 017        -0.2550
     21 C21        -9.9400   15.4960    2.7530 C.2       1 017         0.3203
     22 O22        -9.0530   14.7040    2.4690 O.2       1 017        -0.3775
     23 O23       -10.3230   15.7450    4.1330 O.3       1 017        -0.2578
     24 C24        -9.6380   14.9890    5.1210 C.3       1 017         0.1189
     25 C25        -9.2420   15.9870    6.1890 C.3       1 017         0.0815
     26 O26       -10.4790   16.2380    6.8460 O.3       1 017        -0.3480
     27 C27       -11.2960   15.0530    6.8020 C.3       1 017         0.1648
     28 O28       -12.6240   15.2760    6.2910 O.3       1 017        -0.3509
     29 C29       -12.9250   14.4300    5.1860 C.3       1 017         0.0512
     30 C30       -11.7370   13.4980    5.0000 C.3       1 017        -0.0191
     31 C31       -10.6240   14.0930    5.8430 C.3       1 017         0.0449
     32 C32       -11.8590   15.5470   -0.1650 C.3       1 017         0.0064
     33 C33       -13.4160   14.1780    1.2660 C.ar      1 017        -0.0603
     34 C34       -13.8180   12.9810    1.8520 C.ar      1 017        -0.0686
     35 C35       -13.0830   11.8220    1.6350 C.ar      1 017        -0.0687
     36 C36       -11.9530   11.8740    0.8180 C.ar      1 017        -0.0686
     37 C37       -11.5530   13.0700    0.2320 C.ar      1 017        -0.0603
     38 C38       -12.2790   14.2330    0.4610 C.ar      1 017        -0.0408
     39 H1         -7.1945   16.3309   -8.5456 H         1 017         0.1719
     40 H2         -8.9579   16.5611   -8.6872 H         1 017         0.1719
     41 H3         -6.1630   15.8074   -6.5036 H         1 017         0.0515
     42 H4         -6.3812   15.3104   -4.0899 H         1 017         0.0602
     43 H5        -10.6272   15.8639   -4.3609 H         1 017         0.0602
     44 H6        -10.4041   16.3509   -6.7837 H         1 017         0.0515
     45 H7         -7.4930   18.1373   -2.6175 H         1 017         0.0480
     46 H8         -6.4518   16.7161   -2.2672 H         1 017         0.0480
     47 H9         -7.6027   18.5054   -0.0946 H         1 017         0.0311
     48 H10        -5.7299   17.6237    1.2632 H         1 017         0.0233
     49 H11        -5.2145   16.6006   -0.1203 H         1 017         0.0233
     50 H12        -6.8022   16.3111    0.6684 H         1 017         0.0233
     51 H13        -6.1827   19.8875   -1.6031 H         1 017         0.0233
     52 H14        -4.8287   18.7323   -1.3609 H         1 017         0.0233
     53 H15        -5.4566   19.6840    0.0272 H         1 017         0.0233
     54 H16       -10.4565   16.8300   -2.1556 H         1 017         0.0504
     55 H17        -9.5179   18.3480   -1.9523 H         1 017         0.0504
     56 H18        -9.2913   17.7832    0.5013 H         1 017         0.0634
     57 H19       -11.9390   18.0722   -0.5229 H         1 017         0.2100
     58 H20        -9.7549   15.3237    0.1950 H         1 017         0.0604
     59 H21       -11.3688   16.7849    2.2310 H         1 017         0.1873
     60 H22        -8.7865   14.4325    4.7023 H         1 017         0.0675
     61 H23        -8.8345   16.9063    5.7432 H         1 017         0.0590
     62 H24        -8.5037   15.5568    6.8816 H         1 017         0.0590
     63 H25       -11.3609   14.6181    7.8103 H         1 017         0.0913
     64 H26       -13.0768   15.0335    4.2790 H         1 017         0.0561
     65 H27       -13.8337   13.8461    5.3942 H         1 017         0.0561
     66 H28       -11.4398   13.4594    3.9416 H         1 017         0.0293
     67 H29       -11.9843   12.4845    5.3487 H         1 017         0.0293
     68 H30       -10.0894   13.2863    6.3658 H         1 017         0.0380
     69 H31       -11.7266   15.4030   -1.2475 H         1 017         0.0449
     70 H32       -12.6446   16.2963    0.0119 H         1 017         0.0449
     71 H33       -13.9942   15.0787    1.4377 H         1 017         0.0557
     72 H34       -14.7034   12.9531    2.4768 H         1 017         0.0599
     73 H35       -13.3840   10.8879    2.0952 H         1 017         0.0559
     74 H36       -11.3802   10.9715    0.6380 H         1 017         0.0599
     75 H37       -10.6751   13.0953   -0.4033 H         1 017         0.0557
@<TRIPOS>BOND
     1    2    1 1  
     2    3    2 ar 
     3    7    2 ar 
     4    4    3 ar 
     5    5    4 ar 
     6    5    6 ar 
     7    8    5 1  
     8    6    7 ar 
     9    8    9 2  
    10    8   10 2  
    11   11    8 am 
    12   11   12 1  
    13   16   11 1  
    14   12   13 1  
    15   13   14 1  
    16   13   15 1  
    17   17   16 1  
    18   17   18 1  
    19   19   17 1  
    20   19   20 1  
    21   32   19 1  
    22   20   21 am 
    23   21   22 2  
    24   21   23 1  
    25   23   24 1  
    26   24   25 1  
    27   24   31 1  
    28   25   26 1  
    29   27   26 1  
    30   27   28 1  
    31   31   27 1  
    32   29   28 1  
    33   30   29 1  
    34   31   30 1  
    35   38   32 1  
    36   33   34 ar 
    37   33   38 ar 
    38   34   35 ar 
    39   35   36 ar 
    40   36   37 ar 
    41   37   38 ar 
    42    1   39 1  
    43    1   40 1  
    44    3   41 1  
    45    4   42 1  
    46    6   43 1  
    47    7   44 1  
    48   12   45 1  
    49   12   46 1  
    50   13   47 1  
    51   14   48 1  
    52   14   49 1  
    53   14   50 1  
    54   15   51 1  
    55   15   52 1  
    56   15   53 1  
    57   16   54 1  
    58   16   55 1  
    59   17   56 1  
    60   18   57 1  
    61   19   58 1  
    62   20   59 1  
    63   24   60 1  
    64   25   61 1  
    65   25   62 1  
    66   27   63 1  
    67   29   64 1  
    68   29   65 1  
    69   30   66 1  
    70   30   67 1  
    71   31   68 1  
    72   32   69 1  
    73   32   70 1  
    74   33   71 1  
    75   34   72 1  
    76   35   73 1  
    77   36   74 1  
    78   37   75 1  
@<TRIPOS>SUBSTRUCTURE
     1 017         1

