### 
### Created by X-TOOL on Mon Sep 10 21:13:03 2018
### 

@<TRIPOS>MOLECULE
3lzv_ligand
   75    78     1     0     0
SMALL
GAST_HUCK


@<TRIPOS>ATOM
      1 N1         14.3560   -5.8210   12.7960 N.pl3     1 017        -0.3369
      2 C2         15.2880   -5.3030   13.6250 C.ar      1 017         0.0353
      3 C3         16.3750   -6.0690   14.0710 C.ar      1 017        -0.0429
      4 C4         17.2900   -5.4760   14.9380 C.ar      1 017        -0.0471
      5 C5         17.1630   -4.1500   15.3640 C.ar      1 017         0.0949
      6 C6         16.0880   -3.4050   14.8700 C.ar      1 017        -0.0471
      7 C7         15.1420   -3.9780   14.0300 C.ar      1 017        -0.0429
      8 S8         18.2630   -3.4380   16.3120 S.o2      1 017         0.0648
      9 O9         18.8370   -4.4120   17.2170 O.2       1 017        -0.1518
     10 O10        17.6670   -2.3190   17.0100 O.2       1 017        -0.1518
     11 N11        19.4670   -2.8050   15.4090 N.am      1 017        -0.2327
     12 C12        20.2120   -3.7770   14.5680 C.3       1 017         0.0319
     13 C13        21.7100   -3.4530   14.5170 C.3       1 017        -0.0296
     14 C14        22.3870   -3.4120   15.8840 C.3       1 017        -0.0612
     15 C15        22.4890   -4.3750   13.5840 C.3       1 017        -0.0612
     16 C16        19.1120   -1.5630   14.6860 C.3       1 017         0.0578
     17 C17        19.9620   -0.4530   15.3120 C.3       1 017         0.0967
     18 O18        19.9200    0.7100   14.4780 O.3       1 017        -0.3877
     19 C19        19.6230   -0.0510   16.7470 C.3       1 017         0.0807
     20 N20        20.7640    0.7460   17.1420 N.am      1 017        -0.2550
     21 C21        21.6150    0.5050   18.1280 C.2       1 017         0.3203
     22 O22        21.6090   -0.4810   18.8310 O.2       1 017        -0.3775
     23 O23        22.6180    1.5360   18.3430 O.3       1 017        -0.2578
     24 C24        23.3360    1.4990   19.5770 C.3       1 017         0.1189
     25 C25        24.7050    2.0700   19.2640 C.3       1 017         0.0815
     26 O26        24.5400    3.4850   19.3230 O.3       1 017        -0.3480
     27 C27        23.6010    3.7520   20.3580 C.3       1 017         0.1648
     28 O28        22.6690    4.7420   19.9460 O.3       1 017        -0.3509
     29 C29        21.3920    4.1340   19.7290 C.3       1 017         0.0512
     30 C30        21.3630    2.8820   20.5790 C.3       1 017        -0.0191
     31 C31        22.8360    2.4690   20.6270 C.3       1 017         0.0449
     32 C32        18.2850    0.7070   16.9130 C.3       1 017         0.0064
     33 C33        18.1700    2.5020   18.6800 C.ar      1 017        -0.0603
     34 C34        18.0120    2.9600   19.9850 C.ar      1 017        -0.0686
     35 C35        17.7160    2.0550   20.9900 C.ar      1 017        -0.0687
     36 C36        17.5820    0.7040   20.6610 C.ar      1 017        -0.0686
     37 C37        17.7320    0.2550   19.3490 C.ar      1 017        -0.0603
     38 C38        18.0470    1.1590   18.3410 C.ar      1 017        -0.0408
     39 H1         14.4351   -6.7975   12.4782 H         1 017         0.1719
     40 H2         13.5661   -5.2395   12.4816 H         1 017         0.1719
     41 H3         16.4999   -7.0966   13.7491 H         1 017         0.0515
     42 H4         18.1291   -6.0624   15.2946 H         1 017         0.0602
     43 H5         15.9912   -2.3616   15.1475 H         1 017         0.0602
     44 H6         14.2927   -3.3961   13.6906 H         1 017         0.0515
     45 H7         19.8063   -3.7483   13.5460 H         1 017         0.0480
     46 H8         20.0797   -4.7855   14.9869 H         1 017         0.0480
     47 H9         21.7859   -2.4387   14.0983 H         1 017         0.0311
     48 H10        23.4536   -3.1745   15.7579 H         1 017         0.0233
     49 H11        22.2849   -4.3919   16.3733 H         1 017         0.0233
     50 H12        21.9106   -2.6401   16.5062 H         1 017         0.0233
     51 H13        21.9975   -4.4014   12.6003 H         1 017         0.0233
     52 H14        22.5147   -5.3895   14.0084 H         1 017         0.0233
     53 H15        23.5164   -3.9989   13.4705 H         1 017         0.0233
     54 H16        18.0418   -1.3410   14.8101 H         1 017         0.0504
     55 H17        19.3438   -1.6643   13.6155 H         1 017         0.0504
     56 H18        20.9975   -0.8239   15.3268 H         1 017         0.0634
     57 H19        19.0214    1.0072   14.3960 H         1 017         0.2100
     58 H20        19.5680   -0.9545   17.3720 H         1 017         0.0604
     59 H21        20.9295    1.5755   16.6085 H         1 017         0.1873
     60 H22        23.3744    0.4721   19.9695 H         1 017         0.0675
     61 H23        25.0320    1.7610   18.2602 H         1 017         0.0590
     62 H24        25.4422    1.7359   20.0089 H         1 017         0.0590
     63 H25        24.1258    4.0857   21.2653 H         1 017         0.0913
     64 H26        21.2697    3.8753   18.6669 H         1 017         0.0561
     65 H27        20.5877    4.8195   20.0344 H         1 017         0.0561
     66 H28        20.7475    2.0997   20.1109 H         1 017         0.0293
     67 H29        20.9789    3.0966   21.5872 H         1 017         0.0293
     68 H30        23.0606    2.0627   21.6242 H         1 017         0.0380
     69 H31        17.4627    0.0413   16.6120 H         1 017         0.0449
     70 H32        18.2977    1.5923   16.2603 H         1 017         0.0449
     71 H33        18.3973    3.2187   17.8992 H         1 017         0.0557
     72 H34        18.1196    4.0145   20.2120 H         1 017         0.0599
     73 H35        17.5905    2.3887   22.0137 H         1 017         0.0559
     74 H36        17.3563   -0.0117   21.4432 H         1 017         0.0599
     75 H37        17.6033   -0.7958   19.1160 H         1 017         0.0557
@<TRIPOS>BOND
     1    2    1 1  
     2    3    2 ar 
     3    7    2 ar 
     4    4    3 ar 
     5    5    4 ar 
     6    5    6 ar 
     7    8    5 1  
     8    6    7 ar 
     9    8    9 2  
    10    8   10 2  
    11   11    8 am 
    12   11   12 1  
    13   16   11 1  
    14   12   13 1  
    15   13   14 1  
    16   13   15 1  
    17   17   16 1  
    18   17   18 1  
    19   19   17 1  
    20   19   20 1  
    21   32   19 1  
    22   20   21 am 
    23   21   22 2  
    24   21   23 1  
    25   23   24 1  
    26   24   25 1  
    27   24   31 1  
    28   25   26 1  
    29   27   26 1  
    30   27   28 1  
    31   31   27 1  
    32   29   28 1  
    33   30   29 1  
    34   31   30 1  
    35   38   32 1  
    36   33   34 ar 
    37   33   38 ar 
    38   34   35 ar 
    39   35   36 ar 
    40   36   37 ar 
    41   37   38 ar 
    42    1   39 1  
    43    1   40 1  
    44    3   41 1  
    45    4   42 1  
    46    6   43 1  
    47    7   44 1  
    48   12   45 1  
    49   12   46 1  
    50   13   47 1  
    51   14   48 1  
    52   14   49 1  
    53   14   50 1  
    54   15   51 1  
    55   15   52 1  
    56   15   53 1  
    57   16   54 1  
    58   16   55 1  
    59   17   56 1  
    60   18   57 1  
    61   19   58 1  
    62   20   59 1  
    63   24   60 1  
    64   25   61 1  
    65   25   62 1  
    66   27   63 1  
    67   29   64 1  
    68   29   65 1  
    69   30   66 1  
    70   30   67 1  
    71   31   68 1  
    72   32   69 1  
    73   32   70 1  
    74   33   71 1  
    75   34   72 1  
    76   35   73 1  
    77   36   74 1  
    78   37   75 1  
@<TRIPOS>SUBSTRUCTURE
     1 017         1

