### 
### Created by X-TOOL on Mon Sep 10 21:13:07 2018
### 

@<TRIPOS>MOLECULE
3m11_ligand
   67    72     1     0     0
SMALL
GAST_HUCK


@<TRIPOS>ATOM
      1 N1          3.8610   31.3560    9.0250 N.ar      1 AKI        -0.2620
      2 C2          4.6360   30.4240    9.5570 C.ar      1 AKI         0.0554
      3 N3          5.3550   29.6010    8.8100 N.ar      1 AKI        -0.2686
      4 C4          5.3220   29.6850    7.4730 C.ar      1 AKI         0.1261
      5 C5          4.5200   30.6500    6.8830 C.ar      1 AKI         0.0757
      6 C6          3.7780   31.4990    7.6950 C.ar      1 AKI         0.2013
      7 CAA         6.0140   30.5940    2.3700 C.ar      1 AKI        -0.0660
      8 CAB         5.4790   31.1880    3.5080 C.ar      1 AKI        -0.0609
      9 CAC         4.7880   30.4160    4.4350 C.ar      1 AKI        -0.0309
     10 CAD         4.6330   29.0510    4.2250 C.ar      1 AKI        -0.0609
     11 CAE         5.1680   28.4570    3.0870 C.ar      1 AKI        -0.0660
     12 CAF         5.8590   29.2290    2.1600 C.ar      1 AKI        -0.0660
     13 CAG         4.2530   31.0090    5.5720 C.2       1 AKI         0.0223
     14 CAH         3.3580   32.0640    5.5960 C.2       1 AKI         0.1438
     15 OAI         3.0660   32.3650    6.8970 O.3       1 AKI        -0.2284
     16 CAL         2.8410   32.7110    4.4800 C.ar      1 AKI         0.0192
     17 CAM         3.0300   32.1710    3.2140 C.ar      1 AKI        -0.0510
     18 CAN         2.5130   32.8190    2.0980 C.ar      1 AKI        -0.0615
     19 CAO         1.8070   34.0060    2.2490 C.ar      1 AKI        -0.0622
     20 CAP         1.6170   34.5460    3.5150 C.ar      1 AKI        -0.0615
     21 CAQ         2.1340   33.8990    4.6310 C.ar      1 AKI        -0.0510
     22 CAV         6.8750   27.8250    7.3630 C.3       1 AKI         0.0378
     23 CAW         8.2600   28.3990    7.6670 C.3       1 AKI        -0.0053
     24 CAX         9.1770   27.3310    8.2680 C.ar      1 AKI        -0.0557
     25 CAY         8.8950   26.7970    9.5200 C.ar      1 AKI        -0.0733
     26 CAZ         9.7280   25.8270   10.0650 C.ar      1 AKI        -0.0476
     27 CBA        10.8420   25.3910    9.3590 C.ar      1 AKI         0.0605
     28 CBB        11.1240   25.9240    8.1070 C.ar      1 AKI        -0.0476
     29 CBC        10.2920   26.8940    7.5610 C.ar      1 AKI        -0.0733
     30 NBD        11.6390   24.4620    9.8810 N.am      1 AKI        -0.2181
     31 CBE        11.7550   23.2760    9.2910 C.2       1 AKI         0.3152
     32 NBF        12.5700   22.3990    9.8700 N.am      1 AKI        -0.2146
     33 CBG        12.7350   21.1920    9.3370 C.ar      1 AKI         0.0671
     34 CBH        13.9480   20.5280    9.4840 C.ar      1 AKI        -0.0415
     35 CBI        14.1210   19.2660    8.9270 C.ar      1 AKI        -0.0757
     36 CBJ        13.0820   18.6690    8.2220 C.ar      1 AKI        -0.0773
     37 CBK        11.8700   19.3330    8.0750 C.ar      1 AKI        -0.0757
     38 CBL        11.6970   20.5940    8.6330 C.ar      1 AKI        -0.0415
     39 OBM        11.1400   23.0040    8.2610 O.2       1 AKI        -0.3810
     40 NBN         6.0450   28.8570    6.7250 N.pl3     1 AKI        -0.2990
     41 H           4.6835   30.3315   10.6420 H         1 AKI         0.1000
     42 H           6.5550   31.1992    1.6426 H         1 AKI         0.0606
     43 H           5.6014   32.2585    3.6731 H         1 AKI         0.0583
     44 H           4.0920   28.4458    4.9524 H         1 AKI         0.0583
     45 H           5.0456   27.3865    2.9219 H         1 AKI         0.0606
     46 H           6.2792   28.7636    1.2684 H         1 AKI         0.0581
     47 H           3.5835   31.2395    3.0958 H         1 AKI         0.0623
     48 H           2.6615   32.3958    1.1045 H         1 AKI         0.0616
     49 H           1.4019   34.5139    1.3738 H         1 AKI         0.0614
     50 H           1.0625   35.4770    3.6329 H         1 AKI         0.0616
     51 H           1.9854   34.3225    5.6243 H         1 AKI         0.0623
     52 H           6.4037   27.5030    8.2916 H         1 AKI         0.0546
     53 H           6.9749   26.9728    6.6908 H         1 AKI         0.0546
     54 H           8.1517   29.2113    8.3857 H         1 AKI         0.0418
     55 H           8.7022   28.7562    6.7370 H         1 AKI         0.0418
     56 H           8.0209   27.1389   10.0742 H         1 AKI         0.0520
     57 H           9.5070   25.4083   11.0468 H         1 AKI         0.0486
     58 H          11.9979   25.5812    7.5531 H         1 AKI         0.0486
     59 H          10.5132   27.3121    6.5790 H         1 AKI         0.0520
     60 H          12.1614   24.6598   10.7344 H         1 AKI         0.2239
     61 H          13.0686   22.6522   10.7230 H         1 AKI         0.2262
     62 H          14.7628   20.9968   10.0357 H         1 AKI         0.0501
     63 H          15.0712   18.7446    9.0430 H         1 AKI         0.0577
     64 H          13.2180   17.6800    7.7845 H         1 AKI         0.0486
     65 H          11.0554   18.8649    7.5223 H         1 AKI         0.0577
     66 H          10.7461   21.1144    8.5183 H         1 AKI         0.0501
     67 H           6.0237   28.9379    5.7084 H         1 AKI         0.1866
@<TRIPOS>BOND
     1    2    1 ar 
     2    6    1 ar 
     3    3    2 ar 
     4    4    3 ar 
     5    4    5 ar 
     6   40    4 1  
     7    5    6 ar 
     8    5   13 1  
     9    6   15 1  
    10    8    7 ar 
    11    7   12 ar 
    12    9    8 ar 
    13    9   10 ar 
    14   13    9 1  
    15   10   11 ar 
    16   11   12 ar 
    17   13   14 2  
    18   14   15 1  
    19   14   16 1  
    20   16   17 ar 
    21   16   21 ar 
    22   17   18 ar 
    23   18   19 ar 
    24   20   19 ar 
    25   21   20 ar 
    26   22   23 1  
    27   22   40 1  
    28   23   24 1  
    29   24   25 ar 
    30   24   29 ar 
    31   25   26 ar 
    32   26   27 ar 
    33   27   28 ar 
    34   27   30 1  
    35   28   29 ar 
    36   30   31 am 
    37   31   32 am 
    38   31   39 2  
    39   32   33 1  
    40   33   34 ar 
    41   33   38 ar 
    42   34   35 ar 
    43   35   36 ar 
    44   36   37 ar 
    45   37   38 ar 
    46    2   41 1  
    47    7   42 1  
    48    8   43 1  
    49   10   44 1  
    50   11   45 1  
    51   12   46 1  
    52   17   47 1  
    53   18   48 1  
    54   19   49 1  
    55   20   50 1  
    56   21   51 1  
    57   22   52 1  
    58   22   53 1  
    59   23   54 1  
    60   23   55 1  
    61   25   56 1  
    62   26   57 1  
    63   28   58 1  
    64   29   59 1  
    65   30   60 1  
    66   32   61 1  
    67   34   62 1  
    68   35   63 1  
    69   36   64 1  
    70   37   65 1  
    71   38   66 1  
    72   40   67 1  
@<TRIPOS>SUBSTRUCTURE
     1 AKI         1

