### 
### Created by X-TOOL on Mon Sep 10 21:13:02 2018
### 

@<TRIPOS>MOLECULE
3m1k_ligand
   15    15     1     0     0
SMALL
GAST_HUCK


@<TRIPOS>ATOM
      1 C4         16.0340    5.3620   14.1620 C.2       1 BEW        -0.0895
      2 C5         15.2370    5.7810   15.2240 C.2       1 BEW        -0.1178
      3 C6         14.8830    4.8190   16.1930 C.2       1 BEW        -0.0700
      4 N2         16.1430    3.1340   14.9520 N.pl3     1 BEW        -0.1636
      5 O8         16.5940    1.7090   14.8620 O.3       1 BEW        -0.2661
      6 C3         16.4830    4.0380   14.0310 C.3       1 BEW         0.0739
      7 C1         15.3640    3.5350   15.9960 C.2       1 BEW         0.1134
      8 S7         15.0190    2.1950   17.1130 S.3       1 BEW        -0.0801
      9 H1         16.3202    6.0892   13.4036 H         1 BEW         0.0361
     10 H2         14.8994    6.8133   15.3036 H         1 BEW         0.0344
     11 H3         14.2634    5.0727   17.0519 H         1 BEW         0.0129
     12 H4         16.2703    1.3259   14.0552 H         1 BEW         0.2513
     13 H5         17.5822    4.0738   14.0086 H         1 BEW         0.0671
     14 H6         16.1084    3.6673   13.0655 H         1 BEW         0.0671
     15 H7         14.5344    1.4628   16.6180 H         1 BEW         0.1307
@<TRIPOS>BOND
     1    1    2 2  
     2    6    1 1  
     3    2    3 1  
     4    3    7 2  
     5    4    5 1  
     6    4    6 1  
     7    4    7 1  
     8    7    8 1  
     9    1    9 1  
    10    2   10 1  
    11    3   11 1  
    12    5   12 1  
    13    6   13 1  
    14    6   14 1  
    15    8   15 1  
@<TRIPOS>SUBSTRUCTURE
     1 BEW         1

