### 
### Created by X-TOOL on Mon Sep 10 21:13:04 2018
### 

@<TRIPOS>MOLECULE
3m35_ligand
   58    61     1     0     0
SMALL
GAST_HUCK


@<TRIPOS>ATOM
      1 C1         17.2430   67.1500   25.4920 C.ar      1 M35        -0.0586
      2 F1         24.0950   67.9160   21.0680 F         1 M35        -0.2190
      3 N1         20.0710   68.5200   22.4700 N.pl3     1 M35        -0.1104
      4 S1         18.9970   78.5930   21.2640 S.o2      1 M35        -0.0064
      5 C2         16.8830   67.0630   24.0770 C.ar      1 M35        -0.0682
      6 F2         22.8450   66.3480   20.2720 F         1 M35        -0.2190
      7 C3         17.8330   67.5390   23.0630 C.ar      1 M35        -0.0255
      8 F3         23.0930   68.1790   19.1970 F         1 M35        -0.2190
      9 N3         20.2050   67.1420   27.6090 N.4       1 M35         0.2308
     10 O3         18.8650   70.9740   23.2450 O.2       1 M35        -0.3704
     11 C4         19.1460   68.0980   23.4160 C.ar      1 M35         0.1257
     12 F4         17.6980   72.9810   21.2640 F         1 M35        -0.1930
     13 O4         20.0710   77.6480   21.2060 O.2       1 M35        -0.1699
     14 C5         19.4990   68.1980   24.8290 C.ar      1 M35        -0.0127
     15 N5         20.3100   72.2080   22.0450 N.am      1 M35        -0.2286
     16 O5         19.3220   79.9570   20.9600 O.2       1 M35        -0.1699
     17 C6         18.5510   67.7240   25.8380 C.ar      1 M35         0.0011
     18 N6         20.9200   67.6340   21.8630 N.2       1 M35        -0.1298
     19 C7         19.7640   73.4340   22.3890 C.ar      1 M35         0.1026
     20 C8         19.8290   71.0130   22.4940 C.2       1 M35         0.2672
     21 C9         17.6020   78.0730   20.2540 C.3       1 M35         0.0593
     22 C10        21.8250   68.2910   21.1340 C.2       1 M35         0.1279
     23 C11        23.0030   67.6620   20.3890 C.3       1 M35         0.3867
     24 C12        21.5560   69.6850   21.2460 C.2       1 M35         0.0017
     25 C13        20.4310   69.7950   22.1030 C.2       1 M35         0.2019
     26 C14        17.7970   75.0690   22.4340 C.ar      1 M35        -0.0325
     27 C15        17.3040   77.4670   24.9250 C.ar      1 M35        -0.0561
     28 C16        18.5960   75.9750   23.2480 C.ar      1 M35        -0.0321
     29 C17        18.0550   77.3290   23.6680 C.ar      1 M35        -0.0037
     30 C18        19.9690   75.5950   23.5890 C.ar      1 M35        -0.0699
     31 C20        18.9450   67.8370   27.2950 C.3       1 M35        -0.0024
     32 C21        18.2680   78.5630   22.8980 C.ar      1 M35         0.0917
     33 C22        20.5710   74.3440   23.1780 C.ar      1 M35        -0.0400
     34 C23        16.8510   78.7850   25.3690 C.ar      1 M35        -0.0636
     35 C24        17.8120   79.8830   23.3640 C.ar      1 M35        -0.0388
     36 C26        17.1060   80.0120   24.6260 C.ar      1 M35        -0.0621
     37 C44        18.4040   73.8200   22.0190 C.ar      1 M35         0.1538
     38 H1         16.5651   66.8014   26.2627 H         1 M35         0.0530
     39 H2         15.9252   66.6516   23.7798 H         1 M35         0.0593
     40 H3         17.5560   67.4758   22.0169 H         1 M35         0.0562
     41 H4         20.4143   67.2521   28.5889 H         1 M35         0.2008
     42 H5         20.9523   67.5365   27.0595 H         1 M35         0.2008
     43 H6         20.1108   66.1618   27.3937 H         1 M35         0.2008
     44 H7         20.4525   68.6186   25.1274 H         1 M35         0.0556
     45 H8         21.1010   72.1986   21.4333 H         1 M35         0.2258
     46 H9         17.3513   77.0273   20.4856 H         1 M35         0.0468
     47 H10        17.8673   78.1593   19.1900 H         1 M35         0.0468
     48 H11        16.7345   78.7143   20.4689 H         1 M35         0.0468
     49 H12        22.1017   70.4991   20.7713 H         1 M35         0.0557
     50 H13        16.7821   75.3206   22.1481 H         1 M35         0.0572
     51 H14        17.0857   76.5901   25.5237 H         1 M35         0.0603
     52 H15        20.5634   76.2842   24.1779 H         1 M35         0.0558
     53 H16        19.0612   68.9020   27.5445 H         1 M35         0.0978
     54 H17        18.1428   67.4019   27.9092 H         1 M35         0.0978
     55 H18        21.5904   74.0962   23.4509 H         1 M35         0.0499
     56 H19        16.2972   78.8523   26.2984 H         1 M35         0.0612
     57 H20        18.0044   80.7634   22.7615 H         1 M35         0.0630
     58 H21        16.7832   80.9774   24.9986 H         1 M35         0.0600
@<TRIPOS>BOND
     1    5    1 ar 
     2   17    1 ar 
     3   23    2 1  
     4    3   11 1  
     5    3   18 1  
     6   25    3 1  
     7    4   13 2  
     8    4   16 2  
     9    4   21 1  
    10   32    4 1  
    11    7    5 ar 
    12   23    6 1  
    13   11    7 ar 
    14   23    8 1  
    15   31    9 1  
    16   20   10 2  
    17   11   14 ar 
    18   37   12 1  
    19   14   17 ar 
    20   19   15 1  
    21   15   20 am 
    22   17   31 1  
    23   22   18 2  
    24   19   33 ar 
    25   37   19 ar 
    26   20   25 1  
    27   22   23 1  
    28   24   22 1  
    29   25   24 2  
    30   28   26 ar 
    31   26   37 ar 
    32   29   27 ar 
    33   27   34 ar 
    34   29   28 1  
    35   28   30 ar 
    36   29   32 ar 
    37   30   33 ar 
    38   32   35 ar 
    39   34   36 ar 
    40   35   36 ar 
    41    1   38 1  
    42    5   39 1  
    43    7   40 1  
    44    9   41 1  
    45    9   42 1  
    46    9   43 1  
    47   14   44 1  
    48   15   45 1  
    49   21   46 1  
    50   21   47 1  
    51   21   48 1  
    52   24   49 1  
    53   26   50 1  
    54   27   51 1  
    55   30   52 1  
    56   31   53 1  
    57   31   54 1  
    58   33   55 1  
    59   34   56 1  
    60   35   57 1  
    61   36   58 1  
@<TRIPOS>SUBSTRUCTURE
     1 M35         1

