### 
### Created by X-TOOL on Mon Sep 10 21:13:04 2018
### 

@<TRIPOS>MOLECULE
3m36_ligand
   58    61     1     0     0
SMALL
GAST_HUCK


@<TRIPOS>ATOM
      1 C1         11.2840   27.6680   13.2700 C.ar      1 M35        -0.0586
      2 F1          2.7130   26.8390   14.2130 F         1 M35        -0.2190
      3 N1          7.0380   27.8910   14.4050 N.pl3     1 M35        -0.1104
      4 S1          6.1220   34.4480   22.1140 S.o2      1 M35        -0.0064
      5 C2         10.7700   26.7680   14.3080 C.ar      1 M35        -0.0682
      6 F2          3.1090   28.2980   12.6940 F         1 M35        -0.2190
      7 C3          9.3430   26.8210   14.6970 C.ar      1 M35        -0.0255
      8 F3          3.8760   26.3860   12.4040 F         1 M35        -0.2190
      9 N3          9.9870   29.6700   10.3890 N.4       1 M35         0.2308
     10 O3          8.1690   29.5670   16.3730 O.2       1 M35        -0.3704
     11 C4          8.4000   27.7840   14.0710 C.ar      1 M35         0.1257
     12 F4          7.5820   29.8800   19.2170 F         1 M35        -0.1930
     13 O4          5.4010   34.4260   20.8940 O.2       1 M35        -0.1699
     14 C5          8.9000   28.6760   13.0390 C.ar      1 M35        -0.0127
     15 N5          6.2090   30.4790   16.9730 N.am      1 M35        -0.2286
     16 O5          5.6330   35.3200   23.1360 O.2       1 M35        -0.1699
     17 C6         10.3180   28.5950   12.6610 C.ar      1 M35         0.0011
     18 N6          6.1010   27.2480   13.6520 N.2       1 M35        -0.1298
     19 C7          6.7630   31.4870   17.7620 C.ar      1 M35         0.1026
     20 C8          6.9590   29.6120   16.2330 C.2       1 M35         0.2672
     21 C9          6.0850   32.8320   22.7880 C.3       1 M35         0.0593
     22 C10         4.8760   27.6770   14.0080 C.2       1 M35         0.1279
     23 C11         3.5820   27.2810   13.3200 C.3       1 M35         0.3867
     24 C12         4.9840   28.6270   15.0600 C.2       1 M35         0.0017
     25 C13         6.3830   28.7400   15.2860 C.2       1 M35         0.2019
     26 C14         8.0840   32.1300   19.8710 C.ar      1 M35        -0.0325
     27 C15         9.8380   35.1700   20.2800 C.ar      1 M35        -0.0561
     28 C16         7.9610   33.5420   19.5160 C.ar      1 M35        -0.0321
     29 C17         8.5050   34.5840   20.4960 C.ar      1 M35        -0.0037
     30 C18         7.2400   33.8980   18.2750 C.ar      1 M35        -0.0699
     31 C20        10.8440   29.5320   11.5900 C.3       1 M35        -0.0024
     32 C21         7.7880   34.9930   21.7130 C.ar      1 M35         0.0917
     33 C22         6.6300   32.8920   17.3930 C.ar      1 M35        -0.0400
     34 C23        10.4090   36.0900   21.2830 C.ar      1 M35        -0.0636
     35 C24         8.3600   35.9030   22.7140 C.ar      1 M35        -0.0388
     36 C26         9.7000   36.4760   22.5250 C.ar      1 M35        -0.0621
     37 C44         7.4820   31.1750   18.9730 C.ar      1 M35         0.1538
     38 H1         12.3246   27.6508   12.9667 H         1 M35         0.0530
     39 H2         11.4366   26.0628   14.7911 H         1 M35         0.0593
     40 H3          8.9767   26.1406   15.4572 H         1 M35         0.0562
     41 H4         10.4186   30.3091    9.7399 H         1 M35         0.2008
     42 H5          9.0835   30.0255   10.6599 H         1 M35         0.2008
     43 H6          9.8759   28.7694    9.9502 H         1 M35         0.2008
     44 H7          8.2397   29.3878   12.5569 H         1 M35         0.0556
     45 H8          5.2135   30.3872   16.9485 H         1 M35         0.2258
     46 H9          6.4532   32.1143   22.0401 H         1 M35         0.0468
     47 H10         5.0525   32.5743   23.0662 H         1 M35         0.0468
     48 H11         6.7261   32.7923   23.6809 H         1 M35         0.0468
     49 H12         4.1789   29.1490   15.5751 H         1 M35         0.0557
     50 H13         8.6039   31.8145   20.7683 H         1 M35         0.0572
     51 H14        10.3995   34.9261   19.3854 H         1 M35         0.0603
     52 H15         7.1577   34.9444   18.0042 H         1 M35         0.0558
     53 H16        10.9614   30.5291   12.0394 H         1 M35         0.0978
     54 H17        11.8262   29.1583   11.2649 H         1 M35         0.0978
     55 H18         6.0975   33.1856   16.4956 H         1 M35         0.0499
     56 H19        11.3947   36.5031   21.1020 H         1 M35         0.0612
     57 H20         7.7885   36.1542   23.6002 H         1 M35         0.0630
     58 H21        10.1448   37.1439   23.2538 H         1 M35         0.0600
@<TRIPOS>BOND
     1    5    1 ar 
     2   17    1 ar 
     3   23    2 1  
     4    3   11 1  
     5    3   18 1  
     6   25    3 1  
     7    4   13 2  
     8    4   16 2  
     9    4   21 1  
    10   32    4 1  
    11    7    5 ar 
    12   23    6 1  
    13   11    7 ar 
    14   23    8 1  
    15   31    9 1  
    16   20   10 2  
    17   11   14 ar 
    18   37   12 1  
    19   14   17 ar 
    20   19   15 1  
    21   15   20 am 
    22   17   31 1  
    23   22   18 2  
    24   19   33 ar 
    25   37   19 ar 
    26   20   25 1  
    27   22   23 1  
    28   24   22 1  
    29   25   24 2  
    30   28   26 ar 
    31   26   37 ar 
    32   29   27 ar 
    33   27   34 ar 
    34   29   28 1  
    35   28   30 ar 
    36   29   32 ar 
    37   30   33 ar 
    38   32   35 ar 
    39   34   36 ar 
    40   35   36 ar 
    41    1   38 1  
    42    5   39 1  
    43    7   40 1  
    44    9   41 1  
    45    9   42 1  
    46    9   43 1  
    47   14   44 1  
    48   15   45 1  
    49   21   46 1  
    50   21   47 1  
    51   21   48 1  
    52   24   49 1  
    53   26   50 1  
    54   27   51 1  
    55   30   52 1  
    56   31   53 1  
    57   31   54 1  
    58   33   55 1  
    59   34   56 1  
    60   35   57 1  
    61   36   58 1  
@<TRIPOS>SUBSTRUCTURE
     1 M35         1

