### 
### Created by X-TOOL on Mon Sep 10 21:13:04 2018
### 

@<TRIPOS>MOLECULE
3m37_ligand
   57    60     1     0     0
SMALL
GAST_HUCK


@<TRIPOS>ATOM
      1 C1         11.3150   45.6470   64.9240 C.ar      1 M37        -0.0714
      2 F1          2.8260   44.9640   64.8540 F         1 M37        -0.2201
      3 N1          7.1720   44.4470   64.4720 N.pl3     1 M37        -0.1116
      4 S1          6.4450   38.3020   56.5730 S.o2      1 M37         0.0653
      5 C2         10.4370   46.2580   63.9360 C.ar      1 M37        -0.0684
      6 F2          3.3990   43.7710   66.5540 F         1 M37        -0.2201
      7 N2          6.5940   39.8920   56.3900 N.am      1 M37        -0.2612
      8 C3          9.0410   45.8790   63.7470 C.ar      1 M37        -0.0242
      9 F3          3.9540   45.8430   66.5040 F         1 M37        -0.2201
     10 N3          9.4880   42.7560   67.7260 N.4       1 M37         0.2307
     11 O3          8.3670   42.8150   62.5050 O.2       1 M37        -0.3706
     12 C4          8.5030   44.8260   64.6030 C.ar      1 M37         0.1401
     13 F4          7.7220   42.5810   59.8210 F         1 M37        -0.1930
     14 O4          5.5750   38.0820   57.6770 O.2       1 M37        -0.1508
     15 C5          9.3600   44.2100   65.5990 C.ar      1 M37         0.0459
     16 N5          6.4340   41.6570   62.1760 N.am      1 M37        -0.2286
     17 O5          6.0800   37.7860   55.2840 O.2       1 M37        -0.1508
     18 C6         10.7730   44.6080   65.7680 C.ar      1 M37        -0.0544
     19 N6          6.2240   45.0220   65.2600 N.2       1 M37        -0.1323
     20 C7          6.9580   40.8000   61.2380 C.ar      1 M37         0.1026
     21 C8          7.1810   42.6370   62.7690 C.2       1 M37         0.2669
     22 C9          8.7750   43.1040   66.4720 C.3       1 M37         0.0015
     23 C10         5.0350   44.4320   65.0300 C.2       1 M37         0.1260
     24 C11         3.7500   44.7580   65.7620 C.3       1 M37         0.3854
     25 C12         5.1920   43.4300   64.0340 C.2       1 M37         0.0009
     26 C13         6.5790   43.4700   63.7130 C.2       1 M37         0.2010
     27 C14         8.2150   40.3770   59.0650 C.ar      1 M37        -0.0325
     28 C15        10.0230   37.4150   58.5730 C.ar      1 M37        -0.0560
     29 C16         8.1180   38.9530   59.3290 C.ar      1 M37        -0.0320
     30 C17         8.7040   38.0100   58.3100 C.ar      1 M37        -0.0019
     31 C18         7.4450   38.4750   60.5290 C.ar      1 M37        -0.0699
     32 C21         8.0620   37.6770   57.0370 C.ar      1 M37         0.1117
     33 C22         6.8570   39.3740   61.4950 C.ar      1 M37        -0.0400
     34 C23        10.6350   36.5420   57.5790 C.ar      1 M37        -0.0636
     35 C24         8.6890   36.7940   56.0450 C.ar      1 M37        -0.0370
     36 C26         9.9900   36.2130   56.3150 C.ar      1 M37        -0.0621
     37 C44         7.6260   41.2690   60.0320 C.ar      1 M37         0.1538
     38 H1         12.3471   45.9633   65.0233 H         1 M37         0.0572
     39 H2         10.8441   47.0394   63.3046 H         1 M37         0.0554
     40 H3          6.8464   40.4637   57.1707 H         1 M37         0.1634
     41 H4          6.4343   40.3095   55.4954 H         1 M37         0.1634
     42 H5          8.4249   46.3623   62.9974 H         1 M37         0.0600
     43 H6          8.9940   42.0154   68.1989 H         1 M37         0.2008
     44 H7          9.5312   43.5663   68.3240 H         1 M37         0.2008
     45 H8         10.4230   42.4498   67.5070 H         1 M37         0.2008
     46 H9          5.4727   41.5605   62.4339 H         1 M37         0.2258
     47 H10        11.3940   44.1269   66.5150 H         1 M37         0.0550
     48 H11         7.7558   43.4110   66.7495 H         1 M37         0.0976
     49 H12         8.7291   42.1925   65.8580 H         1 M37         0.0976
     50 H13         4.4265   42.7801   63.6126 H         1 M37         0.0556
     51 H14         8.7099   40.7540   58.1773 H         1 M37         0.0572
     52 H15        10.5385   37.6250   59.5032 H         1 M37         0.0603
     53 H16         7.3831   37.4069   60.7034 H         1 M37         0.0558
     54 H17         6.3579   38.9975   62.3806 H         1 M37         0.0499
     55 H18        11.6111   36.1199   57.7892 H         1 M37         0.0612
     56 H19         8.1803   36.5770   55.1127 H         1 M37         0.0631
     57 H20        10.4676   35.5544   55.5986 H         1 M37         0.0600
@<TRIPOS>BOND
     1    5    1 ar 
     2   18    1 ar 
     3   24    2 1  
     4    3   12 1  
     5    3   19 1  
     6   26    3 1  
     7    4    7 am 
     8    4   14 2  
     9    4   17 2  
    10   32    4 1  
    11    8    5 ar 
    12   24    6 1  
    13   12    8 ar 
    14   24    9 1  
    15   22   10 1  
    16   21   11 2  
    17   12   15 ar 
    18   37   13 1  
    19   15   18 ar 
    20   15   22 1  
    21   20   16 1  
    22   16   21 am 
    23   23   19 2  
    24   20   33 ar 
    25   37   20 ar 
    26   21   26 1  
    27   23   24 1  
    28   25   23 1  
    29   26   25 2  
    30   29   27 ar 
    31   27   37 ar 
    32   30   28 ar 
    33   28   34 ar 
    34   30   29 1  
    35   29   31 ar 
    36   30   32 ar 
    37   31   33 ar 
    38   32   35 ar 
    39   34   36 ar 
    40   35   36 ar 
    41    1   38 1  
    42    5   39 1  
    43    7   40 1  
    44    7   41 1  
    45    8   42 1  
    46   10   43 1  
    47   10   44 1  
    48   10   45 1  
    49   16   46 1  
    50   18   47 1  
    51   22   48 1  
    52   22   49 1  
    53   25   50 1  
    54   27   51 1  
    55   28   52 1  
    56   31   53 1  
    57   33   54 1  
    58   34   55 1  
    59   35   56 1  
    60   36   57 1  
@<TRIPOS>SUBSTRUCTURE
     1 M37         1

