### 
### Created by X-TOOL on Mon Sep 10 21:13:03 2018
### 

@<TRIPOS>MOLECULE
3m3c_ligand
   63    65     1     0     0
SMALL
GAST_HUCK


@<TRIPOS>ATOM
      1 C1        -14.8870    9.1930  -29.5470 C.3       1 GAL         0.1884
      2 C2        -14.9480    7.6820  -29.3130 C.3       1 GAL         0.1341
      3 C3        -15.2650    7.3640  -27.8510 C.3       1 GAL         0.1141
      4 C4        -14.2600    8.0920  -26.9570 C.3       1 GAL         0.1119
      5 C5        -14.2880    9.5870  -27.2810 C.3       1 GAL         0.1130
      6 C6        -13.3040   10.3250  -26.3720 C.3       1 GAL         0.0730
      7 O2        -15.9320    7.0880  -30.1650 O.3       1 GAL        -0.3841
      8 O3        -15.1590    5.9530  -27.6440 O.3       1 GAL        -0.3864
      9 O4        -12.9490    7.5760  -27.2030 O.3       1 GAL        -0.3865
     10 O5        -13.9290    9.7910  -28.6570 O.3       1 GAL        -0.3405
     11 O6        -13.3420   11.7230  -26.6700 O.3       1 GAL        -0.3924
     12 O         -14.6350   13.0880  -32.9320 O.3       1 A2G        -0.3369
     13 C1        -15.3030   11.9560  -33.5120 C.3       1 A2G         0.2080
     14 C2        -14.7280   10.6590  -32.9400 C.3       1 A2G         0.1260
     15 N2        -15.4160    9.5110  -33.5470 N.am      1 A2G        -0.2762
     16 C3        -14.9670   10.6280  -31.4300 C.3       1 A2G         0.1180
     17 O3        -14.4540    9.3960  -30.9010 O.3       1 A2G        -0.3403
     18 C4        -14.2450   11.8450  -30.8510 C.3       1 A2G         0.1120
     19 O4        -12.8430   11.7200  -31.1000 O.3       1 A2G        -0.3865
     20 C5        -14.7740   13.1270  -31.5010 C.3       1 A2G         0.1134
     21 C6        -13.9780   14.3200  -30.9710 C.3       1 A2G         0.0730
     22 O6        -14.4830   15.5280  -31.5480 O.3       1 A2G        -0.3924
     23 C7        -14.8740    8.8000  -34.5320 C.2       1 A2G         0.1734
     24 O7        -13.6450    9.1290  -35.0110 O.2       1 A2G        -0.3974
     25 C8        -15.5640    7.7170  -35.0650 C.3       1 A2G         0.0257
     26 C1        -19.1240   14.5990  -35.2490 C.ar      1 NPO         0.1882
     27 C2        -19.5820   13.9670  -34.0990 C.ar      1 NPO        -0.0271
     28 C3        -18.7390   13.1150  -33.3950 C.ar      1 NPO        -0.0239
     29 C4        -17.4410   12.8890  -33.8380 C.ar      1 NPO         0.1016
     30 C5        -16.9800   13.5300  -34.9830 C.ar      1 NPO        -0.0239
     31 C6        -17.8220   14.3850  -35.6870 C.ar      1 NPO        -0.0271
     32 OH        -16.7060   11.9330  -33.2080 O.3       1 NPO        -0.2808
     33 N1        -19.9550   15.3730  -35.9430 N.2       1 NPO         0.3062
     34 O2        -19.5280   15.9870  -37.1510 O.2       1 NPO         0.1732
     35 O3        -21.2820   15.5760  -35.4790 O.2       1 NPO         0.1732
     36 H1        -15.8780    9.6433  -29.3882 H         1 GAL         0.0938
     37 H2        -13.9654    7.2526  -29.5581 H         1 GAL         0.0671
     38 H3        -16.2852    7.6974  -27.6099 H         1 GAL         0.0648
     39 H4        -14.5251    7.9380  -25.9006 H         1 GAL         0.0647
     40 H5        -15.3022    9.9769  -27.1099 H         1 GAL         0.0647
     41 H6        -12.2875    9.9407  -26.5422 H         1 GAL         0.0584
     42 H7        -13.5850   10.1658  -25.3205 H         1 GAL         0.0584
     43 H8        -15.9296    6.1461  -30.0410 H         1 GAL         0.2101
     44 H9        -15.7846    5.5045  -28.2008 H         1 GAL         0.2100
     45 H10       -12.3222    8.0317  -26.6534 H         1 GAL         0.2100
     46 H11       -13.0995   11.8587  -27.5785 H         1 GAL         0.2095
     47 H12       -15.1626   11.9825  -34.6027 H         1 GAL         0.0993
     48 H13       -13.6498   10.6042  -33.1509 H         1 GAL         0.0638
     49 H14       -16.3217    9.2559  -33.2083 H         1 GAL         0.1857
     50 H15       -16.0429   10.6961  -31.2116 H         1 GAL         0.0649
     51 H16       -14.4205   11.8904  -29.7661 H         1 GAL         0.0647
     52 H17       -12.3904   12.4745  -30.7417 H         1 GAL         0.2100
     53 H18       -15.8368   13.2476  -31.2443 H         1 GAL         0.0647
     54 H19       -12.9179   14.2013  -31.2395 H         1 GAL         0.0584
     55 H20       -14.0758   14.3683  -29.8764 H         1 GAL         0.0584
     56 H21       -14.3980   15.4858  -32.4933 H         1 GAL         0.2095
     57 H22       -14.9631    7.2561  -35.8628 H         1 GAL         0.0467
     58 H23       -16.5225    8.0614  -35.4804 H         1 GAL         0.0467
     59 H24       -15.7522    6.9766  -34.2735 H         1 GAL         0.0467
     60 H25       -20.5945   14.1382  -33.7518 H         1 GAL         0.0666
     61 H26       -19.0955   12.6246  -32.4964 H         1 GAL         0.0561
     62 H27       -15.9655   13.3635  -35.3266 H         1 GAL         0.0561
     63 H28       -17.4622   14.8853  -36.5788 H         1 GAL         0.0666
@<TRIPOS>BOND
     1    1    2 1  
     2    1   10 1  
     3   17    1 1  
     4    2    3 1  
     5    2    7 1  
     6    3    4 1  
     7    3    8 1  
     8    5    4 1  
     9    4    9 1  
    10    5    6 1  
    11   10    5 1  
    12    6   11 1  
    13   13   12 1  
    14   12   20 1  
    15   13   14 1  
    16   32   13 1  
    17   14   15 1  
    18   14   16 1  
    19   15   23 am 
    20   16   17 1  
    21   16   18 1  
    22   18   19 1  
    23   20   18 1  
    24   20   21 1  
    25   21   22 1  
    26   23   24 2  
    27   23   25 1  
    28   27   26 ar 
    29   26   31 ar 
    30   26   33 1  
    31   28   27 ar 
    32   29   28 ar 
    33   29   30 ar 
    34   29   32 1  
    35   30   31 ar 
    36   33   34 2  
    37   33   35 2  
    38    1   36 1  
    39    2   37 1  
    40    3   38 1  
    41    4   39 1  
    42    5   40 1  
    43    6   41 1  
    44    6   42 1  
    45    7   43 1  
    46    8   44 1  
    47    9   45 1  
    48   11   46 1  
    49   13   47 1  
    50   14   48 1  
    51   15   49 1  
    52   16   50 1  
    53   18   51 1  
    54   19   52 1  
    55   20   53 1  
    56   21   54 1  
    57   21   55 1  
    58   22   56 1  
    59   25   57 1  
    60   25   58 1  
    61   25   59 1  
    62   27   60 1  
    63   28   61 1  
    64   30   62 1  
    65   31   63 1  
@<TRIPOS>SUBSTRUCTURE
     1 GAL         1

