### 
### Created by X-TOOL on Fri Sep 26 17:34:48 2014
### 

@<TRIPOS>MOLECULE
3m3e_ligand
   63    65     1     0     0
SMALL
GAST_HUCK


@<TRIPOS>ATOM
      1 C1         39.3280    3.7230    6.5370 C.3       1 GAL         0.1884
      2 C2         38.2470    4.1620    5.5470 C.3       1 GAL         0.1341
      3 C3         37.0530    4.7920    6.2640 C.3       1 GAL         0.1141
      4 C4         36.5590    3.8290    7.3440 C.3       1 GAL         0.1119
      5 C5         37.7240    3.4830    8.2730 C.3       1 GAL         0.1130
      6 C6         37.2320    2.5580    9.3880 C.3       1 GAL         0.0730
      7 O2         38.7960    5.0810    4.6000 O.3       1 GAL        -0.3841
      8 O3         36.0130    5.0390    5.3150 O.3       1 GAL        -0.3864
      9 O4         36.0670    2.6320    6.7340 O.3       1 GAL        -0.3865
     10 O5         38.7660    2.8410    7.5230 O.3       1 GAL        -0.3405
     11 O6         38.2860    2.3290   10.3270 O.3       1 GAL        -0.3924
     12 O          44.0710    1.9360    7.2740 O.3       1 GAL        -0.3369
     13 C1         44.0380    2.6930    6.0540 C.3       1 GAL         0.2080
     14 C2         42.6590    2.5470    5.4080 C.3       1 GAL         0.1260
     15 N2         42.6350    3.3230    4.1600 N.am      1 GAL        -0.2762
     16 C3         41.6060    3.1100    6.3640 C.3       1 GAL         0.1180
     17 O3         40.3060    3.0030    5.7710 O.3       1 GAL        -0.3403
     18 C4         41.6960    2.3130    7.6670 C.3       1 GAL         0.1120
     19 O4         41.3990    0.9380    7.4070 O.3       1 GAL        -0.3865
     20 C5         43.1150    2.4260    8.2280 C.3       1 GAL         0.1134
     21 C6         43.2320    1.6240    9.5250 C.3       1 GAL         0.0730
     22 O6         44.5570    1.7600   10.0450 O.3       1 GAL        -0.3924
     23 C7         42.8570    2.7610    2.9760 C.2       1 GAL         0.1734
     24 O7         43.1110    1.4280    2.8950 O.2       1 GAL        -0.3974
     25 C8         42.8450    3.5400    1.8250 C.3       1 GAL         0.0257
     26 C1         47.4730    5.3640    8.4550 C.ar      1 GAL         0.1882
     27 C2         46.3120    6.1270    8.4260 C.ar      1 GAL        -0.0271
     28 C3         45.2070    5.6780    7.7120 C.ar      1 GAL        -0.0239
     29 C4         45.2600    4.4710    7.0240 C.ar      1 GAL         0.1016
     30 C5         46.4200    3.7050    7.0560 C.ar      1 GAL        -0.0239
     31 C6         47.5250    4.1530    7.7730 C.ar      1 GAL        -0.0271
     32 OH         44.1820    4.1040    6.2810 O.3       1 GAL        -0.2808
     33 N1         48.5300    5.8020    9.1340 N.2       1 GAL         0.3062
     34 O2         49.7210    5.0280    9.1800 O.2       1 GAL         0.1732
     35 O3         48.4610    7.0450    9.8210 O.2       1 GAL         0.1732
     36 H1         39.7814    4.5970    7.0274 H         1 GAL         0.0938
     37 H2         37.8930    3.2722    5.0058 H         1 GAL         0.0671
     38 H3         37.3581    5.7410    6.7291 H         1 GAL         0.0648
     39 H4         35.7532    4.3049    7.9222 H         1 GAL         0.0647
     40 H5         38.1187    4.4077    8.7192 H         1 GAL         0.0647
     41 H6         36.9151    1.5985    8.9534 H         1 GAL         0.0584
     42 H7         36.3801    3.0268    9.9023 H         1 GAL         0.0584
     43 H8         39.5363    4.6780    4.1618 H         1 GAL         0.2101
     44 H9         35.7550    4.2197    4.9092 H         1 GAL         0.2100
     45 H10        35.3434    2.8463    6.1569 H         1 GAL         0.2100
     46 H11        39.0215    1.9235    9.8831 H         1 GAL         0.2095
     47 H12        44.8286    2.3326    5.3794 H         1 GAL         0.0993
     48 H13        42.4502    1.4877    5.1977 H         1 GAL         0.0638
     49 H14        42.4458    4.3040    4.2029 H         1 GAL         0.1857
     50 H15        41.8187    4.1696    6.5688 H         1 GAL         0.0649
     51 H16        40.9767    2.7144    8.3960 H         1 GAL         0.0647
     52 H17        42.0243    0.5931    6.7805 H         1 GAL         0.2100
     53 H18        43.3306    3.4837    8.4395 H         1 GAL         0.0647
     54 H19        43.0240    0.5632    9.3215 H         1 GAL         0.0584
     55 H20        42.5077    2.0053   10.2598 H         1 GAL         0.0584
     56 H21        45.1810    1.4307    9.4088 H         1 GAL         0.2095
     57 H22        43.0469    2.9046    0.9501 H         1 GAL         0.0467
     58 H23        43.6197    4.3173    1.9002 H         1 GAL         0.0467
     59 H24        41.8589    4.0146    1.7137 H         1 GAL         0.0467
     60 H25        46.2681    7.0700    8.9588 H         1 GAL         0.0666
     61 H26        44.3001    6.2715    7.6916 H         1 GAL         0.0561
     62 H27        46.4633    2.7616    6.5239 H         1 GAL         0.0561
     63 H28        48.4295    3.5562    7.8002 H         1 GAL         0.0666
@<TRIPOS>BOND
     1    1    2 1  
     2    1   10 1  
     3   17    1 1  
     4    2    3 1  
     5    2    7 1  
     6    3    4 1  
     7    3    8 1  
     8    5    4 1  
     9    4    9 1  
    10    5    6 1  
    11   10    5 1  
    12    6   11 1  
    13   13   12 1  
    14   12   20 1  
    15   13   14 1  
    16   32   13 1  
    17   14   15 1  
    18   14   16 1  
    19   15   23 am 
    20   16   17 1  
    21   16   18 1  
    22   18   19 1  
    23   20   18 1  
    24   20   21 1  
    25   21   22 1  
    26   23   24 2  
    27   23   25 1  
    28   27   26 ar 
    29   26   31 ar 
    30   26   33 1  
    31   28   27 ar 
    32   29   28 ar 
    33   29   30 ar 
    34   29   32 1  
    35   30   31 ar 
    36   33   34 2  
    37   33   35 2  
    38    1   36 1  
    39    2   37 1  
    40    3   38 1  
    41    4   39 1  
    42    5   40 1  
    43    6   41 1  
    44    6   42 1  
    45    7   43 1  
    46    8   44 1  
    47    9   45 1  
    48   11   46 1  
    49   13   47 1  
    50   14   48 1  
    51   15   49 1  
    52   16   50 1  
    53   18   51 1  
    54   19   52 1  
    55   20   53 1  
    56   21   54 1  
    57   21   55 1  
    58   22   56 1  
    59   25   57 1  
    60   25   58 1  
    61   25   59 1  
    62   27   60 1  
    63   28   61 1  
    64   30   62 1  
    65   31   63 1  
@<TRIPOS>SUBSTRUCTURE
     1 GAL         1

