### 
### Created by X-TOOL on Fri Sep 26 17:34:48 2014
### 

@<TRIPOS>MOLECULE
3m3o_ligand
   63    65     1     0     0
SMALL
GAST_HUCK


@<TRIPOS>ATOM
      1 C1          1.8920  -19.5680   -0.2800 C.3       1 GAL         0.1884
      2 C2          0.9340  -18.3750   -0.3250 C.3       1 GAL         0.1341
      3 C3          1.7030  -17.0600   -0.4630 C.3       1 GAL         0.1141
      4 C4          2.7380  -16.9750    0.6580 C.3       1 GAL         0.1119
      5 C5          3.6330  -18.2160    0.6100 C.3       1 GAL         0.1130
      6 C6          4.7100  -18.1320    1.6950 C.3       1 GAL         0.0730
      7 O2          0.0200  -18.5290   -1.4130 O.3       1 GAL        -0.3841
      8 O3          0.7940  -15.9610   -0.3600 O.3       1 GAL        -0.3864
      9 O4          2.0570  -16.9250    1.9150 O.3       1 GAL        -0.3865
     10 O5          2.8400  -19.4000    0.7870 O.3       1 GAL        -0.3405
     11 O6          5.6120  -19.2360    1.5730 O.3       1 GAL        -0.3924
     12 O           2.5570  -24.6460   -0.0040 O.3       1 GAL        -0.3369
     13 C1          1.4050  -24.4010   -0.8250 C.3       1 GAL         0.2080
     14 C2          0.7490  -23.0950   -0.3700 C.3       1 GAL         0.1260
     15 N2         -0.4560  -22.8180   -1.1660 N.am      1 GAL        -0.2762
     16 C3          1.7250  -21.9260   -0.5060 C.3       1 GAL         0.1180
     17 O3          1.0930  -20.7320   -0.0230 O.3       1 GAL        -0.3403
     18 C4          2.9950  -22.2740    0.2740 C.3       1 GAL         0.1120
     19 O4          2.7070  -22.3510    1.6720 O.3       1 GAL        -0.3865
     20 C5          3.5440  -23.6210   -0.2010 C.3       1 GAL         0.1134
     21 C6          4.8050  -23.9650    0.5930 C.3       1 GAL         0.0730
     22 O6          5.3390  -25.2020    0.1160 O.3       1 GAL        -0.3924
     23 C7         -1.6480  -23.2930   -0.8160 C.2       1 GAL         0.1734
     24 O7         -1.7670  -24.0560    0.3030 O.2       1 GAL        -0.3974
     25 C8         -2.7680  -23.0030   -1.5860 C.3       1 GAL         0.0257
     26 C1         -1.0690  -25.2350   -4.9730 C.ar      1 GAL         0.1882
     27 C2         -0.0370  -24.3650   -5.3070 C.ar      1 GAL        -0.0271
     28 C3          0.9210  -24.0270   -4.3570 C.ar      1 GAL        -0.0239
     29 C4          0.8500  -24.5620   -3.0750 C.ar      1 GAL         0.1016
     30 C5         -0.1860  -25.4260   -2.7410 C.ar      1 GAL        -0.0239
     31 C6         -1.1470  -25.7620   -3.6880 C.ar      1 GAL        -0.0271
     32 OH          1.8440  -24.2900   -2.1870 O.3       1 GAL        -0.2808
     33 N1         -1.9800  -25.5620   -5.8840 N.2       1 GAL         0.3062
     34 O2         -3.0570  -26.4230   -5.5370 O.2       1 GAL         0.1732
     35 O3         -1.8870  -25.0320   -7.1990 O.2       1 GAL         0.1732
     36 H1          2.4224  -19.6686   -1.2384 H         1 GAL         0.0938
     37 H2          0.3630  -18.3484    0.6148 H         1 GAL         0.0671
     38 H3          2.2100  -17.0277   -1.4387 H         1 GAL         0.0648
     39 H4          3.3512  -16.0706    0.5316 H         1 GAL         0.0647
     40 H5          4.1239  -18.2618   -0.3733 H         1 GAL         0.0647
     41 H6          4.2326  -18.1590    2.6856 H         1 GAL         0.0584
     42 H7          5.2683  -17.1909    1.5826 H         1 GAL         0.0584
     43 H8         -0.4509  -19.3483   -1.3160 H         1 GAL         0.2101
     44 H9          0.3532  -15.9939    0.4809 H         1 GAL         0.2100
     45 H10         1.5022  -16.1543    1.9429 H         1 GAL         0.2100
     46 H11         5.1306  -20.0491    1.6711 H         1 GAL         0.2095
     47 H12         0.6879  -25.2297   -0.7301 H         1 GAL         0.0993
     48 H13         0.4614  -23.1965    0.6869 H         1 GAL         0.0638
     49 H14        -0.3773  -22.2585   -1.9911 H         1 GAL         0.1857
     50 H15         1.9854  -21.7838   -1.5652 H         1 GAL         0.0649
     51 H16         3.7496  -21.4925    0.1014 H         1 GAL         0.0647
     52 H17         2.3756  -21.5129    1.9725 H         1 GAL         0.2100
     53 H18         3.7925  -23.5562   -1.2706 H         1 GAL         0.0647
     54 H19         4.5535  -24.0600    1.6596 H         1 GAL         0.0584
     55 H20         5.5512  -23.1675    0.4618 H         1 GAL         0.0584
     56 H21         4.6931  -25.8892    0.2296 H         1 GAL         0.2095
     57 H22        -3.6531  -23.4803   -1.1401 H         1 GAL         0.0467
     58 H23        -2.6203  -23.3855   -2.6067 H         1 GAL         0.0467
     59 H24        -2.9172  -21.9137   -1.6206 H         1 GAL         0.0467
     60 H25         0.0208  -23.9505   -6.3070 H         1 GAL         0.0666
     61 H26         1.7237  -23.3460   -4.6159 H         1 GAL         0.0561
     62 H27        -0.2450  -25.8387   -1.7404 H         1 GAL         0.0561
     63 H28        -1.9561  -26.4339   -3.4253 H         1 GAL         0.0666
@<TRIPOS>BOND
     1    1    2 1  
     2    1   10 1  
     3   17    1 1  
     4    2    3 1  
     5    2    7 1  
     6    3    4 1  
     7    3    8 1  
     8    5    4 1  
     9    4    9 1  
    10    5    6 1  
    11   10    5 1  
    12    6   11 1  
    13   13   12 1  
    14   12   20 1  
    15   13   14 1  
    16   32   13 1  
    17   14   15 1  
    18   14   16 1  
    19   15   23 am 
    20   16   17 1  
    21   16   18 1  
    22   18   19 1  
    23   20   18 1  
    24   20   21 1  
    25   21   22 1  
    26   23   24 2  
    27   23   25 1  
    28   27   26 ar 
    29   26   31 ar 
    30   26   33 1  
    31   28   27 ar 
    32   29   28 ar 
    33   29   30 ar 
    34   29   32 1  
    35   30   31 ar 
    36   33   34 2  
    37   33   35 2  
    38    1   36 1  
    39    2   37 1  
    40    3   38 1  
    41    4   39 1  
    42    5   40 1  
    43    6   41 1  
    44    6   42 1  
    45    7   43 1  
    46    8   44 1  
    47    9   45 1  
    48   11   46 1  
    49   13   47 1  
    50   14   48 1  
    51   15   49 1  
    52   16   50 1  
    53   18   51 1  
    54   19   52 1  
    55   20   53 1  
    56   21   54 1  
    57   21   55 1  
    58   22   56 1  
    59   25   57 1  
    60   25   58 1  
    61   25   59 1  
    62   27   60 1  
    63   28   61 1  
    64   30   62 1  
    65   31   63 1  
@<TRIPOS>SUBSTRUCTURE
     1 GAL         1

