### 
### Created by X-TOOL on Mon Sep 10 21:13:02 2018
### 

@<TRIPOS>MOLECULE
3m3x_ligand
   39    40     1     0     0
SMALL
GAST_HUCK


@<TRIPOS>ATOM
      1 N1         -0.7120   10.1540   14.9950 N.ar      1 JS7        -0.2485
      2 C2         -0.7280    8.9310   15.5160 C.ar      1 JS7         0.0664
      3 N3         -1.1920    7.9020   14.8360 N.ar      1 JS7        -0.2569
      4 C4         -1.6710    8.0640   13.6040 C.ar      1 JS7         0.1636
      5 C5         -1.6890    9.3580   12.9920 C.ar      1 JS7         0.2939
      6 C6         -1.1700   10.4470   13.7680 C.ar      1 JS7         0.2136
      7 N7         -2.1270    6.9080   12.9360 N.pl3     1 JS7        -0.2954
      8 C8         -4.3780    4.5920   14.5080 C.ar      1 JS7        -0.0409
      9 C9         -5.7130    4.4520   14.8720 C.ar      1 JS7        -0.0584
     10 C10        -6.1380    3.2970   15.5750 C.ar      1 JS7        -0.0419
     11 C11        -5.2930    2.2540   15.9100 C.ar      1 JS7         0.1009
     12 C12        -3.9380    2.3950   15.5170 C.ar      1 JS7        -0.0419
     13 C13        -3.4610    3.5540   14.8180 C.ar      1 JS7        -0.0584
     14 S14        -5.9160    0.7670   16.7910 S.o2      1 JS7         0.0628
     15 O15        -5.3680    0.8370   18.1760 O.2       1 JS7        -0.1514
     16 O16        -7.4790    0.8650   16.6180 O.2       1 JS7        -0.1514
     17 N17        -5.2700   -0.4930   15.9290 N.am      1 JS7        -0.2617
     18 N18        -2.2660    9.4620   11.5730 N.2       1 JS7         0.3132
     19 O19        -3.1780   10.1770   11.3220 O.2       1 JS7         0.1694
     20 O20        -1.7310    8.7330   10.5760 O.2       1 JS7         0.1694
     21 O21        -1.0600   11.9020   13.4260 O.3       1 JS7        -0.2901
     22 C22         0.1580   12.5640   13.3400 C.3       1 JS7         0.0674
     23 C23        -2.4770    5.7870   13.7050 C.3       1 JS7         0.0401
     24 C24        -3.9960    5.8410   13.7760 C.3       1 JS7         0.0016
     25 H1         -0.3516    8.7771   16.5208 H         1 JS7         0.1090
     26 H2         -2.2013    6.8871   11.9089 H         1 JS7         0.1871
     27 H3         -6.4282    5.2260   14.6181 H         1 JS7         0.0557
     28 H4         -7.1800    3.2272   15.8655 H         1 JS7         0.0619
     29 H5         -3.2389    1.6007   15.7524 H         1 JS7         0.0619
     30 H6         -2.4186    3.6353   14.5318 H         1 JS7         0.0557
     31 H7         -5.4583   -1.4357   16.2043 H         1 JS7         0.1634
     32 H8         -4.6920   -0.3104   15.1337 H         1 JS7         0.1634
     33 H9         -0.0153   13.6180   13.0772 H         1 JS7         0.0592
     34 H10         0.7789   12.0903   12.5654 H         1 JS7         0.0592
     35 H11         0.6750   12.5081   14.3093 H         1 JS7         0.0592
     36 H12        -2.0371    5.8516   14.7111 H         1 JS7         0.0549
     37 H13        -2.1422    4.8596   13.2173 H         1 JS7         0.0549
     38 H14        -4.3286    6.7328   14.3274 H         1 JS7         0.0446
     39 H15        -4.4329    5.8499   12.7666 H         1 JS7         0.0446
@<TRIPOS>BOND
     1    2    1 ar 
     2    6    1 ar 
     3    3    2 ar 
     4    4    3 ar 
     5    4    5 ar 
     6    7    4 1  
     7    5    6 ar 
     8    5   18 1  
     9    6   21 1  
    10   23    7 1  
    11    8    9 ar 
    12    8   13 ar 
    13   24    8 1  
    14    9   10 ar 
    15   10   11 ar 
    16   12   11 ar 
    17   11   14 1  
    18   13   12 ar 
    19   14   15 2  
    20   14   16 2  
    21   14   17 am 
    22   18   19 2  
    23   18   20 2  
    24   21   22 1  
    25   23   24 1  
    26    2   25 1  
    27    7   26 1  
    28    9   27 1  
    29   10   28 1  
    30   12   29 1  
    31   13   30 1  
    32   17   31 1  
    33   17   32 1  
    34   22   33 1  
    35   22   34 1  
    36   22   35 1  
    37   23   36 1  
    38   23   37 1  
    39   24   38 1  
    40   24   39 1  
@<TRIPOS>SUBSTRUCTURE
     1 JS7         1

