### 
### Created by X-TOOL on Mon Sep 10 21:13:07 2018
### 

@<TRIPOS>MOLECULE
3m3z_ligand
   44    46     1     0     0
SMALL
GAST_HUCK


@<TRIPOS>ATOM
      1 N1         18.1480   -5.4300   -2.5750 N.ar      1 3F5        -0.2757
      2 C2         16.8420   -5.5240   -2.1230 C.ar      1 3F5         0.0488
      3 N3         16.4750   -4.9270   -1.0320 N.ar      1 3F5        -0.2770
      4 C4         19.0730   -4.6700   -1.8790 C.ar      1 3F5         0.1208
      5 N5         17.2550   -3.5120    0.7800 N.pl3     1 3F5        -0.1703
      6 C6         18.4610   -2.8960    1.0340 C.2       1 3F5         0.2216
      7 N7         19.3250   -3.2470    0.0820 N.2       1 3F5        -0.3034
      8 C8         18.6750   -4.0120   -0.7830 C.ar      1 3F5         0.0820
      9 C9         17.3670   -4.1690   -0.3320 C.ar      1 3F5         0.1531
     10 N10        20.3680   -4.5720   -2.3070 N.pl3     1 3F5        -0.3182
     11 C11        16.0250   -3.3400    1.5100 C.3       1 3F5         0.2010
     12 O12        15.8710   -1.9360    1.7750 O.3       1 3F5        -0.3374
     13 C13        14.9210   -1.8530    2.8650 C.3       1 3F5         0.1139
     14 C14        14.9880   -3.2230    3.5840 C.3       1 3F5         0.1145
     15 C15        16.0850   -3.9490    2.8750 C.3       1 3F5         0.1377
     16 C16        15.4010   -0.7500    3.7900 C.3       1 3F5         0.0795
     17 O17        16.7400   -1.0440    4.1680 O.3       1 3F5        -0.3568
     18 O18        15.7810   -5.3600    2.8060 O.3       1 3F5        -0.3837
     19 O19        13.7570   -3.9060    3.3990 O.3       1 3F5        -0.3864
     20 N20        18.6740   -2.0950    2.0850 N.pl3     1 3F5        -0.2778
     21 C21        19.9810   -1.3760    2.2200 C.3       1 3F5         0.0221
     22 C22        17.1630   -0.2000    5.2310 C.3       1 3F5         0.1364
     23 C23        18.1870   -0.9610    6.0580 C.2       1 3F5         0.1996
     24 O24        18.0280   -2.1600    6.2810 O.2       1 3F5        -0.3947
     25 N25        19.2550   -0.3450    6.5110 N.am      1 3F5        -0.2990
     26 H1         16.1194   -6.1025   -2.6871 H         1 3F5         0.0961
     27 H2         21.0436   -4.0025   -1.7777 H         1 3F5         0.1803
     28 H3         20.6678   -5.0677   -3.1586 H         1 3F5         0.1803
     29 H4         15.1806   -3.7459    0.9337 H         1 3F5         0.0985
     30 H5         13.9031   -1.6449    2.5037 H         1 3F5         0.0647
     31 H6         15.2072   -3.1088    4.6559 H         1 3F5         0.0648
     32 H7         17.0622   -3.7906    3.3545 H         1 3F5         0.0675
     33 H8         14.7616   -0.7081    4.6841 H         1 3F5         0.0588
     34 H9         15.3647    0.2173    3.2676 H         1 3F5         0.0588
     35 H10        14.9667   -5.4846    2.3329 H         1 3F5         0.2101
     36 H11        13.8285   -4.7860    3.7498 H         1 3F5         0.2100
     37 H12        17.9414   -1.9734    2.7987 H         1 3F5         0.1889
     38 H13        19.9729   -0.7699    3.1379 H         1 3F5         0.0490
     39 H14        20.1307   -0.7207    1.3493 H         1 3F5         0.0490
     40 H15        20.7993   -2.1093    2.2721 H         1 3F5         0.0490
     41 H16        16.3012    0.0687    5.8596 H         1 3F5         0.0804
     42 H17        17.6184    0.7143    4.8228 H         1 3F5         0.0804
     43 H18        19.9282   -0.8460    7.0549 H         1 3F5         0.1815
     44 H19        19.3949    0.6250    6.3120 H         1 3F5         0.1815
@<TRIPOS>BOND
     1    2    1 ar 
     2    1    4 ar 
     3    3    2 ar 
     4    9    3 ar 
     5    4    8 ar 
     6    4   10 1  
     7    5    6 1  
     8    5    9 1  
     9    5   11 1  
    10    6    7 2  
    11    6   20 1  
    12    7    8 1  
    13    8    9 ar 
    14   11   12 1  
    15   11   15 1  
    16   12   13 1  
    17   13   14 1  
    18   13   16 1  
    19   14   15 1  
    20   14   19 1  
    21   15   18 1  
    22   16   17 1  
    23   17   22 1  
    24   20   21 1  
    25   22   23 1  
    26   23   24 2  
    27   23   25 am 
    28    2   26 1  
    29   10   27 1  
    30   10   28 1  
    31   11   29 1  
    32   13   30 1  
    33   14   31 1  
    34   15   32 1  
    35   16   33 1  
    36   16   34 1  
    37   18   35 1  
    38   19   36 1  
    39   20   37 1  
    40   21   38 1  
    41   21   39 1  
    42   21   40 1  
    43   22   41 1  
    44   22   42 1  
    45   25   43 1  
    46   25   44 1  
@<TRIPOS>SUBSTRUCTURE
     1 3F5         1

