### 
### Created by X-TOOL on Mon Sep 10 21:13:02 2018
### 

@<TRIPOS>MOLECULE
3m40_ligand
   29    30     1     0     0
SMALL
GAST_HUCK


@<TRIPOS>ATOM
      1 N1         -5.9300    7.8370   11.2480 N.ar      1 J45        -0.1913
      2 C2         -6.5420    6.9080   11.9300 C.ar      1 J45         0.1363
      3 N3         -5.8370    6.1600   12.7740 N.ar      1 J45        -0.1643
      4 C4         -4.5230    6.3650   13.0740 C.ar      1 J45         0.3286
      5 C5         -3.8360    7.3330   12.2880 C.ar      1 J45         0.2583
      6 C6         -4.6610    8.0930   11.3950 C.ar      1 J45         0.2215
      7 N7         -3.7620    5.4360   13.8720 N.pl3     1 J45        -0.1185
      8 C8         -4.3490    4.3860   14.5900 C.ar      1 J45         0.2657
      9 C9         -3.5010    3.4090   15.0890 C.ar      1 J45         0.1000
     10 C10        -4.0420    2.3570   15.7990 C.ar      1 J45         0.0662
     11 C11        -5.4080    2.2540   16.0090 C.ar      1 J45         0.2011
     12 C12        -6.2560    3.2220   15.4900 C.ar      1 J45         0.0662
     13 C13        -5.7310    4.2920   14.7190 C.ar      1 J45         0.1000
     14 S14        -6.0150    0.8830   16.8730 S.o2      1 J45         0.1083
     15 O15        -5.4480    0.9490   18.2350 O.2       1 J45        -0.1382
     16 O16        -7.4980    0.8850   16.7420 O.2       1 J45        -0.1382
     17 N17        -5.3330   -0.4870   16.1380 N.am      1 J45        -0.2509
     18 N18        -2.3700    7.4570   12.5160 N.2       1 J45        -0.1655
     19 O19        -2.1510    7.5690   13.6740 O.2       1 J45        -0.4701
     20 O20        -1.8910    7.3250   11.4390 O.2       1 J45        -0.4701
     21 CL21       -4.1880    9.4210   10.3890 Cl        1 J45        -0.0064
     22 H1         -7.6075    6.7485   11.8106 H         1 J45         0.1303
     23 H2         -2.7392    5.5496   13.9162 H         1 J45         0.3626
     24 H3         -2.4314    3.4707   14.9241 H         1 J45         0.1241
     25 H4         -3.3846    1.5947   16.2012 H         1 J45         0.0956
     26 H5         -7.3225    3.1609   15.6739 H         1 J45         0.0956
     27 H6         -6.3867    5.0136   14.2453 H         1 J45         0.1241
     28 H7         -5.5512   -1.4001   16.4826 H         1 J45         0.1645
     29 H8         -4.7131   -0.3809   15.3605 H         1 J45         0.1645
@<TRIPOS>BOND
     1    1    2 ar 
     2    1    6 ar 
     3    2    3 ar 
     4    3    4 ar 
     5    4    5 ar 
     6    4    7 1  
     7    5    6 ar 
     8    5   18 1  
     9    6   21 1  
    10    7    8 1  
    11    8    9 ar 
    12    8   13 ar 
    13    9   10 ar 
    14   10   11 ar 
    15   11   12 ar 
    16   11   14 1  
    17   12   13 ar 
    18   14   15 2  
    19   14   16 2  
    20   14   17 am 
    21   18   19 2  
    22   18   20 2  
    23    2   22 1  
    24    7   23 1  
    25    9   24 1  
    26   10   25 1  
    27   12   26 1  
    28   13   27 1  
    29   17   28 1  
    30   17   29 1  
@<TRIPOS>SUBSTRUCTURE
     1 J45         1

