### 
### Created by X-TOOL on Mon Sep 10 21:13:02 2018
### 

@<TRIPOS>MOLECULE
3m5e_ligand
   36    37     1     0     0
SMALL
GAST_HUCK


@<TRIPOS>ATOM
      1 N1         -3.9920   10.3070   12.0910 N.ar      1 JDR        -0.2511
      2 C2         -3.1700    9.6420   12.8920 C.ar      1 JDR         0.1494
      3 N3         -3.3250    8.3480   13.1610 N.ar      1 JDR        -0.2393
      4 C4         -4.3410    7.6760   12.6170 C.ar      1 JDR         0.1399
      5 C5         -5.2300    8.3340   11.7690 C.ar      1 JDR         0.1066
      6 C6         -5.0160    9.6860   11.5230 C.ar      1 JDR         0.1337
      7 N7         -4.5230    6.2790   12.9080 N.pl3     1 JDR        -0.2873
      8 C8         -4.3930    4.4640   14.5850 C.ar      1 JDR        -0.0204
      9 C9         -5.7580    4.4460   14.8790 C.ar      1 JDR        -0.0565
     10 C10        -6.2990    3.3530   15.5670 C.ar      1 JDR        -0.0419
     11 C11        -5.4550    2.3000   15.9460 C.ar      1 JDR         0.1009
     12 C12        -4.1020    2.3320   15.6440 C.ar      1 JDR        -0.0419
     13 C13        -3.5710    3.4190   14.9650 C.ar      1 JDR        -0.0565
     14 S14        -6.0500    0.9100   16.8020 S.o2      1 JDR         0.0628
     15 O15        -5.5290    0.9820   18.2150 O.2       1 JDR        -0.1514
     16 O16        -7.5630    0.8980   16.6340 O.2       1 JDR        -0.1514
     17 N17        -5.3950   -0.4920   16.0580 N.am      1 JDR        -0.2617
     18 C18        -6.3720    7.6330   11.1400 C.2       1 JDR         0.1253
     19 O19        -6.8100    6.5920   11.6350 O.2       1 JDR        -0.3707
     20 CL20       -6.0670   10.5930   10.4990 Cl        1 JDR        -0.0278
     21 S21        -1.8240   10.4710   13.6590 S.3       1 JDR        -0.0604
     22 C22        -1.1030    9.4600   14.9940 C.3       1 JDR         0.0024
     23 C23        -3.6940    5.5650   13.8580 C.3       1 JDR         0.0641
     24 H1         -5.2722    5.7660   12.4218 H         1 JDR         0.1895
     25 H2         -6.3932    5.2709   14.5773 H         1 JDR         0.0558
     26 H3         -7.3565    3.3216   15.8034 H         1 JDR         0.0619
     27 H4         -3.4604    1.5092   15.9379 H         1 JDR         0.0619
     28 H5         -2.5126    3.4491   14.7325 H         1 JDR         0.0558
     29 H6         -5.6235   -1.3989   16.4120 H         1 JDR         0.1634
     30 H7         -4.7850   -0.4016   15.2707 H         1 JDR         0.1634
     31 H8         -6.8268    8.0380   10.2372 H         1 JDR         0.1309
     32 H9         -0.2648   10.0040   15.4540 H         1 JDR         0.0374
     33 H10        -0.7387    8.5091   14.5780 H         1 JDR         0.0374
     34 H11        -1.8704    9.2570   15.7555 H         1 JDR         0.0374
     35 H12        -3.3237    6.2865   14.6012 H         1 JDR         0.0690
     36 H13        -2.8430    5.1306   13.3130 H         1 JDR         0.0690
@<TRIPOS>BOND
     1    2    1 ar 
     2    6    1 ar 
     3    3    2 ar 
     4    2   21 1  
     5    4    3 ar 
     6    4    5 ar 
     7    7    4 1  
     8    5    6 ar 
     9    5   18 1  
    10    6   20 1  
    11   23    7 1  
    12    8    9 ar 
    13    8   13 ar 
    14    8   23 1  
    15    9   10 ar 
    16   10   11 ar 
    17   11   12 ar 
    18   11   14 1  
    19   12   13 ar 
    20   14   15 2  
    21   14   16 2  
    22   14   17 am 
    23   18   19 2  
    24   21   22 1  
    25    7   24 1  
    26    9   25 1  
    27   10   26 1  
    28   12   27 1  
    29   13   28 1  
    30   17   29 1  
    31   17   30 1  
    32   18   31 1  
    33   22   32 1  
    34   22   33 1  
    35   22   34 1  
    36   23   35 1  
    37   23   36 1  
@<TRIPOS>SUBSTRUCTURE
     1 JDR         1

