### 
### Created by X-TOOL on Mon Sep 10 21:13:02 2018
### 

@<TRIPOS>MOLECULE
3m67_ligand
   42    45     1     0     0
SMALL
GAST_HUCK


@<TRIPOS>ATOM
      1 O1         -0.9270   10.1030   12.6310 O.3       1 E36        -0.3245
      2 C2         -0.0930   10.6550   13.6500 C.3       1 E36         0.0937
      3 C3         -0.2270    9.8520   14.9910 C.3       1 E36         0.0931
      4 O4         -1.3620    9.0050   15.0230 O.3       1 E36        -0.3260
      5 C5         -1.4000    8.1260   13.9740 C.ar      1 E36         0.1050
      6 C6         -1.1380    8.7250   12.6270 C.ar      1 E36         0.1076
      7 C7         -1.1110    7.9580   11.5160 C.ar      1 E36        -0.0204
      8 C8         -1.3320    6.5110   11.7280 C.ar      1 E36         0.0605
      9 N9         -1.3290    5.4380   10.7570 N.pl3     1 E36        -0.2465
     10 C10        -1.5480    4.3620   11.4530 C.2       1 E36         0.1806
     11 N11        -1.7210    4.6760   12.8490 N.2       1 E36        -0.3196
     12 C12        -1.5620    6.0270   12.9320 C.ar      1 E36         0.0024
     13 C13        -1.6090    6.8340   14.1510 C.ar      1 E36        -0.0440
     14 S14        -1.7000    2.6640   10.8590 S.3       1 E36        -0.0197
     15 C15        -2.8380    2.0910   12.2030 C.3       1 E36         0.0905
     16 C16        -4.0810    3.0480   12.3070 C.2       1 E36         0.1458
     17 O17        -4.5050    3.6230   11.2210 O.2       1 E36        -0.3773
     18 C18        -4.7750    3.2600   13.6590 C.ar      1 E36         0.0355
     19 C19        -4.9800    2.1460   14.6020 C.ar      1 E36        -0.0159
     20 C20        -5.5860    2.3660   15.7880 C.ar      1 E36         0.1276
     21 C21        -6.0250    3.7320   16.0690 C.ar      1 E36         0.0719
     22 C22        -5.8820    4.7600   15.2190 C.ar      1 E36        -0.0401
     23 C23        -5.2350    4.5050   13.9510 C.ar      1 E36        -0.0425
     24 S24        -5.8860    0.9300   16.8560 S.o2      1 E36         0.0674
     25 O25        -7.4410    0.8990   16.8550 O.2       1 E36        -0.1504
     26 CL26       -6.7940    3.9290   17.5810 Cl        1 E36        -0.0643
     27 O27        -5.2700    1.1430   18.2330 O.2       1 E36        -0.1504
     28 N28        -5.1900   -0.3770   16.0070 N.am      1 E36        -0.2609
     29 H1         -0.3870   11.7001   13.8270 H         1 E36         0.0634
     30 H2          0.9540   10.6203   13.3144 H         1 E36         0.0634
     31 H3         -0.3023   10.5689   15.8218 H         1 E36         0.0633
     32 H4          0.6739    9.2343   15.1202 H         1 E36         0.0633
     33 H5         -0.9383    8.3763   10.5310 H         1 E36         0.0428
     34 H6         -1.1852    5.5107    9.7397 H         1 E36         0.2295
     35 H7         -1.8011    6.4036   15.1272 H         1 E36         0.0419
     36 H8         -2.2979    2.0916   13.1613 H         1 E36         0.0633
     37 H9         -3.1827    1.0711   11.9770 H         1 E36         0.0633
     38 H10        -4.6437    1.1486   14.3428 H         1 E36         0.0691
     39 H11        -6.2402    5.7507   15.4746 H         1 E36         0.0636
     40 H12        -5.1168    5.3080   13.2325 H         1 E36         0.0671
     41 H13        -5.2234   -1.2987   16.3934 H         1 E36         0.1635
     42 H14        -4.7489   -0.2210   15.1232 H         1 E36         0.1635
@<TRIPOS>BOND
     1    1    2 1  
     2    1    6 1  
     3    2    3 1  
     4    3    4 1  
     5    4    5 1  
     6    5    6 ar 
     7    5   13 ar 
     8    6    7 ar 
     9    7    8 ar 
    10    8    9 1  
    11    8   12 ar 
    12    9   10 1  
    13   10   11 2  
    14   10   14 1  
    15   11   12 1  
    16   12   13 ar 
    17   14   15 1  
    18   15   16 1  
    19   16   17 2  
    20   16   18 1  
    21   18   19 ar 
    22   18   23 ar 
    23   19   20 ar 
    24   20   21 ar 
    25   20   24 1  
    26   21   22 ar 
    27   21   26 1  
    28   22   23 ar 
    29   24   25 2  
    30   24   27 2  
    31   24   28 am 
    32    2   29 1  
    33    2   30 1  
    34    3   31 1  
    35    3   32 1  
    36    7   33 1  
    37    9   34 1  
    38   13   35 1  
    39   15   36 1  
    40   15   37 1  
    41   19   38 1  
    42   22   39 1  
    43   23   40 1  
    44   28   41 1  
    45   28   42 1  
@<TRIPOS>SUBSTRUCTURE
     1 E36         1

