### 
### Created by X-TOOL on Mon Sep 10 21:13:03 2018
### 

@<TRIPOS>MOLECULE
3m6f_ligand
   55    59     1     0     0
SMALL
GAST_HUCK


@<TRIPOS>ATOM
      1 C1         -5.9740   -0.3550   28.4070 C.ar      1 BJZ         0.0298
      2 C2         -7.1610    0.2840   27.9800 C.ar      1 BJZ        -0.0214
      3 C4         -7.8720    1.1230   28.8960 C.ar      1 BJZ         0.0978
      4 C5         -7.3270    1.3300   30.1760 C.ar      1 BJZ        -0.0214
      5 C7         -6.1400    0.6880   30.5640 C.ar      1 BJZ         0.0298
      6 C8         -5.4570   -0.1730   29.6950 C.ar      1 BJZ        -0.0474
      7 CL10       -5.5160    0.9920   32.1730 Cl        1 BJZ        -0.0743
      8 N11        -9.1040    1.6450   28.5790 N.am      1 BJZ        -0.1153
      9 C12       -10.2190    1.5700   29.3560 C.2       1 BJZ         0.3193
     10 N13       -11.2740    2.0750   28.6980 N.am      1 BJZ        -0.2368
     11 C14       -10.9240    2.4560   27.3350 C.3       1 BJZ         0.1813
     12 C15        -9.4000    2.2090   27.3770 C.2       1 BJZ         0.2828
     13 O16        -8.6300    2.4830   26.4510 O.2       1 BJZ        -0.3228
     14 C17       -11.2150    3.9130   26.9380 C.3       1 BJZ         0.0667
     15 N20       -11.5990    3.7830   25.5290 N.pl3     1 BJZ        -0.2886
     16 C21       -11.4550    2.4270   24.9970 C.3       1 BJZ         0.0454
     17 C24       -11.5590    1.5730   26.2490 C.3       1 BJZ         0.0528
     18 C26       -11.0030    0.1580   26.1760 C.ar      1 BJZ        -0.0272
     19 C27       -11.5440   -0.8190   27.0310 C.ar      1 BJZ        -0.0484
     20 C29       -10.9650   -2.0990   27.1200 C.ar      1 BJZ        -0.0334
     21 C31        -9.8640   -2.4130   26.3020 C.ar      1 BJZ         0.0883
     22 C32        -9.3290   -1.4770   25.4150 C.ar      1 BJZ        -0.0334
     23 C34        -9.9100   -0.1970   25.3370 C.ar      1 BJZ        -0.0484
     24 C36        -9.3230   -3.7420   26.3490 C.1       1 BJZ         0.0934
     25 N37        -8.8790   -4.8110   26.3930 N.1       1 BJZ        -0.3338
     26 C38       -12.1200    4.8260   24.7860 C.ar      1 BJZ         0.1167
     27 N39       -12.4140    6.0050   25.4090 N.ar      1 BJZ        -0.2807
     28 C40       -12.9240    7.0480   24.6940 C.ar      1 BJZ         0.0105
     29 C42       -13.1420    6.9810   23.3100 C.ar      1 BJZ         0.0237
     30 C43       -12.8270    5.7780   22.6610 C.ar      1 BJZ        -0.0402
     31 C45       -12.3250    4.6870   23.3940 C.ar      1 BJZ        -0.0125
     32 C47       -13.6690    8.1410   22.5670 C.2       1 BJZ         0.0616
     33 O48       -13.7640    8.1500   21.3780 O.co2     1 BJZ        -0.5623
     34 O49       -14.0130    9.1790   23.3390 O.co2     1 BJZ        -0.5623
     35 C51       -12.6450    2.1280   29.2500 C.3       1 BJZ         0.0235
     36 O55       -10.3000    1.1100   30.4910 O.2       1 BJZ        -0.3820
     37 CL56       -5.0970   -1.3710   27.3310 Cl        1 BJZ        -0.0743
     38 H          -7.5303    0.1392   26.9647 H         1 BJZ         0.0529
     39 H          -7.8320    1.9966   30.8750 H         1 BJZ         0.0529
     40 H          -4.5494   -0.6862   30.0127 H         1 BJZ         0.0515
     41 H         -10.3642    4.5769   27.0908 H         1 BJZ         0.0534
     42 H         -11.9866    4.3784   27.5513 H         1 BJZ         0.0534
     43 H         -10.5224    2.2774   24.4530 H         1 BJZ         0.0548
     44 H         -12.2058    2.1796   24.2465 H         1 BJZ         0.0548
     45 H         -12.5992    1.3187   26.4524 H         1 BJZ         0.0513
     46 H         -12.4221   -0.5822   27.6319 H         1 BJZ         0.0583
     47 H         -11.3648   -2.8381   27.8143 H         1 BJZ         0.0701
     48 H          -8.4729   -1.7338   24.7912 H         1 BJZ         0.0701
     49 H          -9.5181    0.5302   24.6259 H         1 BJZ         0.0583
     50 H         -13.1722    7.9705   25.2188 H         1 BJZ         0.0818
     51 H         -12.9717    5.6880   21.5844 H         1 BJZ         0.0731
     52 H         -12.0968    3.7455   22.8945 H         1 BJZ         0.0617
     53 H         -12.9844    1.1167   29.4742 H         1 BJZ         0.0483
     54 H         -12.6449    2.7234   30.1630 H         1 BJZ         0.0483
     55 H         -13.3126    2.5828   28.5182 H         1 BJZ         0.0483
@<TRIPOS>BOND
     1    1    2 ar 
     2    1    6 ar 
     3    1   37 1  
     4    2    3 ar 
     5    3    4 ar 
     6    3    8 1  
     7    4    5 ar 
     8    5    6 ar 
     9    5    7 1  
    10    8    9 am 
    11    8   12 am 
    12    9   10 am 
    13    9   36 2  
    14   10   11 1  
    15   10   35 1  
    16   11   12 1  
    17   11   14 1  
    18   11   17 1  
    19   12   13 2  
    20   14   15 1  
    21   15   16 1  
    22   15   26 1  
    23   16   17 1  
    24   17   18 1  
    25   18   19 ar 
    26   18   23 ar 
    27   19   20 ar 
    28   20   21 ar 
    29   21   22 ar 
    30   21   24 1  
    31   22   23 ar 
    32   24   25 3  
    33   26   27 ar 
    34   26   31 ar 
    35   27   28 ar 
    36   28   29 ar 
    37   29   30 ar 
    38   29   32 1  
    39   30   31 ar 
    40   32   33 ar 
    41   32   34 ar 
    42    2   38 1  
    43    4   39 1  
    44    6   40 1  
    45   14   41 1  
    46   14   42 1  
    47   16   43 1  
    48   16   44 1  
    49   17   45 1  
    50   19   46 1  
    51   20   47 1  
    52   22   48 1  
    53   23   49 1  
    54   28   50 1  
    55   30   51 1  
    56   31   52 1  
    57   35   53 1  
    58   35   54 1  
    59   35   55 1  
@<TRIPOS>SUBSTRUCTURE
     1 BJZ         1

