### 
### Created by X-TOOL on Mon Sep 10 21:13:07 2018
### 

@<TRIPOS>MOLECULE
3m6p_ligand
   62    62     1     0     0
SMALL
GAST_HUCK


@<TRIPOS>ATOM
      1 C5         16.6930   11.4440   26.4200 C.3       1 BB2         0.0585
      2 C3         16.2320   11.4980   27.8370 C.2       1 BB2         0.2013
      3 O4         16.8700   10.8950   28.6730 O.2       1 BB2        -0.3968
      4 N1         15.1070   12.1800   28.1040 N.am      1 BB2        -0.1641
      5 O2         14.7060   12.1920   29.4080 O.3       1 BB2        -0.2717
      6 C6         16.3060   10.0010   26.0410 C.3       1 BB2         0.0654
      7 C12        16.9130    9.6400   24.7250 C.2       1 BB2         0.1836
      8 O13        16.8880   10.4350   23.7850 O.2       1 BB2        -0.3965
      9 C7         14.7340    9.9090   25.8150 C.3       1 BB2        -0.0311
     10 C8         14.2780    8.5110   25.2870 C.3       1 BB2        -0.0506
     11 C9         12.7890    8.4730   25.0830 C.3       1 BB2        -0.0532
     12 C10        12.3180    6.9530   25.0570 C.3       1 BB2        -0.0559
     13 C11        13.1440    6.0580   24.0800 C.3       1 BB2        -0.0653
     14 N14        17.4130    8.4370   24.6770 N.am      1 BB2        -0.2650
     15 C15        17.9520    7.9160   23.4410 C.3       1 BB2         0.1332
     16 C16        19.4650    7.6840   23.5130 C.3       1 BB2        -0.0063
     17 C18        20.1800    9.0590   23.6460 C.3       1 BB2        -0.0584
     18 C17        19.7830    6.8770   24.7190 C.3       1 BB2        -0.0584
     19 C19        17.1280    6.6430   23.0870 C.2       1 BB2         0.2047
     20 O20        16.6840    5.9060   23.9880 O.2       1 BB2        -0.3943
     21 N21        16.8840    6.3400   21.7840 N.am      1 BB2        -0.2661
     22 C22        16.1200    5.1700   21.3430 C.3       1 BB2         0.0681
     23 C23        17.3290    7.1430   20.6180 C.3       1 BB2         0.0344
     24 C24        16.3290    6.7780   19.5230 C.3       1 BB2        -0.0303
     25 C25        15.9020    5.3640   19.8400 C.3       1 BB2        -0.0257
     26 C26        16.9330    3.8650   21.5450 C.3       1 BB2         0.0673
     27 O27        15.9890    2.7900   21.3710 O.3       1 BB2        -0.3927
     28 H1         17.7783   11.6052   26.3416 H         1 BB2         0.0529
     29 H2         16.1668   12.1808   25.7954 H         1 BB2         0.0529
     30 H3         14.5924   12.6521   27.3882 H         1 BB2         0.2216
     31 H4         13.9060   12.6981   29.4875 H         1 BB2         0.2490
     32 H5         16.6317    9.3048   26.8278 H         1 BB2         0.0563
     33 H6         14.4391   10.6745   25.0822 H         1 BB2         0.0294
     34 H7         14.2294   10.1044   26.7727 H         1 BB2         0.0294
     35 H8         14.5608    7.7400   26.0189 H         1 BB2         0.0267
     36 H9         14.7779    8.3077   24.3285 H         1 BB2         0.0267
     37 H10        12.5334    8.9564   24.1285 H         1 BB2         0.0265
     38 H11        12.2885    9.0018   25.9075 H         1 BB2         0.0265
     39 H12        11.2625    6.9214   24.7489 H         1 BB2         0.0263
     40 H13        12.4161    6.5413   26.0723 H         1 BB2         0.0263
     41 H14        12.7626    5.0269   24.1163 H         1 BB2         0.0230
     42 H15        14.2024    6.0682   24.3794 H         1 BB2         0.0230
     43 H16        13.0488    6.4483   23.0560 H         1 BB2         0.0230
     44 H17        17.4237    7.8706   25.5011 H         1 BB2         0.1883
     45 H18        17.7810    8.6606   22.6496 H         1 BB2         0.0802
     46 H19        19.8089    7.1627   22.6075 H         1 BB2         0.0343
     47 H20        21.2676    8.9031   23.6985 H         1 BB2         0.0234
     48 H21        19.8373    9.5635   24.5615 H         1 BB2         0.0234
     49 H22        19.9408    9.6828   22.7721 H         1 BB2         0.0234
     50 H23        19.2866    5.8980   24.6464 H         1 BB2         0.0234
     51 H24        19.4265    7.4032   25.6168 H         1 BB2         0.0234
     52 H25        20.8713    6.7321   24.7868 H         1 BB2         0.0234
     53 H26        15.1623    5.1071   21.8804 H         1 BB2         0.0581
     54 H27        18.3524    6.8697   20.3213 H         1 BB2         0.0522
     55 H28        17.2876    8.2187   20.8440 H         1 BB2         0.0522
     56 H29        16.8055    6.8252   18.5327 H         1 BB2         0.0285
     57 H30        15.4644    7.4576   19.5467 H         1 BB2         0.0285
     58 H31        14.8405    5.2224   19.5887 H         1 BB2         0.0289
     59 H32        16.5123    4.6465   19.2719 H         1 BB2         0.0289
     60 H33        17.3669    3.8353   22.5554 H         1 BB2         0.0580
     61 H34        17.7375    3.7942   20.7982 H         1 BB2         0.0580
     62 H35        15.2965    2.8706   22.0164 H         1 BB2         0.2095
@<TRIPOS>BOND
     1    1    2 1  
     2    1    6 1  
     3    2    3 2  
     4    2    4 am 
     5    4    5 1  
     6    6    7 1  
     7    6    9 1  
     8    7    8 2  
     9    7   14 am 
    10    9   10 1  
    11   10   11 1  
    12   11   12 1  
    13   12   13 1  
    14   14   15 1  
    15   15   16 1  
    16   15   19 1  
    17   16   17 1  
    18   16   18 1  
    19   19   20 2  
    20   19   21 am 
    21   21   22 1  
    22   21   23 1  
    23   22   25 1  
    24   22   26 1  
    25   23   24 1  
    26   24   25 1  
    27   26   27 1  
    28    1   28 1  
    29    1   29 1  
    30    4   30 1  
    31    5   31 1  
    32    6   32 1  
    33    9   33 1  
    34    9   34 1  
    35   10   35 1  
    36   10   36 1  
    37   11   37 1  
    38   11   38 1  
    39   12   39 1  
    40   12   40 1  
    41   13   41 1  
    42   13   42 1  
    43   13   43 1  
    44   14   44 1  
    45   15   45 1  
    46   16   46 1  
    47   17   47 1  
    48   17   48 1  
    49   17   49 1  
    50   18   50 1  
    51   18   51 1  
    52   18   52 1  
    53   22   53 1  
    54   23   54 1  
    55   23   55 1  
    56   24   56 1  
    57   24   57 1  
    58   25   58 1  
    59   25   59 1  
    60   26   60 1  
    61   26   61 1  
    62   27   62 1  
@<TRIPOS>SUBSTRUCTURE
     1 BB2         1

