### 
### Created by X-TOOL on Mon Sep 10 21:13:08 2018
### 

@<TRIPOS>MOLECULE
3m6q_ligand
   62    62     1     0     0
SMALL
GAST_HUCK


@<TRIPOS>ATOM
      1 C5          2.7360  -16.8050  -28.3820 C.3       1 BB2         0.0585
      2 C3          2.2210  -16.5830  -26.9590 C.2       1 BB2         0.2013
      3 O4          2.8840  -17.0620  -26.0520 O.2       1 BB2        -0.3968
      4 N1          1.0770  -15.9230  -26.7400 N.am      1 BB2        -0.1641
      5 O2          0.8780  -15.8570  -25.4360 O.3       1 BB2        -0.2717
      6 C6          2.2260  -18.1560  -28.8850 C.3       1 BB2         0.0654
      7 C12         2.5760  -18.5130  -30.3640 C.2       1 BB2         0.1836
      8 O13         2.4540  -17.7430  -31.3370 O.2       1 BB2        -0.3965
      9 C7          0.6570  -18.1000  -28.8610 C.3       1 BB2        -0.0311
     10 C8          0.1280  -19.4400  -29.4200 C.3       1 BB2        -0.0506
     11 C9         -1.4010  -19.5800  -29.5090 C.3       1 BB2        -0.0532
     12 C10        -1.7540  -21.1040  -29.4050 C.3       1 BB2        -0.0559
     13 C11        -1.8550  -21.6740  -30.7910 C.3       1 BB2        -0.0653
     14 N14         2.9900  -19.7800  -30.4480 N.am      1 BB2        -0.2650
     15 C15         3.2570  -20.4000  -31.6900 C.3       1 BB2         0.1332
     16 C16         4.7310  -20.7700  -31.8880 C.3       1 BB2        -0.0063
     17 C18         5.3680  -19.6730  -32.8120 C.3       1 BB2        -0.0584
     18 C17         5.5540  -21.1290  -30.6270 C.3       1 BB2        -0.0584
     19 C19         2.3510  -21.6480  -31.7390 C.2       1 BB2         0.2047
     20 O20         2.0620  -22.2310  -30.6660 O.2       1 BB2        -0.3943
     21 N21         1.8660  -21.9790  -33.0050 N.am      1 BB2        -0.2661
     22 C22         1.0360  -23.1240  -33.4230 C.3       1 BB2         0.0681
     23 C23         2.2520  -21.1880  -34.2300 C.3       1 BB2         0.0344
     24 C24         1.5270  -21.7400  -35.4530 C.3       1 BB2        -0.0303
     25 C25         1.0700  -23.1250  -34.9790 C.3       1 BB2        -0.0257
     26 C26         1.6820  -24.4580  -32.9330 C.3       1 BB2         0.0673
     27 O27         1.1100  -25.6590  -33.5480 O.3       1 BB2        -0.3927
     28 H           3.8260  -16.7967  -28.3860 H         1 BB2         0.0529
     29 H           2.3766  -16.0085  -29.0335 H         1 BB2         0.0529
     30 H           0.4637  -15.5370  -27.4578 H         1 BB2         0.2216
     31 H           0.0600  -15.3858  -25.2617 H         1 BB2         0.2490
     32 H           2.6990  -18.8956  -28.2390 H         1 BB2         0.0563
     33 H           0.2987  -17.2688  -29.4683 H         1 BB2         0.0294
     34 H           0.2993  -17.9471  -27.8428 H         1 BB2         0.0294
     35 H           0.4655  -20.2131  -28.7296 H         1 BB2         0.0267
     36 H           0.5010  -19.5129  -30.4416 H         1 BB2         0.0267
     37 H          -1.7624  -19.1730  -30.4534 H         1 BB2         0.0265
     38 H          -1.8778  -19.0266  -28.7000 H         1 BB2         0.0265
     39 H          -2.7037  -21.2282  -28.8848 H         1 BB2         0.0263
     40 H          -0.9764  -21.6257  -28.8471 H         1 BB2         0.0263
     41 H          -2.6363  -21.1503  -31.3418 H         1 BB2         0.0230
     42 H          -0.9014  -21.5496  -31.3040 H         1 BB2         0.0230
     43 H          -2.1003  -22.7342  -30.7295 H         1 BB2         0.0230
     44 H           3.1174  -20.3165  -29.5899 H         1 BB2         0.1883
     45 H           3.0464  -19.7063  -32.5039 H         1 BB2         0.0802
     46 H           4.7643  -21.7440  -32.3761 H         1 BB2         0.0343
     47 H           4.8453  -19.6571  -33.7684 H         1 BB2         0.0234
     48 H           5.2789  -18.6987  -32.3316 H         1 BB2         0.0234
     49 H           6.4206  -19.9040  -32.9755 H         1 BB2         0.0234
     50 H           5.5589  -20.2796  -29.9439 H         1 BB2         0.0234
     51 H           5.1039  -21.9907  -30.1341 H         1 BB2         0.0234
     52 H           6.5767  -21.3686  -30.9182 H         1 BB2         0.0234
     53 H           0.0277  -23.0445  -33.0166 H         1 BB2         0.0581
     54 H           3.3282  -21.2658  -34.3842 H         1 BB2         0.0522
     55 H           1.9728  -20.1441  -34.0870 H         1 BB2         0.0522
     56 H           2.1603  -21.7820  -36.3391 H         1 BB2         0.0285
     57 H           0.7004  -21.1081  -35.7778 H         1 BB2         0.0285
     58 H           0.0785  -23.3464  -35.3740 H         1 BB2         0.0289
     59 H           1.7605  -23.8887  -35.3369 H         1 BB2         0.0289
     60 H           1.5038  -24.5283  -31.8600 H         1 BB2         0.0580
     61 H           2.7366  -24.4259  -33.2065 H         1 BB2         0.0580
     62 H           0.1729  -25.7060  -33.3446 H         1 BB2         0.2095
@<TRIPOS>BOND
     1    1    2 1  
     2    1    6 1  
     3    2    3 2  
     4    2    4 am 
     5    4    5 1  
     6    6    7 1  
     7    6    9 1  
     8    7    8 2  
     9    7   14 am 
    10    9   10 1  
    11   10   11 1  
    12   11   12 1  
    13   12   13 1  
    14   14   15 1  
    15   15   16 1  
    16   15   19 1  
    17   16   17 1  
    18   16   18 1  
    19   19   20 2  
    20   19   21 am 
    21   21   22 1  
    22   21   23 1  
    23   22   25 1  
    24   22   26 1  
    25   23   24 1  
    26   24   25 1  
    27   26   27 1  
    28    1   28 1  
    29    1   29 1  
    30    4   30 1  
    31    5   31 1  
    32    6   32 1  
    33    9   33 1  
    34    9   34 1  
    35   10   35 1  
    36   10   36 1  
    37   11   37 1  
    38   11   38 1  
    39   12   39 1  
    40   12   40 1  
    41   13   41 1  
    42   13   42 1  
    43   13   43 1  
    44   14   44 1  
    45   15   45 1  
    46   16   46 1  
    47   17   47 1  
    48   17   48 1  
    49   17   49 1  
    50   18   50 1  
    51   18   51 1  
    52   18   52 1  
    53   22   53 1  
    54   23   54 1  
    55   23   55 1  
    56   24   56 1  
    57   24   57 1  
    58   25   58 1  
    59   25   59 1  
    60   26   60 1  
    61   26   61 1  
    62   27   62 1  
@<TRIPOS>SUBSTRUCTURE
     1 BB2         1

