### 
### Created by X-TOOL on Mon Sep 10 21:13:07 2018
### 

@<TRIPOS>MOLECULE
3m6r_ligand
   62    62     1     0     0
SMALL
GAST_HUCK


@<TRIPOS>ATOM
      1 C5        -14.4930    6.5380  -30.9450 C.3       1 BB2         0.0585
      2 C3        -13.0760    6.0100  -30.3690 C.2       1 BB2         0.2013
      3 O4        -12.9100    5.0710  -31.1580 O.2       1 BB2        -0.3968
      4 N1        -12.1660    6.2950  -29.4450 N.am      1 BB2        -0.1641
      5 O2        -11.0260    5.5230  -29.2970 O.3       1 BB2        -0.2717
      6 C6        -15.5390    5.7470  -30.0750 C.3       1 BB2         0.0654
      7 C12       -16.8890    6.3080  -30.6430 C.2       1 BB2         0.1836
      8 O13       -17.0380    7.5400  -30.7230 O.2       1 BB2        -0.3965
      9 C7        -15.4020    6.1400  -28.5770 C.3       1 BB2        -0.0311
     10 C8        -16.4430    5.3020  -27.7910 C.3       1 BB2        -0.0506
     11 C9        -16.4480    5.5840  -26.3190 C.3       1 BB2        -0.0532
     12 C10       -17.3450    4.5260  -25.6810 C.3       1 BB2        -0.0559
     13 C11       -18.8040    4.9680  -25.7230 C.3       1 BB2        -0.0653
     14 N14       -17.7620    5.2940  -30.9740 N.am      1 BB2        -0.2650
     15 C15       -19.1390    5.7910  -30.6900 C.3       1 BB2         0.1332
     16 C16       -19.8890    5.6290  -32.0890 C.3       1 BB2        -0.0063
     17 C18       -19.6120    6.8170  -33.0460 C.3       1 BB2        -0.0584
     18 C17       -19.5010    4.2950  -32.8330 C.3       1 BB2        -0.0584
     19 C19       -19.9160    4.9540  -29.6240 C.2       1 BB2         0.2047
     20 O20       -19.4120    3.9610  -29.1460 O.2       1 BB2        -0.3943
     21 N21       -21.2540    5.7280  -29.3630 N.am      1 BB2        -0.2661
     22 C22       -22.2220    5.2020  -28.3520 C.3       1 BB2         0.0681
     23 C23       -21.8520    7.0110  -29.8960 C.3       1 BB2         0.0344
     24 C24       -22.7320    7.5250  -28.7400 C.3       1 BB2        -0.0303
     25 C25       -23.3980    6.2000  -28.3140 C.3       1 BB2        -0.0257
     26 C26       -22.7530    3.8120  -28.7680 C.3       1 BB2         0.0673
     27 O27       -23.6650    3.2990  -27.7990 O.3       1 BB2        -0.3927
     28 H1        -14.6018    6.2961  -32.0125 H         1 BB2         0.0529
     29 H2        -14.5991    7.6235  -30.8023 H         1 BB2         0.0529
     30 H3        -12.3066    7.0822  -28.8445 H         1 BB2         0.2216
     31 H4        -10.5285    5.5365  -30.1062 H         1 BB2         0.2490
     32 H5        -15.4493    4.6579  -30.2005 H         1 BB2         0.0563
     33 H6        -15.6060    7.2132  -28.4479 H         1 BB2         0.0294
     34 H7        -14.3869    5.9139  -28.2185 H         1 BB2         0.0294
     35 H8        -16.2166    4.2360  -27.9406 H         1 BB2         0.0267
     36 H9        -17.4431    5.5242  -28.1915 H         1 BB2         0.0267
     37 H10       -16.8492    6.5898  -26.1256 H         1 BB2         0.0265
     38 H11       -15.4277    5.5121  -25.9143 H         1 BB2         0.0265
     39 H12       -17.0417    4.3775  -24.6341 H         1 BB2         0.0263
     40 H13       -17.2373    3.5799  -26.2318 H         1 BB2         0.0263
     41 H14       -19.4348    4.1949  -25.2598 H         1 BB2         0.0230
     42 H15       -19.1126    5.1151  -26.7685 H         1 BB2         0.0230
     43 H16       -18.9170    5.9127  -25.1709 H         1 BB2         0.0230
     44 H17       -17.5179    4.3945  -31.3363 H         1 BB2         0.1883
     45 H18       -19.1044    6.8432  -30.3712 H         1 BB2         0.0802
     46 H19       -20.9686    5.6019  -31.8801 H         1 BB2         0.0343
     47 H20       -20.1494    6.6583  -33.9926 H         1 BB2         0.0234
     48 H21       -18.5321    6.8841  -33.2442 H         1 BB2         0.0234
     49 H22       -19.9581    7.7515  -32.5802 H         1 BB2         0.0234
     50 H23       -19.6900    3.4374  -32.1706 H         1 BB2         0.0234
     51 H24       -18.4349    4.3221  -33.1024 H         1 BB2         0.0234
     52 H25       -20.1073    4.1942  -33.7453 H         1 BB2         0.0234
     53 H26       -21.7408    5.1341  -27.3652 H         1 BB2         0.0581
     54 H27       -22.4595    6.8159  -30.7920 H         1 BB2         0.0522
     55 H28       -21.0631    7.7380  -30.1390 H         1 BB2         0.0522
     56 H29       -23.4713    8.2630  -29.0846 H         1 BB2         0.0285
     57 H30       -22.1299    7.9603  -27.9289 H         1 BB2         0.0285
     58 H31       -23.8210    6.2763  -27.3015 H         1 BB2         0.0289
     59 H32       -24.1888    5.9084  -29.0208 H         1 BB2         0.0289
     60 H33       -21.9051    3.1181  -28.8658 H         1 BB2         0.0580
     61 H34       -23.2688    3.8994  -29.7356 H         1 BB2         0.0580
     62 H35       -23.2233    3.2178  -26.9619 H         1 BB2         0.2095
@<TRIPOS>BOND
     1    1    2 1  
     2    1    6 1  
     3    2    3 2  
     4    2    4 am 
     5    4    5 1  
     6    6    7 1  
     7    6    9 1  
     8    7    8 2  
     9    7   14 am 
    10    9   10 1  
    11   10   11 1  
    12   11   12 1  
    13   12   13 1  
    14   14   15 1  
    15   15   16 1  
    16   15   19 1  
    17   16   17 1  
    18   16   18 1  
    19   19   20 2  
    20   19   21 am 
    21   21   22 1  
    22   21   23 1  
    23   22   25 1  
    24   22   26 1  
    25   23   24 1  
    26   24   25 1  
    27   26   27 1  
    28    1   28 1  
    29    1   29 1  
    30    4   30 1  
    31    5   31 1  
    32    6   32 1  
    33    9   33 1  
    34    9   34 1  
    35   10   35 1  
    36   10   36 1  
    37   11   37 1  
    38   11   38 1  
    39   12   39 1  
    40   12   40 1  
    41   13   41 1  
    42   13   42 1  
    43   13   43 1  
    44   14   44 1  
    45   15   45 1  
    46   16   46 1  
    47   17   47 1  
    48   17   48 1  
    49   17   49 1  
    50   18   50 1  
    51   18   51 1  
    52   18   52 1  
    53   22   53 1  
    54   23   54 1  
    55   23   55 1  
    56   24   56 1  
    57   24   57 1  
    58   25   58 1  
    59   25   59 1  
    60   26   60 1  
    61   26   61 1  
    62   27   62 1  
@<TRIPOS>SUBSTRUCTURE
     1 BB2         1

