### 
### Created by X-TOOL on Mon Sep 10 21:13:04 2018
### 

@<TRIPOS>MOLECULE
3m8p_ligand
   43    45     1     0     0
SMALL
GAST_HUCK


@<TRIPOS>ATOM
      1 C1         47.9040   63.5680   18.4550 C.ar      1 65B         0.1372
      2 O17        47.2220   62.8850   17.4840 O.3       1 65B        -0.2370
      3 C2         48.4750   62.9450   19.5340 C.ar      1 65B        -0.0047
      4 C2'        48.2670   61.4780   19.6200 C.3       1 65B        -0.0314
      5 C3         49.1690   63.6380   20.4660 C.ar      1 65B        -0.0391
      6 C4         49.3260   65.0450   20.2720 C.ar      1 65B         0.0719
      7 C5         48.7950   65.7150   19.1790 C.ar      1 65B        -0.0391
      8 C6         48.0490   64.9330   18.2810 C.ar      1 65B        -0.0047
      9 C6'        47.3720   65.5150   17.0620 C.3       1 65B        -0.0314
     10 C13        47.9240   62.6310   16.3520 C.ar      1 65B         0.1876
     11 N12        49.1360   63.1130   16.0130 N.ar      1 65B        -0.2370
     12 C11        49.7040   62.7730   14.8630 C.ar      1 65B         0.1876
     13 N5         50.9760   63.2390   14.4950 N.pl3     1 65B        -0.2398
     14 N16        49.0640   61.9550   14.0420 N.ar      1 65B        -0.2499
     15 C15        47.8750   61.4840   14.3090 C.ar      1 65B         0.1101
     16 N18        47.1780   60.6560   13.4450 N.pl3     1 65B        -0.3190
     17 C14        47.2950   61.8310   15.4960 C.ar      1 65B         0.0962
     18 C21        51.6350   64.2330   15.1740 C.ar      1 65B         0.0760
     19 C22        51.3040   64.5860   16.5010 C.ar      1 65B        -0.0260
     20 C23        52.0060   65.5850   17.1580 C.ar      1 65B        -0.0362
     21 C24        53.0340   66.2480   16.4800 C.ar      1 65B         0.0831
     22 C25        53.3340   65.8760   15.1530 C.ar      1 65B        -0.0362
     23 C26        52.6570   64.8730   14.4880 C.ar      1 65B        -0.0260
     24 C27        53.8380   67.2970   17.0870 C.1       1 65B         0.0879
     25 N27        54.5340   68.1430   17.4750 N.1       1 65B        -0.3381
     26 C4'        50.0200   65.8690   21.2030 C.1       1 65B         0.0862
     27 N4'        50.5830   66.5110   21.9770 N.1       1 65B        -0.3367
     28 BR         45.6200   61.2370   16.0680 Br        1 65B        -0.0635
     29 H          47.1992   61.2664   19.6762 H         1 65B         0.0371
     30 H          48.6873   61.0002   18.7350 H         1 65B         0.0371
     31 H          48.7623   61.0938   20.5117 H         1 65B         0.0371
     32 H          49.5946   63.1392   21.3367 H         1 65B         0.0574
     33 H          48.9474   66.7834   19.0262 H         1 65B         0.0574
     34 H          46.6515   66.2710   17.3743 H         1 65B         0.0371
     35 H          48.1213   65.9708   16.4147 H         1 65B         0.0371
     36 H          46.8566   64.7216   16.5207 H         1 65B         0.0371
     37 H          51.4319   62.8191   13.6849 H         1 65B         0.2217
     38 H          46.2502   60.3177   13.7002 H         1 65B         0.1811
     39 H          47.5924   60.3845   12.5534 H         1 65B         0.1811
     40 H          50.4913   64.0696   17.0119 H         1 65B         0.0565
     41 H          51.7606   65.8494   18.1866 H         1 65B         0.0689
     42 H          54.1333   66.4020   14.6309 H         1 65B         0.0689
     43 H          52.9150   64.5954   13.4660 H         1 65B         0.0565
@<TRIPOS>BOND
     1    1    2 1  
     2    1    3 ar 
     3    1    8 ar 
     4    2   10 1  
     5    3    4 1  
     6    3    5 ar 
     7    5    6 ar 
     8    6    7 ar 
     9    6   26 1  
    10    7    8 ar 
    11    8    9 1  
    12   10   11 ar 
    13   10   17 ar 
    14   11   12 ar 
    15   12   13 1  
    16   12   14 ar 
    17   13   18 1  
    18   14   15 ar 
    19   15   16 1  
    20   15   17 ar 
    21   17   28 1  
    22   18   19 ar 
    23   18   23 ar 
    24   19   20 ar 
    25   20   21 ar 
    26   21   22 ar 
    27   21   24 1  
    28   22   23 ar 
    29   24   25 3  
    30   26   27 3  
    31    4   29 1  
    32    4   30 1  
    33    4   31 1  
    34    5   32 1  
    35    7   33 1  
    36    9   34 1  
    37    9   35 1  
    38    9   36 1  
    39   13   37 1  
    40   16   38 1  
    41   16   39 1  
    42   19   40 1  
    43   20   41 1  
    44   22   42 1  
    45   23   43 1  
@<TRIPOS>SUBSTRUCTURE
     1 65B         1

