### 
### Created by X-TOOL on Fri Sep 26 17:34:49 2014
### 

@<TRIPOS>MOLECULE
3m8t_ligand
   19    19     1     0     0
SMALL
GAST_HUCK


@<TRIPOS>ATOM
      1 S           4.2250   10.3310   -1.0140 S.o2      1 MOL         0.0681
      2 C1          7.6950   12.2300    0.9780 C.ar      1 MOL         0.1997
      3 N1          4.3730    8.7370   -0.9140 N.am      1 MOL        -0.2604
      4 O1          3.0160   10.9000   -0.4320 O.2       1 MOL        -0.1498
      5 C2          7.6560   10.8480    0.8330 C.ar      1 MOL        -0.0170
      6 O2          4.4000   10.7520   -2.3790 O.2       1 MOL        -0.1498
      7 C3          6.5630   10.2560    0.1940 C.ar      1 MOL        -0.0270
      8 C4          5.5060   11.0240   -0.2600 C.ar      1 MOL         0.1132
      9 C5          5.5590   12.4100   -0.1280 C.ar      1 MOL        -0.0270
     10 C6          6.6580   13.0170    0.4760 C.ar      1 MOL        -0.0170
     11 N7          8.7430   12.8720    1.6450 N.2       1 MOL         0.3148
     12 O12         9.5480   12.2200    2.2730 O.2       1 MOL         0.1782
     13 O13         8.8030   14.1010    1.6200 O.2       1 MOL         0.1782
     14 H1          4.2785    8.2806   -0.0293 H         1 MOL         0.1635
     15 H2          4.5598    8.1996   -1.7364 H         1 MOL         0.1635
     16 H3          8.4658   10.2351    1.2120 H         1 MOL         0.0693
     17 H4          6.5434    9.1815    0.0524 H         1 MOL         0.0652
     18 H5          4.7415   13.0188   -0.4969 H         1 MOL         0.0652
     19 H6          6.7072   14.0970    0.5557 H         1 MOL         0.0693
@<TRIPOS>BOND
     1    1    3 am 
     2    1    4 2  
     3    1    6 2  
     4    8    1 1  
     5    5    2 ar 
     6    2   10 ar 
     7    2   11 1  
     8    7    5 ar 
     9    7    8 ar 
    10    8    9 ar 
    11    9   10 ar 
    12   11   12 2  
    13   11   13 2  
    14    3   14 1  
    15    3   15 1  
    16    5   16 1  
    17    7   17 1  
    18    9   18 1  
    19   10   19 1  
@<TRIPOS>SUBSTRUCTURE
     1 MOL         1

