### 
### Created by X-TOOL on Mon Sep 10 21:13:02 2018
### 

@<TRIPOS>MOLECULE
3m8u_ligand
   70    69     1     0     0
SMALL
GAST_HUCK


@<TRIPOS>ATOM
      1 N1         12.2740   -9.7170  -11.9950 N.4       1 GDS         0.2328
      2 CA1        11.8080  -11.0720  -12.0750 C.3       1 GDS         0.0304
      3 C1         10.4270  -11.0210  -12.6100 C.2       1 GDS         0.0846
      4 OE1         9.8180   -9.9220  -12.6110 O.co2     1 GDS        -0.5643
      5 OE2         9.7770  -12.0700  -12.7990 O.co2     1 GDS        -0.5643
      6 CB1        11.8570  -11.6740  -10.7190 C.3       1 GDS         0.0193
      7 CG1        13.2900  -11.9390  -10.3610 C.3       1 GDS         0.0441
      8 CD1        13.8140  -13.2130  -11.1260 C.2       1 GDS         0.1785
      9 O1         13.3810  -14.3340  -10.8050 O.2       1 GDS        -0.3969
     10 N2         14.9630  -13.0880  -12.0020 N.am      1 GDS        -0.2648
     11 CA2        15.3680  -14.1790  -12.8510 C.3       1 GDS         0.1405
     12 C2         16.8030  -14.4220  -12.5910 C.2       1 GDS         0.2040
     13 O2         17.5800  -13.4550  -12.5170 O.2       1 GDS        -0.3944
     14 CB2        15.1410  -13.6810  -14.2950 C.3       1 GDS         0.0443
     15 SG2        15.4180  -14.9110  -15.5440 S.3       1 GDS        -0.0882
     16 N3         17.2970  -15.7150  -12.3880 N.am      1 GDS        -0.2722
     17 CA3        18.7350  -15.8460  -12.3330 C.3       1 GDS         0.0833
     18 C3         19.1490  -17.1620  -12.9580 C.2       1 GDS         0.0570
     19 OE3        18.3690  -17.7210  -13.7720 O.co2     1 GDS        -0.5669
     20 OE4        20.2900  -17.6410  -12.7060 O.co2     1 GDS        -0.5669
     21 N4         15.0630  -20.2220  -13.0990 N.am      1 GDS        -0.2722
     22 CA4        15.5180  -20.9390  -11.9410 C.3       1 GDS         0.0833
     23 C4         14.5110  -20.9510  -10.8080 C.2       1 GDS         0.0570
     24 OE5        14.9080  -21.1880   -9.6400 O.co2     1 GDS        -0.5669
     25 OE6        13.2800  -20.6770  -11.0050 O.co2     1 GDS        -0.5669
     26 C5         15.2830  -18.8130  -13.2520 C.2       1 GDS         0.2040
     27 O5         15.5540  -18.1270  -12.2360 O.2       1 GDS        -0.3944
     28 CA5        15.0120  -18.1210  -14.5640 C.3       1 GDS         0.1405
     29 N5         14.7900  -19.0740  -15.6150 N.am      1 GDS        -0.2648
     30 CB5        13.7620  -17.2140  -14.4800 C.3       1 GDS         0.0443
     31 SG5        13.7600  -16.0740  -15.8230 S.3       1 GDS        -0.0882
     32 CA6        15.7970  -23.0330  -16.8590 C.3       1 GDS         0.0304
     33 C6         15.9110  -22.8180  -15.3870 C.2       1 GDS         0.0846
     34 OE7        14.9040  -22.5130  -14.6970 O.co2     1 GDS        -0.5643
     35 OE8        17.0160  -22.9950  -14.8110 O.co2     1 GDS        -0.5643
     36 N6         14.4050  -23.3130  -17.2190 N.4       1 GDS         0.2328
     37 CB6        16.3660  -21.8680  -17.6820 C.3       1 GDS         0.0193
     38 CG6        15.5290  -20.5990  -17.5310 C.3       1 GDS         0.0441
     39 CD6        15.8710  -19.8150  -16.2680 C.2       1 GDS         0.1785
     40 O6         17.0500  -19.6850  -15.8750 O.2       1 GDS        -0.3969
     41 H1         13.2150   -9.7061  -11.6338 H         1 GDS         0.2010
     42 H2         11.6724   -9.1904  -11.3811 H         1 GDS         0.2010
     43 H3         12.2620   -9.3027  -12.9138 H         1 GDS         0.2010
     44 H4         12.4464  -11.6557  -12.7545 H         1 GDS         0.1026
     45 H5         11.2934  -12.6186  -10.7129 H         1 GDS         0.0363
     46 H6         11.4158  -10.9790   -9.9894 H         1 GDS         0.0363
     47 H7         13.3687  -12.1080   -9.2769 H         1 GDS         0.0505
     48 H8         13.9018  -11.0691  -10.6419 H         1 GDS         0.0505
     49 H9         15.4812  -12.2328  -12.0169 H         1 GDS         0.1883
     50 H10        14.7808  -15.0878  -12.6532 H         1 GDS         0.0808
     51 H11        15.8259  -12.8407  -14.4813 H         1 GDS         0.0432
     52 H12        14.1012  -13.3323  -14.3797 H         1 GDS         0.0432
     53 H13        16.6899  -16.5032  -12.2868 H         1 GDS         0.1873
     54 H14        19.0653  -15.8188  -11.2841 H         1 GDS         0.0689
     55 H15        19.1997  -15.0161  -12.8854 H         1 GDS         0.0689
     56 H16        14.5790  -20.7192  -13.8191 H         1 GDS         0.1873
     57 H17        16.4438  -20.4673  -11.5800 H         1 GDS         0.0689
     58 H18        15.7262  -21.9787  -12.2338 H         1 GDS         0.0689
     59 H19        15.8865  -17.5035  -14.8168 H         1 GDS         0.0808
     60 H20        13.8508  -19.2398  -15.9158 H         1 GDS         0.1883
     61 H21        13.7766  -16.6592  -13.5303 H         1 GDS         0.0432
     62 H22        12.8559  -17.8358  -14.5276 H         1 GDS         0.0432
     63 H23        16.3917  -23.9244  -17.1073 H         1 GDS         0.1026
     64 H24        14.3378  -23.4567  -18.2144 H         1 GDS         0.2010
     65 H25        13.8255  -22.5326  -16.9524 H         1 GDS         0.2010
     66 H26        14.0938  -24.1424  -16.7380 H         1 GDS         0.2010
     67 H27        16.3835  -22.1578  -18.7430 H         1 GDS         0.0363
     68 H28        17.3911  -21.6600  -17.3417 H         1 GDS         0.0363
     69 H29        14.4664  -20.8807  -17.4933 H         1 GDS         0.0505
     70 H30        15.7067  -19.9542  -18.4043 H         1 GDS         0.0505
@<TRIPOS>BOND
     1    2    1 1  
     2    2    3 1  
     3    6    2 1  
     4    3    4 ar 
     5    3    5 ar 
     6    7    6 1  
     7    8    7 1  
     8    8    9 2  
     9   10    8 am 
    10   11   10 1  
    11   11   12 1  
    12   14   11 1  
    13   12   13 2  
    14   12   16 am 
    15   15   14 1  
    16   31   15 1  
    17   16   17 1  
    18   17   18 1  
    19   18   19 ar 
    20   18   20 ar 
    21   21   22 1  
    22   26   21 am 
    23   22   23 1  
    24   23   24 ar 
    25   23   25 ar 
    26   26   27 2  
    27   28   26 1  
    28   29   28 1  
    29   28   30 1  
    30   39   29 am 
    31   30   31 1  
    32   32   33 1  
    33   32   36 1  
    34   37   32 1  
    35   33   34 ar 
    36   33   35 ar 
    37   38   37 1  
    38   38   39 1  
    39   39   40 2  
    40    1   41 1  
    41    1   42 1  
    42    1   43 1  
    43    2   44 1  
    44    6   45 1  
    45    6   46 1  
    46    7   47 1  
    47    7   48 1  
    48   10   49 1  
    49   11   50 1  
    50   14   51 1  
    51   14   52 1  
    52   16   53 1  
    53   17   54 1  
    54   17   55 1  
    55   21   56 1  
    56   22   57 1  
    57   22   58 1  
    58   28   59 1  
    59   29   60 1  
    60   30   61 1  
    61   30   62 1  
    62   32   63 1  
    63   36   64 1  
    64   36   65 1  
    65   36   66 1  
    66   37   67 1  
    67   37   68 1  
    68   38   69 1  
    69   38   70 1  
@<TRIPOS>SUBSTRUCTURE
     1 GDS         1

