### 
### Created by X-TOOL on Mon Sep 10 21:13:06 2018
### 

@<TRIPOS>MOLECULE
3m96_ligand
   36    38     1     0     0
SMALL
GAST_HUCK


@<TRIPOS>ATOM
      1 N1         -0.2710    4.6250   11.0300 N.pl3     1 E38        -0.2357
      2 C2         -1.1940    3.7840   11.5270 C.2       1 E38         0.1881
      3 N3         -1.8170    4.3030   12.6130 N.2       1 E38        -0.3068
      4 C4         -1.2880    5.5040   12.7800 C.ar      1 E38         0.0247
      5 C5         -0.3130    5.7000   11.8200 C.ar      1 E38         0.0817
      6 C6          0.4660    6.8740   11.7480 C.ar      1 E38        -0.0399
      7 C7          0.2040    7.8520   12.7210 C.ar      1 E38        -0.0674
      8 C8         -0.8230    7.5760   13.6760 C.ar      1 E38        -0.0041
      9 C9         -1.6080    6.4480   13.7310 C.ar      1 E38        -0.0555
     10 S10        -1.6170    2.1790   10.8660 S.3       1 E38        -0.0161
     11 C11        -3.0000    1.7600   12.0340 C.3       1 E38         0.0912
     12 C12        -4.1650    2.7500   12.1140 C.2       1 E38         0.1459
     13 O13        -4.6320    3.3460   11.0770 O.2       1 E38        -0.3773
     14 BR14       -1.2970    8.7700   15.0770 Br        1 E38        -0.0606
     15 C15        -4.7670    3.0550   13.5230 C.ar      1 E38         0.0355
     16 C16        -5.0000    1.9870   14.4210 C.ar      1 E38        -0.0159
     17 C17        -5.5450    2.1980   15.6290 C.ar      1 E38         0.1276
     18 C18        -5.9720    3.4660   16.0130 C.ar      1 E38         0.0719
     19 C19        -5.7520    4.5410   15.1320 C.ar      1 E38        -0.0401
     20 C20        -5.1900    4.3260   13.9260 C.ar      1 E38        -0.0425
     21 S21        -5.8940    0.7730   16.6870 S.o2      1 E38         0.0674
     22 O22        -7.3930    0.6870   16.6940 O.2       1 E38        -0.1504
     23 CL23       -6.7030    3.7980   17.4640 Cl        1 E38        -0.0643
     24 O24        -5.2650    1.0420   17.9690 O.2       1 E38        -0.1504
     25 N25        -5.2850   -0.5600   16.0000 N.am      1 E38        -0.2609
     26 H1          0.3386    4.4725   10.2138 H         1 E38         0.2337
     27 H2          1.2235    7.0131   10.9852 H         1 E38         0.0547
     28 H3          0.7602    8.7821   12.7469 H         1 E38         0.0550
     29 H4         -2.4038    6.3143   14.4548 H         1 E38         0.0567
     30 H5         -2.5684    1.6731   13.0420 H         1 E38         0.0634
     31 H6         -3.4114    0.7874   11.7261 H         1 E38         0.0634
     32 H7         -4.7330    0.9782   14.1275 H         1 E38         0.0691
     33 H8         -6.0355    5.5456   15.4243 H         1 E38         0.0636
     34 H9         -5.0620    5.1625   13.2485 H         1 E38         0.0671
     35 H10        -5.3869   -1.4464   16.4516 H         1 E38         0.1635
     36 H11        -4.8069   -0.4972   15.1240 H         1 E38         0.1635
@<TRIPOS>BOND
     1    1    2 1  
     2    1    5 1  
     3    2    3 2  
     4    2   10 1  
     5    3    4 1  
     6    4    5 ar 
     7    4    9 ar 
     8    5    6 ar 
     9    6    7 ar 
    10    7    8 ar 
    11    8    9 ar 
    12    8   14 1  
    13   10   11 1  
    14   11   12 1  
    15   12   13 2  
    16   12   15 1  
    17   15   16 ar 
    18   15   20 ar 
    19   16   17 ar 
    20   17   18 ar 
    21   17   21 1  
    22   18   19 ar 
    23   18   23 1  
    24   19   20 ar 
    25   21   22 2  
    26   21   24 2  
    27   21   25 am 
    28    1   26 1  
    29    6   27 1  
    30    7   28 1  
    31    9   29 1  
    32   11   30 1  
    33   11   31 1  
    34   16   32 1  
    35   19   33 1  
    36   20   34 1  
    37   25   35 1  
    38   25   36 1  
@<TRIPOS>SUBSTRUCTURE
     1 E38         1

