### 
### Created by X-TOOL on Mon Sep 10 21:13:03 2018
### 

@<TRIPOS>MOLECULE
3m9f_ligand
   94    96     1     0     0
SMALL
GAST_HUCK


@<TRIPOS>ATOM
      1 C         -13.7280   23.8690   -2.7340 C.ar      1 595         0.0353
      2 N         -12.9780   24.4600   -1.7810 N.pl3     1 595        -0.3369
      3 O         -17.9530   21.7060   -5.5680 O.2       1 595        -0.1518
      4 S         -16.3170   21.8720   -6.0010 S.o2      1 595         0.0650
      5 C1        -13.6140   24.1790   -4.0880 C.ar      1 595        -0.0429
      6 C2        -14.3950   23.5670   -5.0720 C.ar      1 595        -0.0471
      7 C3        -15.3670   22.6010   -4.7850 C.ar      1 595         0.0949
      8 C4        -15.4890   22.2980   -3.4310 C.ar      1 595        -0.0471
      9 C5        -14.7000   22.9030   -2.4450 C.ar      1 595        -0.0429
     10 N6        -15.6970   20.3240   -6.3300 N.am      1 595        -0.2302
     11 O7        -16.1120   22.7840   -7.4070 O.2       1 595        -0.1518
     12 C8        -16.2970   19.1910   -5.5510 C.3       1 595         0.0638
     13 C9        -16.9660   18.1000   -6.4050 C.3       1 595        -0.0308
     14 C10       -14.9460   20.1280   -7.6000 C.3       1 595         0.0301
     15 C11       -13.4440   20.3240   -7.4430 C.3       1 595        -0.0335
     16 C12       -13.0000   21.6920   -7.9520 C.3       1 595        -0.0453
     17 C13       -13.4550   21.9340   -9.3960 C.3       1 595        -0.0626
     18 C14       -11.4720   21.7510   -7.9050 C.3       1 595        -0.0626
     19 C15       -18.2260   18.6580   -7.0930 C.3       1 595        -0.0492
     20 C16       -18.8900   17.7100   -8.1040 C.3       1 595        -0.0301
     21 C17       -19.4910   16.4720   -7.4360 C.3       1 595         0.0393
     22 N18       -20.6910   16.8280   -6.6860 N.am      1 595        -0.2820
     23 C19       -21.2030   16.1570   -5.6410 C.2       1 595         0.2062
     24 C20       -22.5330   16.6210   -5.1110 C.3       1 595         0.1541
     25 N21       -23.5800   15.6720   -5.4830 N.am      1 595        -0.2374
     26 C22       -24.5860   15.7710   -6.3710 C.2       1 595         0.3218
     27 O23       -25.3890   14.7020   -6.4900 O.3       1 595        -0.2671
     28 C24       -26.5620   14.7750   -7.3370 C.3       1 595         0.0663
     29 O25       -24.8640   16.7280   -7.0890 O.2       1 595        -0.3774
     30 C26       -15.4730   18.6230   -4.3780 C.3       1 595         0.0640
     31 O27       -14.0880   18.3200   -4.6190 O.3       1 595        -0.3931
     32 O28       -20.6330   15.2210   -5.1020 O.2       1 595        -0.3942
     33 C29       -23.6100   17.7300   -2.9820 C.ar      1 595        -0.0244
     34 C30       -21.1340   17.8830   -3.3570 C.ar      1 595        -0.0244
     35 C31       -20.0610   17.2570   -2.7250 C.ar      1 595        -0.0579
     36 C32       -18.8950   17.9760   -2.4410 C.ar      1 595        -0.0682
     37 C33       -18.7420   19.3210   -2.7690 C.ar      1 595        -0.0685
     38 C34       -19.8060   19.9630   -3.4000 C.ar      1 595        -0.0682
     39 C35       -20.9640   19.2340   -3.6660 C.ar      1 595        -0.0579
     40 C36       -23.7220   17.5600   -1.5990 C.ar      1 595        -0.0579
     41 C37       -24.7800   18.1120   -0.8850 C.ar      1 595        -0.0682
     42 C38       -25.7570   18.8630   -1.5420 C.ar      1 595        -0.0685
     43 C39       -25.6550   19.0510   -2.9170 C.ar      1 595        -0.0682
     44 C40       -24.5870   18.4870   -3.6230 C.ar      1 595        -0.0579
     45 C41       -19.9070   15.4960   -8.5470 C.3       1 595        -0.0420
     46 C42       -22.4080   17.1100   -3.6670 C.3       1 595         0.0658
     47 H1        -12.2749   25.1657   -2.0429 H         1 595         0.1719
     48 H2        -13.1085   24.2055   -0.7915 H         1 595         0.1719
     49 H3        -12.8892   24.9261   -4.3905 H         1 595         0.0515
     50 H4        -14.2411   23.8536   -6.1060 H         1 595         0.0602
     51 H5        -16.2257   21.5629   -3.1278 H         1 595         0.0602
     52 H6        -14.8482   22.6106   -1.4118 H         1 595         0.0515
     53 H7        -17.1458   19.6728   -5.0437 H         1 595         0.0537
     54 H8        -17.2490   17.2559   -5.7589 H         1 595         0.0284
     55 H9        -16.2572   17.7535   -7.1716 H         1 595         0.0284
     56 H10       -15.3176   20.8507   -8.3414 H         1 595         0.0478
     57 H11       -15.1296   19.1052   -7.9609 H         1 595         0.0478
     58 H12       -12.9204   19.5434   -8.0144 H         1 595         0.0283
     59 H13       -13.1820   20.2371   -6.3782 H         1 595         0.0283
     60 H14       -13.4234   22.4739   -7.3044 H         1 595         0.0296
     61 H15       -13.1167   22.9275   -9.7254 H         1 595         0.0232
     62 H16       -14.5527   21.8847   -9.4477 H         1 595         0.0232
     63 H17       -13.0221   21.1635  -10.0509 H         1 595         0.0232
     64 H18       -11.1300   21.5789   -6.8738 H         1 595         0.0232
     65 H19       -11.1327   22.7411   -8.2434 H         1 595         0.0232
     66 H20       -11.0546   20.9754   -8.5639 H         1 595         0.0232
     67 H21       -17.9448   19.5795   -7.6237 H         1 595         0.0267
     68 H22       -18.9640   18.8950   -6.3125 H         1 595         0.0267
     69 H23       -18.1333   17.3854   -8.8334 H         1 595         0.0287
     70 H24       -19.6915   18.2543   -8.6248 H         1 595         0.0287
     71 H25       -18.7516   16.0067   -6.7676 H         1 595         0.0553
     72 H26       -21.1791   17.6505   -6.9780 H         1 595         0.1854
     73 H27       -22.7831   17.5304   -5.6770 H         1 595         0.0849
     74 H28       -23.5424   14.8004   -4.9943 H         1 595         0.1902
     75 H29       -27.0936   13.8124   -7.3108 H         1 595         0.0575
     76 H30       -26.2553   14.9964   -8.3699 H         1 595         0.0575
     77 H31       -27.2278   15.5715   -6.9734 H         1 595         0.0575
     78 H32       -15.9613   17.6922   -4.0538 H         1 595         0.0576
     79 H33       -15.5109   19.3602   -3.5625 H         1 595         0.0576
     80 H34       -14.0226   17.6698   -5.3085 H         1 595         0.2095
     81 H35       -20.1302   16.2100   -2.4527 H         1 595         0.0561
     82 H36       -18.0772   17.4655   -1.9454 H         1 595         0.0600
     83 H37       -17.8246   19.8515   -2.5408 H         1 595         0.0561
     84 H38       -19.7345   21.0082   -3.6783 H         1 595         0.0600
     85 H39       -21.7879   19.7507   -4.1449 H         1 595         0.0561
     86 H40       -22.9684   16.9859   -1.0721 H         1 595         0.0561
     87 H41       -24.8466   17.9587    0.1860 H         1 595         0.0600
     88 H42       -26.5836   19.2936   -0.9884 H         1 595         0.0561
     89 H43       -26.4032   19.6346   -3.4412 H         1 595         0.0600
     90 H44       -24.5186   18.6429   -4.6935 H         1 595         0.0561
     91 H45       -20.3442   14.5927   -8.0967 H         1 595         0.0252
     92 H46       -19.0238   15.2187   -9.1412 H         1 595         0.0252
     93 H47       -20.6509   15.9776   -9.1986 H         1 595         0.0252
     94 H48       -22.2771   16.1664   -3.1171 H         1 595         0.0667
@<TRIPOS>BOND
     1    1    2 1  
     2    5    1 ar 
     3    9    1 ar 
     4    4    3 2  
     5    4    7 1  
     6   10    4 am 
     7    4   11 2  
     8    6    5 ar 
     9    7    6 ar 
    10    7    8 ar 
    11    8    9 ar 
    12   12   10 1  
    13   10   14 1  
    14   13   12 1  
    15   12   30 1  
    16   19   13 1  
    17   14   15 1  
    18   15   16 1  
    19   16   17 1  
    20   16   18 1  
    21   20   19 1  
    22   21   20 1  
    23   22   21 1  
    24   21   45 1  
    25   23   22 am 
    26   24   23 1  
    27   23   32 2  
    28   24   25 1  
    29   46   24 1  
    30   25   26 am 
    31   26   27 1  
    32   26   29 2  
    33   27   28 1  
    34   30   31 1  
    35   33   40 ar 
    36   33   44 ar 
    37   46   33 1  
    38   34   35 ar 
    39   34   39 ar 
    40   34   46 1  
    41   35   36 ar 
    42   36   37 ar 
    43   37   38 ar 
    44   38   39 ar 
    45   40   41 ar 
    46   41   42 ar 
    47   42   43 ar 
    48   43   44 ar 
    49    2   47 1  
    50    2   48 1  
    51    5   49 1  
    52    6   50 1  
    53    8   51 1  
    54    9   52 1  
    55   12   53 1  
    56   13   54 1  
    57   13   55 1  
    58   14   56 1  
    59   14   57 1  
    60   15   58 1  
    61   15   59 1  
    62   16   60 1  
    63   17   61 1  
    64   17   62 1  
    65   17   63 1  
    66   18   64 1  
    67   18   65 1  
    68   18   66 1  
    69   19   67 1  
    70   19   68 1  
    71   20   69 1  
    72   20   70 1  
    73   21   71 1  
    74   22   72 1  
    75   24   73 1  
    76   25   74 1  
    77   28   75 1  
    78   28   76 1  
    79   28   77 1  
    80   30   78 1  
    81   30   79 1  
    82   31   80 1  
    83   35   81 1  
    84   36   82 1  
    85   37   83 1  
    86   38   84 1  
    87   39   85 1  
    88   40   86 1  
    89   41   87 1  
    90   42   88 1  
    91   43   89 1  
    92   44   90 1  
    93   45   91 1  
    94   45   92 1  
    95   45   93 1  
    96   46   94 1  
@<TRIPOS>SUBSTRUCTURE
     1 595         1

