### 
### Created by X-TOOL on Mon Sep 10 21:13:02 2018
### 

@<TRIPOS>MOLECULE
3ma3_ligand
   28    31     1     0     0
SMALL
GAST_HUCK


@<TRIPOS>ATOM
      1 CAA       -21.8310   39.4900    0.7930 C.ar      1 01I        -0.0626
      2 CAB       -22.0270   39.4350   -0.5820 C.ar      1 01I        -0.0050
      3 CAC       -21.3520   38.5320   -1.3440 C.ar      1 01I         0.1243
      4 CAD       -20.4410   37.6280   -0.8330 C.ar      1 01I        -0.0273
      5 CAE       -20.2320   37.6640    0.5230 C.ar      1 01I        -0.0328
      6 CAF       -20.9150   38.5890    1.3290 C.ar      1 01I        -0.0378
      7 CAG       -19.3340   36.8050    1.1370 C.ar      1 01I        -0.0032
      8 CAH       -19.1090   36.8610    2.4800 C.ar      1 01I         0.1249
      9 CAI       -19.7900   37.7350    3.2900 C.ar      1 01I        -0.0299
     10 CAJ       -20.6840   38.6200    2.6980 C.ar      1 01I        -0.0656
     11 CAK       -22.8630   40.1630   -1.4960 C.2       1 01I        -0.0292
     12 CAL       -22.6010   39.6310   -2.7600 C.2       1 01I         0.1527
     13 OAM       -21.7460   38.7000   -2.6930 O.3       1 01I        -0.2467
     14 CAN       -18.4880   35.7740    0.6190 C.2       1 01I        -0.0324
     15 CAO       -17.8210   35.2640    1.7430 C.2       1 01I         0.1518
     16 OAP       -18.1450   35.8740    2.8140 O.3       1 01I        -0.2474
     17 CAQ       -16.8280   34.1810    1.9150 C.2       1 01I         0.0965
     18 CAR       -23.1040   39.8960   -4.1450 C.2       1 01I         0.0993
     19 OAS       -22.5000   39.3630   -5.1130 O.co2     1 01I        -0.5575
     20 OAT       -16.2390   34.1050    3.0240 O.co2     1 01I        -0.5590
     21 OAU       -16.6720   33.3860    0.9520 O.co2     1 01I        -0.5590
     22 OAV       -24.0980   40.6420   -4.2990 O.co2     1 01I        -0.5575
     23 H         -22.3673   40.2025    1.4198 H         1 01I         0.0550
     24 H         -19.9145   36.9214   -1.4746 H         1 01I         0.0522
     25 H         -19.6341   37.7353    4.3688 H         1 01I         0.0574
     26 H         -21.2102   39.3473    3.3162 H         1 01I         0.0550
     27 H         -23.5589   40.9658   -1.2526 H         1 01I         0.0414
     28 H         -18.3847   35.4556   -0.4183 H         1 01I         0.0420
@<TRIPOS>BOND
     1    1    2 ar 
     2    1    6 ar 
     3    2    3 ar 
     4    2   11 1  
     5    3    4 ar 
     6    3   13 1  
     7    4    5 ar 
     8    5    6 ar 
     9    5    7 ar 
    10    6   10 ar 
    11    7    8 ar 
    12    7   14 1  
    13    8    9 ar 
    14    8   16 1  
    15    9   10 ar 
    16   11   12 2  
    17   12   13 1  
    18   12   18 1  
    19   14   15 2  
    20   15   16 1  
    21   15   17 1  
    22   17   20 ar 
    23   17   21 ar 
    24   18   19 ar 
    25   18   22 ar 
    26    1   23 1  
    27    4   24 1  
    28    9   25 1  
    29   10   26 1  
    30   11   27 1  
    31   14   28 1  
@<TRIPOS>SUBSTRUCTURE
     1 01I         1

