### 
### Created by X-TOOL on Mon Sep 10 21:12:47 2018
### 

@<TRIPOS>MOLECULE
3mag_ligand
   19    20     1     0     0
SMALL
GAST_HUCK


@<TRIPOS>ATOM
      1 N9         16.5870   14.2580   22.1700 N.pl3     1 3MA        -0.1879
      2 C4         17.1230   13.1000   21.6220 C.ar      1 3MA         0.2269
      3 N3         16.8770   11.8110   22.0090 N.ar      1 3MA        -0.2858
      4 CN3        15.9830   11.3630   23.0630 C.3       1 3MA         0.0161
      5 C2         17.5900   10.9680   21.2410 C.ar      1 3MA         0.1033
      6 N1         18.4220   11.2170   20.2240 N.ar      1 3MA        -0.1964
      7 C6         18.6270   12.4840   19.8580 C.ar      1 3MA         0.2261
      8 N6         19.4260   12.7090   18.8290 N.pl3     1 3MA        -0.2686
      9 C5         17.9490   13.5030   20.5930 C.ar      1 3MA         0.2145
     10 N7         17.9290   14.9000   20.4880 N.2       1 3MA        -0.1850
     11 C8         17.1130   15.2860   21.4340 C.2       1 3MA         0.1805
     12 H1         15.9325   14.3287   22.9622 H         1 3MA         0.2586
     13 H2         16.0095   10.2650   23.1242 H         1 3MA         0.0433
     14 H3         14.9578   11.6931   22.8392 H         1 3MA         0.0433
     15 H4         16.3048   11.7916   24.0236 H         1 3MA         0.0433
     16 H5         17.4713    9.9186   21.4855 H         1 3MA         0.1339
     17 H6         19.6069   13.6744   18.5189 H         1 3MA         0.2258
     18 H7         19.8676   11.9189   18.3374 H         1 3MA         0.2258
     19 H8         16.8731   16.3318   21.6200 H         1 3MA         0.1824
@<TRIPOS>BOND
     1    1   11 1  
     2    1    2 1  
     3    2    9 ar 
     4    2    3 ar 
     5    3    5 ar 
     6    3    4 1  
     7    5    6 ar 
     8    6    7 ar 
     9    7    9 ar 
    10    7    8 1  
    11    9   10 1  
    12   10   11 2  
    13    1   12 1  
    14    4   13 1  
    15    4   14 1  
    16    4   15 1  
    17    5   16 1  
    18    8   17 1  
    19    8   18 1  
    20   11   19 1  
@<TRIPOS>SUBSTRUCTURE
     1 3MA         1

