### 
### Created by X-TOOL on Mon Sep 10 21:13:07 2018
### 

@<TRIPOS>MOLECULE
3mam_ligand
   19    18     1     0     0
SMALL
GAST_HUCK


@<TRIPOS>ATOM
      1 N          19.9190  -18.9960   -9.6490 N.4       1 BET         0.2484
      2 CA         20.0630  -19.4290  -11.0560 C.3       1 BET         0.0222
      3 C          18.8400  -20.1210  -11.6240 C.2       1 BET         0.0813
      4 O1         18.7750  -21.3860  -11.6580 O.co2     1 BET        -0.5645
      5 O2         17.9370  -19.3870  -12.0670 O.co2     1 BET        -0.5645
      6 C1         19.7640  -20.1600   -8.7750 C.3       1 BET        -0.0405
      7 C2         18.7590  -18.1220   -9.4540 C.3       1 BET        -0.0405
      8 C3         21.1060  -18.2270   -9.2690 C.3       1 BET        -0.0405
      9 H1         20.9122  -20.1255  -11.1169 H         1 BET         0.0989
     10 H2         20.2725  -18.5407  -11.6701 H         1 BET         0.0989
     11 H3         19.6580  -19.8244   -7.7328 H         1 BET         0.0778
     12 H4         20.6500  -20.8059   -8.8639 H         1 BET         0.0778
     13 H5         18.8675  -20.7243   -9.0714 H         1 BET         0.0778
     14 H6         18.8529  -17.2380  -10.1019 H         1 BET         0.0778
     15 H7         18.7132  -17.8026   -8.4024 H         1 BET         0.0778
     16 H8         17.8402  -18.6692   -9.7114 H         1 BET         0.0778
     17 H9         22.0036  -18.8490   -9.4010 H         1 BET         0.0778
     18 H10        21.0233  -17.9216   -8.2155 H         1 BET         0.0778
     19 H11        21.1828  -17.3329   -9.9051 H         1 BET         0.0778
@<TRIPOS>BOND
     1    1    2 1  
     2    1    6 1  
     3    1    7 1  
     4    1    8 1  
     5    2    3 1  
     6    3    4 ar 
     7    3    5 ar 
     8    2    9 1  
     9    2   10 1  
    10    6   11 1  
    11    6   12 1  
    12    6   13 1  
    13    7   14 1  
    14    7   15 1  
    15    7   16 1  
    16    8   17 1  
    17    8   18 1  
    18    8   19 1  
@<TRIPOS>SUBSTRUCTURE
     1 BET         1

