### 
### Created by X-TOOL on Mon Sep 10 21:13:02 2018
### 

@<TRIPOS>MOLECULE
3max_ligand
   38    40     1     0     0
SMALL
GAST_HUCK


@<TRIPOS>ATOM
      1 N1         65.8820   28.8880   -1.6780 N.pl3     1 LLX        -0.3406
      2 C2         65.4500   28.7330   -0.3430 C.ar      1 LLX         0.0612
      3 C3         64.2210   28.1250   -0.0690 C.ar      1 LLX        -0.0544
      4 C4         63.7890   27.9790    1.2410 C.ar      1 LLX        -0.0796
      5 C5         64.5660   28.4370    2.3170 C.ar      1 LLX        -0.0441
      6 C6         65.7920   29.0770    2.0410 C.ar      1 LLX        -0.0437
      7 C7         66.2210   29.2180    0.7260 C.ar      1 LLX         0.0871
      8 N8         67.4780   29.7880    0.4590 N.am      1 LLX        -0.2372
      9 C9         67.6220   30.8320   -0.3730 C.2       1 LLX         0.2292
     10 O10        66.6320   31.3230   -0.8890 O.2       1 LLX        -0.3747
     11 C11        69.0040   31.3170   -0.6050 C.ar      1 LLX         0.0553
     12 C12        70.0600   30.4160   -0.4870 C.ar      1 LLX        -0.0416
     13 C13        71.3670   30.8260   -0.6850 C.ar      1 LLX        -0.0562
     14 C14        71.6380   32.1460   -1.0050 C.ar      1 LLX        -0.0576
     15 C15        70.5940   33.0570   -1.1190 C.ar      1 LLX        -0.0562
     16 C16        69.2780   32.6580   -0.9160 C.ar      1 LLX        -0.0416
     17 C17        64.0950   28.3080    3.7300 C.ar      1 LLX        -0.0297
     18 C18        65.0120   28.1180    4.7740 C.ar      1 LLX        -0.0575
     19 C19        64.5540   28.0390    6.0880 C.ar      1 LLX        -0.0632
     20 C20        63.1940   28.1440    6.3880 C.ar      1 LLX        -0.0635
     21 C21        62.2730   28.3410    5.3640 C.ar      1 LLX        -0.0632
     22 C22        62.7200   28.4250    4.0480 C.ar      1 LLX        -0.0575
     23 H1         65.3052   28.5268   -2.4512 H         1 LLX         0.1691
     24 H2         66.7740   29.3623   -1.8789 H         1 LLX         0.1691
     25 H3         63.6030   27.7661   -0.8841 H         1 LLX         0.0476
     26 H4         62.8351   27.5031    1.4374 H         1 LLX         0.0473
     27 H5         66.3995   29.4588    2.8536 H         1 LLX         0.0464
     28 H6         68.2886   29.4047    0.9017 H         1 LLX         0.2214
     29 H7         69.8555   29.3812   -0.2371 H         1 LLX         0.0669
     30 H8         72.1787   30.1139   -0.5896 H         1 LLX         0.0629
     31 H9         72.6606   32.4677   -1.1660 H         1 LLX         0.0652
     32 H10        70.8086   34.0897   -1.3689 H         1 LLX         0.0629
     33 H11        68.4703   33.3764   -0.9972 H         1 LLX         0.0669
     34 H12        66.0713   28.0330    4.5601 H         1 LLX         0.0606
     35 H13        65.2665   27.8934    6.8919 H         1 LLX         0.0613
     36 H14        62.8570   28.0722    7.4158 H         1 LLX         0.0602
     37 H15        61.2162   28.4284    5.5888 H         1 LLX         0.0613
     38 H16        62.0017   28.5830    3.2516 H         1 LLX         0.0606
@<TRIPOS>BOND
     1    1    2 1  
     2    2    3 ar 
     3    2    7 ar 
     4    3    4 ar 
     5    4    5 ar 
     6    5    6 ar 
     7    5   17 1  
     8    6    7 ar 
     9    7    8 1  
    10    8    9 am 
    11    9   10 2  
    12    9   11 1  
    13   11   12 ar 
    14   11   16 ar 
    15   12   13 ar 
    16   13   14 ar 
    17   14   15 ar 
    18   15   16 ar 
    19   17   18 ar 
    20   17   22 ar 
    21   18   19 ar 
    22   19   20 ar 
    23   20   21 ar 
    24   21   22 ar 
    25    1   23 1  
    26    1   24 1  
    27    3   25 1  
    28    4   26 1  
    29    6   27 1  
    30    8   28 1  
    31   12   29 1  
    32   13   30 1  
    33   14   31 1  
    34   15   32 1  
    35   16   33 1  
    36   18   34 1  
    37   19   35 1  
    38   20   36 1  
    39   21   37 1  
    40   22   38 1  
@<TRIPOS>SUBSTRUCTURE
     1 LLX         1

