### 
### Created by X-TOOL on Mon Sep 10 21:13:03 2018
### 

@<TRIPOS>MOLECULE
3mb6_ligand
   28    31     1     0     0
SMALL
GAST_HUCK


@<TRIPOS>ATOM
      1 CAA        23.2490    9.9230   12.2360 C.ar      1 01I        -0.0626
      2 CAB        23.1760   10.5980   13.4430 C.ar      1 01I        -0.0050
      3 CAC        22.9990    9.9070   14.7290 C.ar      1 01I         0.1243
      4 CAD        22.8890    8.5190   14.8290 C.ar      1 01I        -0.0273
      5 CAE        22.9570    7.8130   13.6190 C.ar      1 01I        -0.0328
      6 CAF        23.1370    8.5320   12.2970 C.ar      1 01I        -0.0378
      7 CAG        22.8660    6.4240   13.5400 C.ar      1 01I        -0.0032
      8 CAH        22.9410    5.7620   12.2240 C.ar      1 01I         0.1249
      9 CAI        23.1100    6.4440   11.0310 C.ar      1 01I        -0.0299
     10 CAJ        23.2060    7.8330   11.0860 C.ar      1 01I        -0.0656
     11 CAK        23.2530   12.0070   13.7010 C.2       1 01I        -0.0292
     12 CAL        23.1240   12.1330   15.0910 C.2       1 01I         0.1527
     13 OAM        22.9710   10.9160   15.7420 O.3       1 01I        -0.2467
     14 CAN        22.6940    5.3870   14.5280 C.2       1 01I        -0.0324
     15 CAO        22.6730    4.1850   13.7910 C.2       1 01I         0.1518
     16 OAP        22.8250    4.3600   12.4290 O.3       1 01I        -0.2474
     17 CAQ        22.5140    2.8070   14.3410 C.2       1 01I         0.0965
     18 CAR        23.1510   13.4520   15.8020 C.2       1 01I         0.0993
     19 OAS        23.0260   13.4630   17.0490 O.co2     1 01I        -0.5575
     20 OAT        22.3820    2.6270   15.5730 O.co2     1 01I        -0.5590
     21 OAU        22.5120    1.8750   13.5120 O.co2     1 01I        -0.5590
     22 OAV        23.2930   14.5020   15.1300 O.co2     1 01I        -0.5575
     23 H1         23.3855   10.4452   11.2959 H         1 01I         0.0550
     24 H2         22.7592    8.0184   15.7817 H         1 01I         0.0522
     25 H3         23.1657    5.9154   10.0863 H         1 01I         0.0574
     26 H4         23.3379    8.3884   10.1645 H         1 01I         0.0550
     27 H5         23.3836   12.8067   12.9734 H         1 01I         0.0414
     28 H6         22.6008    5.5063   15.6064 H         1 01I         0.0420
@<TRIPOS>BOND
     1    1    2 ar 
     2    1    6 ar 
     3    2    3 ar 
     4    2   11 1  
     5    3    4 ar 
     6    3   13 1  
     7    4    5 ar 
     8    5    6 ar 
     9    5    7 ar 
    10    6   10 ar 
    11    7    8 ar 
    12    7   14 1  
    13    8    9 ar 
    14    8   16 1  
    15    9   10 ar 
    16   11   12 2  
    17   12   13 1  
    18   12   18 1  
    19   14   15 2  
    20   15   16 1  
    21   15   17 1  
    22   17   20 ar 
    23   17   21 ar 
    24   18   19 ar 
    25   18   22 ar 
    26    1   23 1  
    27    4   24 1  
    28    9   25 1  
    29   10   26 1  
    30   11   27 1  
    31   14   28 1  
@<TRIPOS>SUBSTRUCTURE
     1 01I         1

