### 
### Created by X-TOOL on Mon Sep 10 21:13:03 2018
### 

@<TRIPOS>MOLECULE
3mb7_ligand
   28    31     1     0     0
SMALL
GAST_HUCK


@<TRIPOS>ATOM
      1 CAA        22.8660    9.3970   11.2570 C.ar      1 14I        -0.0660
      2 CAB        22.7010   10.5610   12.0090 C.ar      1 14I        -0.0301
      3 CAC        22.5960   10.4360   13.3870 C.ar      1 14I         0.1251
      4 CAD        22.6480    9.1440   14.0830 C.ar      1 14I        -0.0021
      5 CAE        22.8020    7.9790   13.3410 C.ar      1 14I        -0.0286
      6 CAF        22.9180    8.1300   11.8550 C.ar      1 14I        -0.0377
      7 CAG        22.8710    6.6850   13.8470 C.ar      1 14I        -0.0021
      8 CAH        23.0360    5.5680   12.9070 C.ar      1 14I         0.1251
      9 CAI        23.1460    5.7300   11.5360 C.ar      1 14I        -0.0301
     10 CAJ        23.0810    7.0120   11.0240 C.ar      1 14I        -0.0660
     11 CAK        22.5140    9.4020   15.4950 C.2       1 14I        -0.0318
     12 CAL        22.3890   10.8000   15.5710 C.2       1 14I         0.1519
     13 OAM        22.4400   11.4470   14.3590 O.3       1 14I        -0.2472
     14 CAN        22.8010    6.1320   15.1770 C.2       1 14I        -0.0318
     15 CAO        22.9250    4.7520   14.9700 C.2       1 14I         0.1519
     16 OAP        23.0840    4.3830   13.6570 O.3       1 14I        -0.2472
     17 CAQ        22.9000    3.7000   16.0080 C.2       1 14I         0.0970
     18 CAR        22.2280   11.6010   16.8080 C.2       1 14I         0.0970
     19 OAS        22.1760   11.0350   17.9120 O.co2     1 14I        -0.5587
     20 OAT        23.0130    2.5320   15.5740 O.co2     1 14I        -0.5587
     21 OAU        22.7810    4.0070   17.2170 O.co2     1 14I        -0.5587
     22 OAV        22.1360   12.8340   16.6680 O.co2     1 14I        -0.5587
     23 H1         22.9566    9.4747   10.1796 H         1 14I         0.0551
     24 H2         22.6562   11.5330   11.5313 H         1 14I         0.0568
     25 H3         23.2793    4.8752   10.8828 H         1 14I         0.0568
     26 H4         23.1580    7.1572    9.9525 H         1 14I         0.0551
     27 H5         22.5104    8.6819   16.3120 H         1 14I         0.0418
     28 H6         22.6802    6.6624   16.1204 H         1 14I         0.0418
@<TRIPOS>BOND
     1    1    2 ar 
     2    1    6 ar 
     3    2    3 ar 
     4    3    4 ar 
     5    3   13 1  
     6    4    5 ar 
     7    4   11 1  
     8    5    6 ar 
     9    5    7 ar 
    10    6   10 ar 
    11    7    8 ar 
    12    7   14 1  
    13    8    9 ar 
    14    8   16 1  
    15    9   10 ar 
    16   11   12 2  
    17   12   13 1  
    18   12   18 1  
    19   14   15 2  
    20   15   16 1  
    21   15   17 1  
    22   17   20 ar 
    23   17   21 ar 
    24   18   19 ar 
    25   18   22 ar 
    26    1   23 1  
    27    2   24 1  
    28    9   25 1  
    29   10   26 1  
    30   11   27 1  
    31   14   28 1  
@<TRIPOS>SUBSTRUCTURE
     1 14I         1

