### 
### Created by X-TOOL on Mon Sep 10 21:13:02 2018
### 

@<TRIPOS>MOLECULE
3mbl_ligand
   42    43     1     0     0
SMALL
GAST_HUCK


@<TRIPOS>ATOM
      1 C1         35.9590   28.1310   43.4100 C.ar      1 LSG        -0.0272
      2 C2         36.8190   27.3050   42.6850 C.ar      1 LSG        -0.0048
      3 C3         36.3010   26.4990   41.6310 C.ar      1 LSG        -0.0651
      4 C4         34.9600   26.5160   41.2970 C.ar      1 LSG        -0.0374
      5 C5         34.0630   27.3150   41.9990 C.ar      1 LSG         0.1008
      6 C6         34.6000   28.1440   43.0990 C.ar      1 LSG         0.1568
      7 F7         33.7140   28.8930   43.7720 F         1 LSG        -0.1903
      8 I8         38.8950   27.2220   43.1730 I         1 LSG        -0.0606
      9 N9         32.7170   27.3530   41.7890 N.pl3     1 LSG        -0.2432
     10 C10        32.0440   26.6710   40.8290 C.2       1 LSG         0.1817
     11 N11        32.1490   25.3610   40.5930 N.pl3     1 LSG        -0.2388
     12 C12        31.3390   25.1350   39.5260 C.2       1 LSG         0.0977
     13 C13        30.6900   26.3240   39.0710 C.2       1 LSG        -0.0567
     14 C14        31.0990   27.3460   39.8960 C.2       1 LSG         0.0634
     15 C15        30.8190   28.7990   40.0490 C.2       1 LSG         0.1939
     16 O16        31.2800   29.3920   41.0480 O.2       1 LSG        -0.4087
     17 N17        30.0550   29.4550   39.1800 N.am      1 LSG        -0.1683
     18 O18        29.6830   30.8670   39.4560 O.3       1 LSG        -0.2557
     19 C19        28.5140   31.5320   38.9290 C.3       1 LSG         0.1020
     20 C20        28.1550   32.7440   39.7870 C.3       1 LSG         0.0704
     21 O21        27.1380   33.5050   39.1040 O.3       1 LSG        -0.3926
     22 C22        33.0240   24.4060   41.3140 C.3       1 LSG         0.0446
     23 C23        31.1730   23.8080   38.8880 C.2       1 LSG         0.1290
     24 O24        31.8090   22.7950   39.2000 O.2       1 LSG        -0.3955
     25 C25        30.1550   23.8370   37.7960 C.3       1 LSG         0.0071
     26 H          36.3460   28.7599   44.2117 H         1 LSG         0.0598
     27 H          36.9792   25.8526   41.0739 H         1 LSG         0.0580
     28 H          34.6013   25.8968   40.4748 H         1 LSG         0.0527
     29 H          32.1667   27.9473   42.4090 H         1 LSG         0.2164
     30 H          30.0016   26.4057   38.2299 H         1 LSG         0.0382
     31 H          29.7274   28.9930   38.3317 H         1 LSG         0.2197
     32 H          27.6769   30.8339   38.9346 H         1 LSG         0.0613
     33 H          28.7251   31.8672   37.9135 H         1 LSG         0.0613
     34 H          29.0386   33.3624   39.9447 H         1 LSG         0.0581
     35 H          27.7839   32.4152   40.7577 H         1 LSG         0.0581
     36 H          26.3622   32.9549   38.9730 H         1 LSG         0.2095
     37 H          34.0640   24.7128   41.2027 H         1 LSG         0.0575
     38 H          32.7574   24.3977   42.3709 H         1 LSG         0.0575
     39 H          32.8917   23.4078   40.8967 H         1 LSG         0.0575
     40 H          30.6279   23.5636   36.8528 H         1 LSG         0.0441
     41 H          29.3593   23.1278   38.0239 H         1 LSG         0.0441
     42 H          29.7373   24.8407   37.7170 H         1 LSG         0.0441
@<TRIPOS>BOND
     1    1    2 ar 
     2    1    6 ar 
     3    2    3 ar 
     4    2    8 1  
     5    3    4 ar 
     6    4    5 ar 
     7    5    6 ar 
     8    5    9 1  
     9    6    7 1  
    10    9   10 1  
    11   10   11 1  
    12   10   14 2  
    13   11   12 1  
    14   11   22 1  
    15   12   13 2  
    16   12   23 1  
    17   13   14 1  
    18   14   15 1  
    19   15   16 2  
    20   15   17 am 
    21   17   18 1  
    22   18   19 1  
    23   19   20 1  
    24   20   21 1  
    25   23   24 2  
    26   23   25 1  
    27    1   26 1  
    28    3   27 1  
    29    4   28 1  
    30    9   29 1  
    31   13   30 1  
    32   17   31 1  
    33   19   32 1  
    34   19   33 1  
    35   20   34 1  
    36   20   35 1  
    37   21   36 1  
    38   22   37 1  
    39   22   38 1  
    40   22   39 1  
    41   25   40 1  
    42   25   41 1  
    43   25   42 1  
@<TRIPOS>SUBSTRUCTURE
     1 LSG         1

