### 
### Created by X-TOOL on Fri Nov 18 12:07:41 2016
### 

@<TRIPOS>MOLECULE
3mbp_ligand
   66    68     1     0     0
SMALL
GAST_HUCK


@<TRIPOS>ATOM
      1 C1         11.3340   20.6710   42.3890 C.3       1 MOL         0.1884
      2 C2         10.1340   21.4530   42.7730 C.3       1 MOL         0.1341
      3 C3          9.5240   22.1090   41.5220 C.3       1 MOL         0.1141
      4 C4         10.6180   22.9450   40.8570 C.3       1 MOL         0.1119
      5 C5         11.8180   22.0600   40.4690 C.3       1 MOL         0.1130
      6 C6         12.9860   22.9010   40.0170 C.3       1 MOL         0.0730
      7 O2          9.1800   20.6120   43.4430 O.3       1 MOL        -0.3841
      8 O3          8.5130   23.0530   41.8910 O.3       1 MOL        -0.3864
      9 O4         10.1710   23.5250   39.7040 O.3       1 MOL        -0.3865
     10 O5         12.2580   21.3890   41.6830 O.3       1 MOL        -0.3405
     11 O6         14.0070   22.0720   39.4630 O.3       1 MOL        -0.3924
     12 C1         11.3220   15.5570   41.1180 C.3       1 MOL         0.1884
     13 C2         10.7080   16.0020   42.4230 C.3       1 MOL         0.1341
     14 C3         10.2170   17.4220   42.1960 C.3       1 MOL         0.1144
     15 C4         11.4190   18.2600   41.8290 C.3       1 MOL         0.1184
     16 C5         12.1540   17.7620   40.5770 C.3       1 MOL         0.1134
     17 C6         13.4620   18.4370   40.3680 C.3       1 MOL         0.0730
     18 O2          9.6370   15.1300   42.7700 O.3       1 MOL        -0.3841
     19 O3          9.5840   17.8860   43.4040 O.3       1 MOL        -0.3864
     20 O4         10.8530   19.5820   41.5140 O.3       1 MOL        -0.3401
     21 O5         12.4400   16.3760   40.7570 O.3       1 MOL        -0.3405
     22 O6         13.8800   18.2420   38.9670 O.3       1 MOL        -0.3924
     23 C1          8.5810   13.1670   37.2960 C.3       1 MOL         0.1854
     24 C2          8.7490   12.5880   38.6650 C.3       1 MOL         0.1339
     25 C3          8.9910   13.6480   39.6900 C.3       1 MOL         0.1144
     26 C4         10.2220   14.4550   39.2460 C.3       1 MOL         0.1184
     27 C5          9.9070   15.1180   37.8760 C.3       1 MOL         0.1134
     28 C6         11.1130   15.8200   37.2620 C.3       1 MOL         0.0730
     29 O1          7.3930   13.9380   37.2320 O.3       1 MOL        -0.3649
     30 O2          7.5910   11.8180   38.9460 O.3       1 MOL        -0.3841
     31 O3          9.2640   13.0020   40.9520 O.3       1 MOL        -0.3864
     32 O4         10.2850   15.5200   40.1660 O.3       1 MOL        -0.3401
     33 O5          9.6030   14.0840   36.9670 O.3       1 MOL        -0.3407
     34 O6         10.6650   16.6350   36.1460 O.3       1 MOL        -0.3924
     35 H1         11.8088   20.2622   43.2931 H         1 MOL         0.0938
     36 H2         10.4405   22.2483   43.4683 H         1 MOL         0.0671
     37 H3          9.1234   21.3445   40.8400 H         1 MOL         0.0648
     38 H4         10.9440   23.7257   41.5600 H         1 MOL         0.0647
     39 H5         11.5308   21.3395   39.6890 H         1 MOL         0.0647
     40 H6         13.3925   23.4508   40.8787 H         1 MOL         0.0584
     41 H7         12.6449   23.6158   39.2537 H         1 MOL         0.0584
     42 H8          8.8940   19.9258   42.8515 H         1 MOL         0.2101
     43 H9          8.1943   23.4945   41.1125 H         1 MOL         0.2100
     44 H10         9.9088   22.8480   39.0913 H         1 MOL         0.2100
     45 H11        13.6583   21.5976   38.7174 H         1 MOL         0.2095
     46 H12        11.7017   14.5322   41.2424 H         1 MOL         0.0938
     47 H13        11.4614   15.9886   43.2243 H         1 MOL         0.0671
     48 H14         9.4881   17.4450   41.3725 H         1 MOL         0.0648
     49 H15        12.1210   18.3117   42.6743 H         1 MOL         0.0651
     50 H16        11.5146   17.9143   39.6950 H         1 MOL         0.0647
     51 H17        14.2144   18.0017   41.0421 H         1 MOL         0.0584
     52 H18        13.3606   19.5122   40.5771 H         1 MOL         0.0584
     53 H19         9.2254   15.4381   43.5688 H         1 MOL         0.2101
     54 H20         9.2955   18.7832   43.2845 H         1 MOL         0.2100
     55 H21        13.2274   18.6177   38.3878 H         1 MOL         0.2095
     56 H22         8.5536   12.3486   36.5615 H         1 MOL         0.0935
     57 H23         9.6225   11.9195   38.6611 H         1 MOL         0.0671
     58 H24         8.1145   14.3064   39.7812 H         1 MOL         0.0648
     59 H25        11.1392   13.8484   39.2181 H         1 MOL         0.0651
     60 H26         9.0679   15.8209   37.9852 H         1 MOL         0.0647
     61 H27        11.8347   15.0703   36.9055 H         1 MOL         0.0584
     62 H28        11.5921   16.4599   38.0176 H         1 MOL         0.0584
     63 H29         7.2910   14.2882   36.3549 H         1 MOL         0.2126
     64 H30         7.6915   11.3933   39.7898 H         1 MOL         0.2101
     65 H31         9.4632   13.6606   41.6070 H         1 MOL         0.2100
     66 H32        10.2506   16.0797   35.4961 H         1 MOL         0.2095
@<TRIPOS>BOND
     1    1    2 1  
     2    1   10 1  
     3   20    1 1  
     4    2    3 1  
     5    2    7 1  
     6    3    4 1  
     7    3    8 1  
     8    5    4 1  
     9    4    9 1  
    10    5    6 1  
    11   10    5 1  
    12    6   11 1  
    13   12   13 1  
    14   12   21 1  
    15   32   12 1  
    16   13   14 1  
    17   13   18 1  
    18   14   15 1  
    19   14   19 1  
    20   16   15 1  
    21   15   20 1  
    22   16   17 1  
    23   21   16 1  
    24   17   22 1  
    25   24   23 1  
    26   23   29 1  
    27   23   33 1  
    28   25   24 1  
    29   24   30 1  
    30   26   25 1  
    31   25   31 1  
    32   26   27 1  
    33   26   32 1  
    34   27   28 1  
    35   27   33 1  
    36   28   34 1  
    37    1   35 1  
    38    2   36 1  
    39    3   37 1  
    40    4   38 1  
    41    5   39 1  
    42    6   40 1  
    43    6   41 1  
    44    7   42 1  
    45    8   43 1  
    46    9   44 1  
    47   11   45 1  
    48   12   46 1  
    49   13   47 1  
    50   14   48 1  
    51   15   49 1  
    52   16   50 1  
    53   17   51 1  
    54   17   52 1  
    55   18   53 1  
    56   19   54 1  
    57   22   55 1  
    58   23   56 1  
    59   24   57 1  
    60   25   58 1  
    61   26   59 1  
    62   27   60 1  
    63   28   61 1  
    64   28   62 1  
    65   29   63 1  
    66   30   64 1  
    67   31   65 1  
    68   34   66 1  
@<TRIPOS>SUBSTRUCTURE
     1 MOL         1

