### 
### Created by X-TOOL on Mon Sep 10 21:13:06 2018
### 

@<TRIPOS>MOLECULE
3mbz_ligand
   48    49     1     0     0
SMALL
GAST_HUCK


@<TRIPOS>ATOM
      1 C1        107.7910   32.8210   27.8330 C.2       1 MXC         0.0285
      2 C2        107.0570   31.6450   27.9670 C.2       1 MXC        -0.0311
      3 C3        105.8770   31.6250   28.7000 C.2       1 MXC         0.0589
      4 C4        105.0370   30.6230   28.9550 C.2       1 MXC        -0.0838
      5 C5        104.0460   31.0730   29.7120 C.2       1 MXC        -0.0218
      6 C6        104.2250   32.4320   29.9670 C.2       1 MXC         0.1477
      7 C7        106.1500   34.0060   29.1730 C.2       1 MXC         0.0616
      8 C8        107.3390   34.0040   28.4360 C.2       1 MXC        -0.0310
      9 C9        109.0900   32.7610   27.0110 C.2       1 MXC         0.1874
     10 C10       102.8920   30.1720   30.1600 C.3       1 MXC         0.0566
     11 C11       103.5760   33.5220   32.0970 C.3       1 MXC         0.1086
     12 C12       104.4410   34.7770   32.2350 C.2       1 MXC         0.0609
     13 C13       102.2010   33.7440   32.8030 C.3       1 MXC         0.0944
     14 C14       101.6760   35.1980   32.6760 C.3       1 MXC        -0.0382
     15 C15       102.4250   33.3840   34.2980 C.3       1 MXC         0.1012
     16 C16       101.4520   33.2640   36.3590 C.2       1 MXC         0.3169
     17 N1        105.4070   32.8050   29.3140 N.pl3     1 MXC        -0.2189
     18 N2        109.8150   33.8780   27.0160 N.am      1 MXC        -0.3031
     19 N3        103.4060   33.2230   30.6650 N.pl3     1 MXC        -0.2958
     20 N4        100.1940   33.3020   36.8190 N.am      1 MXC        -0.2764
     21 O1        102.0240   30.0680   29.2890 O.3       1 MXC        -0.3903
     22 O2        109.4110   31.7350   26.4050 O.2       1 MXC        -0.3939
     23 O3        104.7760   35.3360   31.1630 O.co2     1 MXC        -0.5666
     24 O4        104.7080   35.1780   33.4010 O.co2     1 MXC        -0.5666
     25 O5         99.6480   32.7240   32.9140 O.co2     1 MXC        -0.5003
     26 O6        101.3800   31.2560   32.0660 O.co2     1 MXC        -0.5003
     27 O7        101.8130   34.1490   35.3720 O.3       1 MXC        -0.2618
     28 O8        102.2860   32.4440   36.7650 O.2       1 MXC        -0.3777
     29 S1        100.9130   32.6210   32.1030 S.o2      1 MXC        -0.2589
     30 H         107.4121   30.7306   27.4917 H         1 MXC         0.0630
     31 H         105.1467   29.5987   28.5988 H         1 MXC         0.0136
     32 H         105.7956   34.9263   29.6372 H         1 MXC         0.1052
     33 H         107.9151   34.9232   28.3302 H         1 MXC         0.0504
     34 H         102.4362   30.6155   31.0453 H         1 MXC         0.0627
     35 H         103.2929   29.1790   30.3630 H         1 MXC         0.0627
     36 H         104.0586   32.6716   32.5787 H         1 MXC         0.0733
     37 H         101.5004   35.4291   31.6253 H         1 MXC         0.0252
     38 H         100.7434   35.2960   33.2317 H         1 MXC         0.0252
     39 H         102.4165   35.8871   33.0821 H         1 MXC         0.0252
     40 H         103.4931   33.5449   34.4440 H         1 MXC         0.0634
     41 H         101.9729   32.3970   34.3954 H         1 MXC         0.0634
     42 H         110.6925   33.9188   26.4976 H         1 MXC         0.1801
     43 H         109.4928   34.6928   27.5382 H         1 MXC         0.1801
     44 H         102.6158   33.6451   30.1773 H         1 MXC         0.1736
     45 H          99.8913   32.6381   37.5317 H         1 MXC         0.1831
     46 H          99.5391   33.9948   36.4564 H         1 MXC         0.1831
     47 H         101.3203   29.4975   29.6066 H         1 MXC         0.2112
     48 H         100.6591   32.9984   30.8532 H         1 MXC         0.1494
@<TRIPOS>BOND
     1    2    1 2  
     2    8    1 1  
     3    1    9 1  
     4    3    2 1  
     5    3    4 2  
     6   17    3 1  
     7    5    4 1  
     8    6    5 2  
     9    5   10 1  
    10    6   17 1  
    11   19    6 1  
    12    7    8 2  
    13   17    7 1  
    14    9   18 am 
    15    9   22 2  
    16   10   21 1  
    17   11   12 1  
    18   13   11 1  
    19   11   19 1  
    20   12   23 ar 
    21   12   24 ar 
    22   13   14 1  
    23   15   13 1  
    24   13   29 1  
    25   27   15 1  
    26   16   20 am 
    27   16   27 1  
    28   16   28 2  
    29   29   25 ar 
    30   29   26 ar 
    31    2   30 1  
    32    4   31 1  
    33    7   32 1  
    34    8   33 1  
    35   10   34 1  
    36   10   35 1  
    37   11   36 1  
    38   14   37 1  
    39   14   38 1  
    40   14   39 1  
    41   15   40 1  
    42   15   41 1  
    43   18   42 1  
    44   18   43 1  
    45   19   44 1  
    46   20   45 1  
    47   20   46 1  
    48   21   47 1  
    49   29   48 1  
@<TRIPOS>SUBSTRUCTURE
     1 MXC         1

