### 
### Created by X-TOOL on Mon Sep 10 21:12:47 2018
### 

@<TRIPOS>MOLECULE
3mct_ligand
   16    16     1     0     0
SMALL
GAST_HUCK


@<TRIPOS>ATOM
      1 N3         16.7470   14.5230   21.6720 N.am      1 3MC        -0.1698
      2 CN3        15.7990   15.2070   22.5510 C.3       1 3MC         0.0629
      3 N1         18.3400   14.6020   19.8470 N.2       1 3MC        -0.2957
      4 C2         17.4520   15.1290   20.7050 C.2       1 3MC         0.2552
      5 O2         17.2440   16.4950   20.5610 O.2       1 3MC        -0.4032
      6 C4         16.8810   13.2020   21.9170 C.2       1 3MC         0.1866
      7 N4         16.2020   12.6210   22.8990 N.pl3     1 3MC        -0.2867
      8 C5         17.7830   12.5170   21.0840 C.2       1 3MC        -0.0009
      9 C6         18.4620   13.2880   20.0830 C.2       1 3MC        -0.0287
     10 H1         15.3595   14.4816   23.2515 H         1 3MC         0.0600
     11 H2         15.0010   15.6624   21.9462 H         1 3MC         0.0600
     12 H3         16.3235   15.9913   23.1165 H         1 3MC         0.0600
     13 H4         16.3133   11.6123   23.0755 H         1 3MC         0.1921
     14 H5         15.5640   13.1789   23.4843 H         1 3MC         0.1921
     15 H6         17.9585   11.4479   21.1939 H         1 3MC         0.0244
     16 H7         19.1549   12.7445   19.4423 H         1 3MC         0.0917
@<TRIPOS>BOND
     1    6    1 am 
     2    1    4 am 
     3    1    2 1  
     4    4    3 1  
     5    4    5 2  
     6    3    9 2  
     7    9    8 1  
     8    6    8 2  
     9    6    7 1  
    10    2   10 1  
    11    2   11 1  
    12    2   12 1  
    13    7   13 1  
    14    7   14 1  
    15    8   15 1  
    16    9   16 1  
@<TRIPOS>SUBSTRUCTURE
     1 3MC         1

