### 
### Created by X-TOOL on Mon Sep 10 21:13:03 2018
### 

@<TRIPOS>MOLECULE
3mdz_ligand
   26    27     1     0     0
SMALL
GAST_HUCK


@<TRIPOS>ATOM
      1 N1         15.8730   12.5730   80.9780 N.am      1 EZL        -0.2548
      2 C2         15.2480    7.8930   81.7440 C.ar      1 EZL         0.0296
      3 C3         14.0870    7.6460   80.9600 C.ar      1 EZL         0.0510
      4 C4         13.4120    6.4610   81.0850 C.ar      1 EZL        -0.0189
      5 C5         13.8010    5.4700   81.9760 C.ar      1 EZL         0.0844
      6 C8         13.6890    3.1060   82.2510 C.3       1 EZL         0.0670
      7 O1         16.7720   11.2790   79.0280 O.2       1 EZL        -0.1431
      8 O2         14.4110   11.6960   79.0050 O.2       1 EZL        -0.1431
      9 S1         15.5860   11.4040   79.8610 S.o2      1 EZL         0.1041
     10 C1         15.1850    9.8450   80.5200 C.2       1 EZL         0.2500
     11 N2         15.8370    9.1190   81.4750 N.2       1 EZL        -0.2771
     12 S2         13.7630    8.9930   79.9280 S.3       1 EZL         0.0259
     13 C6         14.9260    5.6800   82.7960 C.ar      1 EZL        -0.0391
     14 C7         15.6290    6.8790   82.6620 C.ar      1 EZL        -0.0596
     15 O3         12.9920    4.3580   82.0000 O.3       1 EZL        -0.3212
     16 C9         12.6010    2.0430   81.9650 C.3       1 EZL        -0.0372
     17 H1         16.6417   12.4817   81.6111 H         1 EZL         0.1640
     18 H2         15.2791   13.3761   81.0252 H         1 EZL         0.1640
     19 H3         12.5400    6.2902   80.4641 H         1 EZL         0.0487
     20 H4         14.0353    3.0476   83.2934 H         1 EZL         0.0610
     21 H5         14.5466    2.9873   81.5725 H         1 EZL         0.0610
     22 H6         15.2386    4.9298   83.5133 H         1 EZL         0.0502
     23 H7         16.5014    7.0424   83.2843 H         1 EZL         0.0565
     24 H8         13.0192    1.0382   82.1245 H         1 EZL         0.0255
     25 H9         12.2610    2.1374   80.9232 H         1 EZL         0.0255
     26 H10        11.7496    2.1978   82.6441 H         1 EZL         0.0255
@<TRIPOS>BOND
     1    9    1 am 
     2    2    3 ar 
     3   11    2 1  
     4    2   14 ar 
     5    3    4 ar 
     6    3   12 1  
     7    4    5 ar 
     8    5   13 ar 
     9    5   15 1  
    10   15    6 1  
    11    6   16 1  
    12    9    7 2  
    13    9    8 2  
    14   10    9 1  
    15   10   11 2  
    16   10   12 1  
    17   13   14 ar 
    18    1   17 1  
    19    1   18 1  
    20    4   19 1  
    21    6   20 1  
    22    6   21 1  
    23   13   22 1  
    24   14   23 1  
    25   16   24 1  
    26   16   25 1  
    27   16   26 1  
@<TRIPOS>SUBSTRUCTURE
     1 EZL         1

