### 
### Created by X-TOOL on Mon Sep 10 21:13:03 2018
### 

@<TRIPOS>MOLECULE
3me9_ligand
   82    81     1     0     0
SMALL
GAST_HUCK


@<TRIPOS>ATOM
      1 N          53.8440    9.1890   48.9200 N.4       1 ALA         0.2377
      2 CA         53.6340   10.1620   47.7920 C.3       1 ALA         0.0621
      3 C          54.0910   11.5320   48.1870 C.2       1 ALA         0.2264
      4 O          54.1320   11.8640   49.3680 O.2       1 ALA        -0.3907
      5 CB         52.1430   10.2370   47.3860 C.3       1 ALA        -0.0040
      6 N          54.4460   12.3340   47.1930 N.am      1 ARG        -0.2610
      7 CA         54.7910   13.7520   47.4040 C.3       1 ARG         0.1312
      8 C          53.5920   14.5670   46.9120 C.2       1 ARG         0.2040
      9 O          53.2350   14.4880   45.7350 O.2       1 ARG        -0.3944
     10 CB         56.0660   14.1080   46.6380 C.3       1 ARG        -0.0092
     11 CG         56.6580   15.5060   46.9660 C.3       1 ARG        -0.0156
     12 CD         58.0620   15.6750   46.4090 C.3       1 ARG         0.0627
     13 NE         58.9500   14.6110   46.8800 N.pl3     1 ARG        -0.2723
     14 CZ         60.1910   14.3730   46.4420 C.cat     1 ARG         0.2882
     15 NH1        60.7620   15.1280   45.5090 N.pl3     1 ARG        -0.2849
     16 NH2        60.8700   13.3540   46.9610 N.pl3     1 ARG        -0.2849
     17 N          52.9290   15.2930   47.8090 N.am      1 THR        -0.2613
     18 CA         51.7430   16.0670   47.4530 C.3       1 THR         0.1564
     19 C          52.1110   17.4800   47.0940 C.2       1 THR         0.2059
     20 O          53.1900   17.9440   47.4190 O.2       1 THR        -0.3943
     21 CB         50.7160   16.1250   48.6030 C.3       1 THR         0.0924
     22 OG1        51.3110   16.7570   49.7520 O.3       1 THR        -0.3874
     23 CG2        50.2550   14.7490   48.9670 C.3       1 THR        -0.0346
     24 N          51.1910   18.1580   46.4350 N.am      1 M3L        -0.2694
     25 CA         51.2580   19.6010   46.2750 C.3       1 M3L         0.0944
     26 CB         50.0650   19.9800   45.3890 C.3       1 M3L        -0.0177
     27 CG         49.9190   21.4720   45.1620 C.3       1 M3L        -0.0446
     28 CD         48.9320   21.6530   44.0230 C.3       1 M3L        -0.0123
     29 CE         47.4960   21.3900   44.4720 C.3       1 M3L        -0.0309
     30 NZ         46.5160   21.8260   43.4580 N.4       1 M3L         0.2369
     31 C          51.3010   20.2900   47.6150 C.2       1 M3L         0.0601
     32 O          52.0970   21.2400   47.7450 O.co2     1 M3L        -0.5666
     33 CM1        46.5960   23.2780   43.2730 C.3       1 M3L        -0.0418
     34 CM2        45.1840   21.4580   43.9140 C.3       1 M3L        -0.0418
     35 CM3        46.7460   21.1830   42.1560 C.3       1 M3L        -0.0418
     36 H          54.8340    9.1620   49.1642 H         1 ALA         0.2015
     37 H          53.3007    9.4871   49.7302 H         1 ALA         0.2015
     38 H          53.5392    8.2605   48.6277 H         1 ALA         0.2015
     39 H          54.2193    9.8048   46.9447 H         1 ALA         0.1095
     40 H          51.5553   10.5956   48.2310 H         1 ALA         0.0310
     41 H          52.0305   10.9228   46.5463 H         1 ALA         0.0310
     42 H          51.7965    9.2452   47.0956 H         1 ALA         0.0310
     43 H          54.4819   11.9559   46.2463 H         1 ARG         0.1884
     44 H          54.9906   13.9658   48.4540 H         1 ARG         0.0800
     45 H          55.8060   14.1162   45.5795 H         1 ARG         0.0313
     46 H          56.8192   13.3725   46.9204 H         1 ARG         0.0313
     47 H          56.7067   15.6096   48.0500 H         1 ARG         0.0301
     48 H          56.0179   16.2622   46.5117 H         1 ARG         0.0301
     49 H          58.4573   16.6330   46.7468 H         1 ARG         0.0689
     50 H          58.0123   15.6305   45.3210 H         1 ARG         0.0689
     51 H          58.5895   13.9950   47.6086 H         1 ARG         0.2642
     52 H          60.2519   15.9143   45.1065 H         1 ARG         0.2615
     53 H          61.7103   14.9211   45.1954 H         1 ARG         0.2615
     54 H          60.4430   12.7701   47.6801 H         1 ARG         0.2615
     55 H          61.8178   13.1564   46.6400 H         1 ARG         0.2615
     56 H          53.2592   15.3093   48.7740 H         1 THR         0.1884
     57 H          51.2974   15.5577   46.5985 H         1 THR         0.0826
     58 H          49.8542   16.7047   48.2722 H         1 THR         0.0639
     59 H          52.0769   16.2512   50.0332 H         1 THR         0.2101
     60 H          49.7887   14.2821   48.0995 H         1 THR         0.0257
     61 H          51.1102   14.1532   49.2861 H         1 THR         0.0257
     62 H          49.5314   14.8127   49.7797 H         1 THR         0.0257
     63 H          50.4062   17.6525   46.0239 H         1 M3L         0.1875
     64 H          52.1752   19.9338   45.7892 H         1 M3L         0.0726
     65 H          49.1626   19.6392   45.8966 H         1 M3L         0.0305
     66 H          50.2244   19.5176   44.4149 H         1 M3L         0.0305
     67 H          50.8810   21.9203   44.9137 H         1 M3L         0.0269
     68 H          49.5608   21.9663   46.0650 H         1 M3L         0.0269
     69 H          49.1815   20.9411   43.2362 H         1 M3L         0.0317
     70 H          48.9986   22.6826   43.6715 H         1 M3L         0.0317
     71 H          47.3149   21.9528   45.3877 H         1 M3L         0.0815
     72 H          47.3760   20.3176   44.6255 H         1 M3L         0.0815
     73 O          50.5615   19.9201   48.5658 O.co2     1 M3L        -0.5666
     74 H          46.3797   23.7759   44.2182 H         1 M3L         0.0778
     75 H          47.5990   23.5460   42.9409 H         1 M3L         0.0778
     76 H          45.8686   23.5880   42.5228 H         1 M3L         0.0778
     77 H          45.1311   20.3769   44.0423 H         1 M3L         0.0778
     78 H          44.9786   21.9486   44.8654 H         1 M3L         0.0778
     79 H          44.4481   21.7739   43.1746 H         1 M3L         0.0778
     80 H          47.7433   21.4378   41.7975 H         1 M3L         0.0778
     81 H          46.6635   20.1018   42.2666 H         1 M3L         0.0778
     82 H          46.0011   21.5344   41.4420 H         1 M3L         0.0778
@<TRIPOS>BOND
     1    1    2 1  
     2    2    3 1  
     3    2    5 1  
     4    3    4 2  
     5    3    6 am 
     6    6    7 1  
     7    7    8 1  
     8    7   10 1  
     9    8    9 2  
    10    8   17 am 
    11   10   11 1  
    12   11   12 1  
    13   12   13 1  
    14   13   14 ar 
    15   14   15 ar 
    16   14   16 ar 
    17   17   18 1  
    18   18   19 1  
    19   18   21 1  
    20   19   20 2  
    21   19   24 am 
    22   21   22 1  
    23   21   23 1  
    24   24   25 1  
    25   25   26 1  
    26   25   31 1  
    27   26   27 1  
    28   27   28 1  
    29   28   29 1  
    30   29   30 1  
    31   30   33 1  
    32   30   34 1  
    33   30   35 1  
    34   31   32 ar 
    35    1   36 1  
    36    1   37 1  
    37    1   38 1  
    38    2   39 1  
    39    5   40 1  
    40    5   41 1  
    41    5   42 1  
    42    6   43 1  
    43    7   44 1  
    44   10   45 1  
    45   10   46 1  
    46   11   47 1  
    47   11   48 1  
    48   12   49 1  
    49   12   50 1  
    50   13   51 1  
    51   15   52 1  
    52   15   53 1  
    53   16   54 1  
    54   16   55 1  
    55   17   56 1  
    56   18   57 1  
    57   21   58 1  
    58   22   59 1  
    59   23   60 1  
    60   23   61 1  
    61   23   62 1  
    62   24   63 1  
    63   25   64 1  
    64   26   65 1  
    65   26   66 1  
    66   27   67 1  
    67   27   68 1  
    68   28   69 1  
    69   28   70 1  
    70   29   71 1  
    71   29   72 1  
    72   31   73 ar 
    73   33   74 1  
    74   33   75 1  
    75   33   76 1  
    76   34   77 1  
    77   34   78 1  
    78   34   79 1  
    79   35   80 1  
    80   35   81 1  
    81   35   82 1  
@<TRIPOS>SUBSTRUCTURE
     1 ALA         1

