### 
### Created by X-TOOL on Mon Sep 10 21:13:02 2018
### 

@<TRIPOS>MOLECULE
3mea_ligand
   82    81     1     0     0
SMALL
GAST_HUCK


@<TRIPOS>ATOM
      1 N          22.4470   21.8520    4.2010 N.4       1 ALA         0.2377
      2 CA         21.8230   21.6540    5.5520 C.3       1 ALA         0.0621
      3 C          22.5720   22.5230    6.5410 C.2       1 ALA         0.2264
      4 O          23.7480   22.8290    6.3540 O.2       1 ALA        -0.3907
      5 CB         21.8440   20.1830    5.9780 C.3       1 ALA        -0.0040
      6 N          21.8680   22.9560    7.5610 N.am      1 ARG        -0.2610
      7 CA         22.4610   23.7400    8.6310 C.3       1 ARG         0.1312
      8 C          22.6510   22.8140    9.8220 C.2       1 ARG         0.2040
      9 O          21.6850   22.2590   10.3470 O.2       1 ARG        -0.3944
     10 CB         21.5220   24.8700    8.9920 C.3       1 ARG        -0.0092
     11 CG         22.0040   25.8510   10.0340 C.3       1 ARG        -0.0156
     12 CD         20.8320   26.7880   10.3590 C.3       1 ARG         0.0627
     13 NE         21.1830   27.9140   11.2290 N.pl3     1 ARG        -0.2723
     14 CZ         20.2920   28.7320   11.8110 C.cat     1 ARG         0.2882
     15 NH1        18.9800   28.5450   11.6350 N.pl3     1 ARG        -0.2849
     16 NH2        20.7140   29.7400   12.5770 N.pl3     1 ARG        -0.2849
     17 N          23.8940   22.6050   10.2250 N.am      1 THR        -0.2613
     18 CA         24.2130   21.7300   11.3500 C.3       1 THR         0.1564
     19 C          24.2950   22.5370   12.6500 C.2       1 THR         0.2059
     20 O          24.2720   23.7840   12.6350 O.2       1 THR        -0.3943
     21 CB         25.5410   20.9360   11.1280 C.3       1 THR         0.0924
     22 OG1        26.6430   21.8460   11.0970 O.3       1 THR        -0.3874
     23 CG2        25.5240   20.1080    9.8430 C.3       1 THR        -0.0346
     24 N          24.3850   21.8200   13.7680 N.am      1 M3L        -0.2694
     25 CA         24.5150   22.4450   15.1150 C.3       1 M3L         0.0944
     26 CB         24.2590   21.3700   16.2330 C.3       1 M3L        -0.0177
     27 CG         25.4440   20.4260   16.3590 C.3       1 M3L        -0.0446
     28 CD         25.2760   19.0700   17.0440 C.3       1 M3L        -0.0123
     29 CE         24.1990   19.0760   18.0790 C.3       1 M3L        -0.0309
     30 NZ         24.3230   17.9460   19.0710 N.4       1 M3L         0.2369
     31 C          25.8260   23.1920   15.3220 C.2       1 M3L         0.0601
     32 O          26.0150   23.8810   16.3430 O.co2     1 M3L        -0.5666
     33 CM1        24.6950   18.4650   20.4010 C.3       1 M3L        -0.0418
     34 CM2        25.2330   16.8190   18.7310 C.3       1 M3L        -0.0418
     35 CM3        23.0010   17.3480   19.1680 C.3       1 M3L        -0.0418
     36 H          22.4137   22.8411    3.9541 H         1 ALA         0.2015
     37 H          23.4175   21.5393    4.2270 H         1 ALA         0.2015
     38 H          21.9322   21.3097    3.5073 H         1 ALA         0.2015
     39 H          20.7728   21.9437    5.5166 H         1 ALA         0.1095
     40 H          22.8761   19.8368    6.0332 H         1 ALA         0.0310
     41 H          21.3729   20.0825    6.9558 H         1 ALA         0.0310
     42 H          21.2980   19.5866    5.2471 H         1 ALA         0.0310
     43 H          20.8731   22.7350    7.6037 H         1 ARG         0.1884
     44 H          23.4180   24.1653    8.3287 H         1 ARG         0.0800
     45 H          20.6347   24.3980    9.4138 H         1 ARG         0.0313
     46 H          21.3849   25.4481    8.0781 H         1 ARG         0.0313
     47 H          22.8550   26.4195    9.6589 H         1 ARG         0.0301
     48 H          22.3329   25.3254   10.9305 H         1 ARG         0.0301
     49 H          20.0848   26.1956   10.8871 H         1 ARG         0.0689
     50 H          20.4861   27.2082    9.4146 H         1 ARG         0.0689
     51 H          22.1726   28.0881   11.4043 H         1 ARG         0.2642
     52 H          18.6480   27.7751   11.0541 H         1 ARG         0.2615
     53 H          18.3110   29.1722   12.0816 H         1 ARG         0.2615
     54 H          21.7130   29.8884   12.7199 H         1 ARG         0.2615
     55 H          20.0376   30.3620   13.0196 H         1 ARG         0.2615
     56 H          24.6560   23.0713    9.7327 H         1 THR         0.1884
     57 H          23.4057   21.0015   11.4254 H         1 THR         0.0826
     58 H          25.6447   20.2395   11.9600 H         1 THR         0.0639
     59 H          27.4573   21.3562   10.9606 H         1 THR         0.2101
     60 H          24.7067   19.3882    9.8869 H         1 THR         0.0257
     61 H          25.3821   20.7692    8.9881 H         1 THR         0.0257
     62 H          26.4712   19.5784    9.7410 H         1 THR         0.0257
     63 H          24.3642   20.8025   13.7002 H         1 M3L         0.1875
     64 H          23.7471   23.2153   15.1861 H         1 M3L         0.0726
     65 H          23.3755   20.7900   15.9661 H         1 M3L         0.0305
     66 H          24.1153   21.8814   17.1848 H         1 M3L         0.0305
     67 H          26.1524   20.9627   16.9900 H         1 M3L         0.0269
     68 H          25.7050   20.1795   15.3298 H         1 M3L         0.0269
     69 H          26.2156   18.8273   17.5404 H         1 M3L         0.0317
     70 H          25.0025   18.3413   16.2809 H         1 M3L         0.0317
     71 H          23.2451   18.9609   17.5643 H         1 M3L         0.0815
     72 H          24.2774   20.0118   18.6323 H         1 M3L         0.0815
     73 O1         26.7314   23.1123   14.4494 O.co2     1 M3L        -0.5666
     74 H          25.6512   18.9838   20.3327 H         1 M3L         0.0778
     75 H          23.9280   19.1581   20.7467 H         1 M3L         0.0778
     76 H          24.7796   17.6352   21.1027 H         1 M3L         0.0778
     77 H          24.8989   16.3505   17.8052 H         1 M3L         0.0778
     78 H          26.2468   17.1983   18.6025 H         1 M3L         0.0778
     79 H          25.2176   16.0854   19.5371 H         1 M3L         0.0778
     80 H          22.2888   18.0978   19.5125 H         1 M3L         0.0778
     81 H          22.6974   16.9799   18.1880 H         1 M3L         0.0778
     82 H          23.0294   16.5197   19.8759 H         1 M3L         0.0778
@<TRIPOS>BOND
     1    1    2 1  
     2    2    3 1  
     3    2    5 1  
     4    3    4 2  
     5    3    6 am 
     6    6    7 1  
     7    7    8 1  
     8    7   10 1  
     9    8    9 2  
    10    8   17 am 
    11   10   11 1  
    12   11   12 1  
    13   12   13 1  
    14   13   14 ar 
    15   14   15 ar 
    16   14   16 ar 
    17   17   18 1  
    18   18   19 1  
    19   18   21 1  
    20   19   20 2  
    21   19   24 am 
    22   21   22 1  
    23   21   23 1  
    24   24   25 1  
    25   25   26 1  
    26   25   31 1  
    27   26   27 1  
    28   27   28 1  
    29   28   29 1  
    30   29   30 1  
    31   30   33 1  
    32   30   34 1  
    33   30   35 1  
    34   31   32 ar 
    35    1   36 1  
    36    1   37 1  
    37    1   38 1  
    38    2   39 1  
    39    5   40 1  
    40    5   41 1  
    41    5   42 1  
    42    6   43 1  
    43    7   44 1  
    44   10   45 1  
    45   10   46 1  
    46   11   47 1  
    47   11   48 1  
    48   12   49 1  
    49   12   50 1  
    50   13   51 1  
    51   15   52 1  
    52   15   53 1  
    53   16   54 1  
    54   16   55 1  
    55   17   56 1  
    56   18   57 1  
    57   21   58 1  
    58   22   59 1  
    59   23   60 1  
    60   23   61 1  
    61   23   62 1  
    62   24   63 1  
    63   25   64 1  
    64   26   65 1  
    65   26   66 1  
    66   27   67 1  
    67   27   68 1  
    68   28   69 1  
    69   28   70 1  
    70   29   71 1  
    71   29   72 1  
    72   31   73 ar 
    73   33   74 1  
    74   33   75 1  
    75   33   76 1  
    76   34   77 1  
    77   34   78 1  
    78   34   79 1  
    79   35   80 1  
    80   35   81 1  
    81   35   82 1  
@<TRIPOS>SUBSTRUCTURE
     1 ALA         1

