### 
### Created by X-TOOL on Mon Sep 10 21:13:03 2018
### 

@<TRIPOS>MOLECULE
3meu_ligand
   98    97     1     0     0
SMALL
GAST_HUCK


@<TRIPOS>ATOM
      1 N           4.3440  -10.6280    3.7870 N.4       1 ALA         0.2377
      2 CA          4.0100  -11.6560    4.7940 C.3       1 ALA         0.0621
      3 C           4.5680  -12.9810    4.2920 C.2       1 ALA         0.2264
      4 O           4.7890  -13.2140    3.1020 O.2       1 ALA        -0.3907
      5 CB          2.4860  -11.7480    4.9880 C.3       1 ALA        -0.0040
      6 N           4.9340  -13.9160    5.3480 N.am      1 2MR        -0.2610
      7 CA          5.2240  -15.3000    5.0420 C.3       1 2MR         0.1312
      8 CB          6.5460  -15.7220    5.6800 C.3       1 2MR        -0.0092
      9 CG          6.8700  -17.1970    5.3740 C.3       1 2MR        -0.0156
     10 CD          8.2630  -17.5920    5.9090 C.3       1 2MR         0.0627
     11 NE          8.4290  -19.0630    5.9540 N.pl3     1 2MR        -0.2721
     12 CZ          8.7960  -19.7800    4.8740 C.cat     1 2MR         0.2920
     13 NH1         9.0770  -19.1740    3.7020 N.pl3     1 2MR        -0.2748
     14 CQ1         9.4970  -19.9460    2.5110 C.3       1 2MR         0.0514
     15 NH2         8.9350  -21.1020    4.9770 N.pl3     1 2MR        -0.2748
     16 CQ2         8.6630  -21.8400    6.2230 C.3       1 2MR         0.0514
     17 C           4.0410  -16.0990    5.5440 C.2       1 2MR         0.2040
     18 O           3.6680  -16.1010    6.7070 O.2       1 2MR        -0.3944
     19 N           3.2380  -16.8710    4.5740 N.am      1 THR        -0.2613
     20 CA          2.0560  -17.6840    4.9390 C.3       1 THR         0.1565
     21 C           2.5250  -19.1090    5.2200 C.2       1 THR         0.2065
     22 O           3.6650  -19.4880    4.8930 O.2       1 THR        -0.3943
     23 CB          1.0240  -17.6670    3.8070 C.3       1 THR         0.0924
     24 OG1         1.6190  -18.2950    2.6640 O.3       1 THR        -0.3874
     25 CG2         0.6510  -16.2250    3.4450 C.3       1 THR        -0.0346
     26 N           1.6410  -19.8790    5.8450 N.am      1 M3L        -0.2637
     27 CA          1.8210  -21.3220    5.9490 C.3       1 M3L         0.1309
     28 CB          0.7500  -21.9260    6.8730 C.3       1 M3L        -0.0122
     29 CG          0.9480  -23.4070    7.1760 C.3       1 M3L        -0.0440
     30 CD          0.0320  -23.8250    8.3270 C.3       1 M3L        -0.0123
     31 CE         -1.4150  -23.7810    7.8620 C.3       1 M3L        -0.0309
     32 NZ         -2.3770  -24.3490    8.8090 N.4       1 M3L         0.2369
     33 C           1.8100  -21.9420    4.5780 C.2       1 M3L         0.2033
     34 O           0.9780  -21.5900    3.7340 O.2       1 M3L        -0.3944
     35 CM1        -2.1820  -25.7930    8.9400 C.3       1 M3L        -0.0418
     36 CM2        -3.7160  -24.0710    8.2800 C.3       1 M3L        -0.0418
     37 CM3        -2.3130  -23.6950   10.1330 C.3       1 M3L        -0.0418
     38 N           2.7310  -22.8810    4.3620 N.am      1 GLN        -0.2698
     39 CA          2.8950  -23.5420    3.0710 C.3       1 GLN         0.0916
     40 C           2.0110  -24.7810    2.9940 C.2       1 GLN         0.0598
     41 O           0.9330  -24.8250    3.5920 O.co2     1 GLN        -0.5666
     42 CB          4.3630  -23.9250    2.8490 C.3       1 GLN        -0.0300
     43 H           5.3565  -10.5821    3.6727 H         1 ALA         0.2015
     44 H           3.9108  -10.8727    2.8965 H         1 ALA         0.2015
     45 H           3.9944   -9.7220    4.0989 H         1 ALA         0.2015
     46 H           4.4442  -11.4005    5.7606 H         1 ALA         0.1095
     47 H           2.0140  -11.9925    4.0364 H         1 ALA         0.0310
     48 H           2.2602  -12.5258    5.7175 H         1 ALA         0.0310
     49 H           2.1083  -10.7906    5.3470 H         1 ALA         0.0310
     50 H           4.9863  -13.5912    6.3135 H         1 2MR         0.1884
     51 H           5.3538  -15.4694    3.9731 H         1 2MR         0.0800
     52 H           6.4638  -15.6018    6.7602 H         1 2MR         0.0313
     53 H           7.3424  -15.1000    5.2715 H         1 2MR         0.0313
     54 H           6.8631  -17.3352    4.2928 H         1 2MR         0.0301
     55 H           6.1225  -17.8232    5.8609 H         1 2MR         0.0301
     56 H           8.3681  -17.2012    6.9211 H         1 2MR         0.0689
     57 H           9.0194  -17.1791    5.2416 H         1 2MR         0.0689
     58 H           8.2595  -19.5505    6.8338 H         1 2MR         0.2642
     59 H           8.9981  -18.1593    3.6349 H         1 2MR         0.2639
     60 H          10.4152  -20.4884    2.7364 H         1 2MR         0.0652
     61 H           8.7122  -20.6533    2.2428 H         1 2MR         0.0652
     62 H           9.6717  -19.2628    1.6798 H         1 2MR         0.0652
     63 H           9.2431  -21.6254    4.1575 H         1 2MR         0.2639
     64 H           9.3189  -21.4723    7.0121 H         1 2MR         0.0652
     65 H           7.6232  -21.6894    6.5134 H         1 2MR         0.0652
     66 H           8.8464  -22.9023    6.0620 H         1 2MR         0.0652
     67 H           3.5148  -16.8422    3.5927 H         1 THR         0.1884
     68 H           1.5774  -17.2705    5.8267 H         1 THR         0.0826
     69 H           0.1218  -18.1916    4.1214 H         1 THR         0.0639
     70 H           2.4056  -17.8086    2.4063 H         1 THR         0.2101
     71 H           0.2279  -15.7301    4.3192 H         1 THR         0.0257
     72 H           1.5438  -15.6908    3.1201 H         1 THR         0.0257
     73 H          -0.0830  -16.2323    2.6392 H         1 THR         0.0257
     74 H           0.8154  -19.4497    6.2627 H         1 M3L         0.1883
     75 H           2.7909  -21.5390    6.3966 H         1 M3L         0.0800
     76 H          -0.2077  -21.8278    6.3619 H         1 M3L         0.0312
     77 H           0.8072  -21.3934    7.8223 H         1 M3L         0.0312
     78 H           1.9860  -23.5822    7.4586 H         1 M3L         0.0269
     79 H           0.7044  -23.9927    6.2896 H         1 M3L         0.0269
     80 H           0.1659  -23.1416    9.1655 H         1 M3L         0.0317
     81 H           0.2825  -24.8379    8.6422 H         1 M3L         0.0317
     82 H          -1.4749  -24.3772    6.9515 H         1 M3L         0.0815
     83 H          -1.6764  -22.7305    7.7344 H         1 M3L         0.0815
     84 H          -2.3213  -26.2668    7.9683 H         1 M3L         0.0778
     85 H          -1.1726  -25.9908    9.3007 H         1 M3L         0.0778
     86 H          -2.9073  -26.1935    9.6483 H         1 M3L         0.0778
     87 H          -3.8535  -22.9934    8.1907 H         1 M3L         0.0778
     88 H          -3.8212  -24.5345    7.2991 H         1 M3L         0.0778
     89 H          -4.4652  -24.4791    8.9584 H         1 M3L         0.0778
     90 H          -1.3137  -23.8192   10.5503 H         1 M3L         0.0778
     91 H          -2.5329  -22.6331   10.0233 H         1 M3L         0.0778
     92 H          -3.0454  -24.1521   10.7984 H         1 M3L         0.0778
     93 H           3.3463  -23.1486    5.1302 H         1 GLN         0.1875
     94 H           2.5934  -22.8478    2.2866 H         1 GLN         0.0723
     95 O           2.3855  -25.7718    2.3116 O.co2     1 GLN        -0.5666
     96 H           4.9788  -23.0258    2.8688 H         1 GLN         0.0270
     97 H           4.6836  -24.6039    3.6393 H         1 GLN         0.0270
     98 H           4.4666  -24.4167    1.8817 H         1 GLN         0.0270
@<TRIPOS>BOND
     1    1    2 1  
     2    2    3 1  
     3    2    5 1  
     4    3    4 2  
     5    3    6 am 
     6    6    7 1  
     7    7    8 1  
     8    7   17 1  
     9    8    9 1  
    10    9   10 1  
    11   10   11 1  
    12   11   12 ar 
    13   12   13 ar 
    14   12   15 ar 
    15   13   14 1  
    16   15   16 1  
    17   17   18 2  
    18   17   19 am 
    19   19   20 1  
    20   20   21 1  
    21   20   23 1  
    22   21   22 2  
    23   21   26 am 
    24   23   24 1  
    25   23   25 1  
    26   26   27 1  
    27   27   28 1  
    28   27   33 1  
    29   28   29 1  
    30   29   30 1  
    31   30   31 1  
    32   31   32 1  
    33   32   35 1  
    34   32   36 1  
    35   32   37 1  
    36   33   34 2  
    37   33   38 am 
    38   38   39 1  
    39   39   40 1  
    40   39   42 1  
    41   40   41 ar 
    42    1   43 1  
    43    1   44 1  
    44    1   45 1  
    45    2   46 1  
    46    5   47 1  
    47    5   48 1  
    48    5   49 1  
    49    6   50 1  
    50    7   51 1  
    51    8   52 1  
    52    8   53 1  
    53    9   54 1  
    54    9   55 1  
    55   10   56 1  
    56   10   57 1  
    57   11   58 1  
    58   13   59 1  
    59   14   60 1  
    60   14   61 1  
    61   14   62 1  
    62   15   63 1  
    63   16   64 1  
    64   16   65 1  
    65   16   66 1  
    66   19   67 1  
    67   20   68 1  
    68   23   69 1  
    69   24   70 1  
    70   25   71 1  
    71   25   72 1  
    72   25   73 1  
    73   26   74 1  
    74   27   75 1  
    75   28   76 1  
    76   28   77 1  
    77   29   78 1  
    78   29   79 1  
    79   30   80 1  
    80   30   81 1  
    81   31   82 1  
    82   31   83 1  
    83   35   84 1  
    84   35   85 1  
    85   35   86 1  
    86   36   87 1  
    87   36   88 1  
    88   36   89 1  
    89   37   90 1  
    90   37   91 1  
    91   37   92 1  
    92   38   93 1  
    93   39   94 1  
    94   40   95 ar 
    95   42   96 1  
    96   42   97 1  
    97   42   98 1  
@<TRIPOS>SUBSTRUCTURE
     1 ALA         1

