### 
### Created by X-TOOL on Mon Sep 10 21:13:03 2018
### 

@<TRIPOS>MOLECULE
3mf5_ligand
   50    53     1     0     0
SMALL
GAST_HUCK


@<TRIPOS>ATOM
      1 S1         77.4740   31.8080   -8.2860 S.3       1 HJZ        -0.0245
      2 C2         75.9660   32.0190   -9.0730 C.2       1 HJZ         0.0404
      3 C3         76.1540   32.6770  -10.2470 C.2       1 HJZ        -0.0533
      4 C4         77.4250   32.9780  -10.4910 C.2       1 HJZ        -0.0155
      5 C5         78.3290   32.6010   -9.5580 C.2       1 HJZ         0.0712
      6 C6         74.8030   31.5710   -8.3730 C.ar      1 HJZ        -0.0079
      7 C7         79.7530   32.7670   -9.4860 C.2       1 HJZ         0.0702
      8 C8         77.7580   33.6670  -11.7390 C.ar      1 HJZ        -0.0233
      9 O9         80.3440   32.2960   -8.4880 O.co2     1 HJZ        -0.5625
     10 O10        80.5080   33.3050  -10.2320 O.co2     1 HJZ        -0.5625
     11 C11        77.7570   35.0380  -11.9170 C.ar      1 HJZ        -0.0336
     12 C12        78.4340   34.7500  -14.3400 C.ar      1 HJZ        -0.0700
     13 C13        78.4260   33.3160  -14.1450 C.ar      1 HJZ        -0.0699
     14 C14        78.0830   35.6180  -13.2300 C.ar      1 HJZ        -0.0607
     15 C15        78.0900   32.7610  -12.8580 C.ar      1 HJZ        -0.0632
     16 C16        73.6180   32.3910   -8.5960 C.ar      1 HJZ        -0.0544
     17 C17        72.4180   30.8830   -6.9710 C.ar      1 HJZ        -0.0628
     18 C18        73.5770   30.0840   -6.7220 C.ar      1 HJZ        -0.0623
     19 C19        72.4360   32.0250   -7.8850 C.ar      1 HJZ        -0.0623
     20 C20        74.7710   30.4180   -7.4260 C.ar      1 HJZ        -0.0544
     21 C21        77.3840   35.9280  -10.7470 C.3       1 HJZ        -0.0068
     22 C22        78.3000   37.1080  -10.4950 C.3       1 HJZ        -0.0401
     23 C23        77.6860   37.9500   -9.3230 C.3       1 HJZ        -0.0484
     24 C24        76.2550   38.4040   -9.6340 C.3       1 HJZ        -0.0436
     25 C25        75.2460   37.2660  -10.0810 C.3       1 HJZ        -0.0484
     26 C26        75.8870   36.3030  -11.1350 C.3       1 HJZ        -0.0401
     27 C27        75.6650   39.3010   -8.5220 C.3       1 HJZ        -0.0624
     28 H1         75.3402   32.9333  -10.9237 H         1 HJZ         0.0462
     29 H2         78.6988   35.1711  -15.3031 H         1 HJZ         0.0586
     30 H3         78.6735   32.6572  -14.9695 H         1 HJZ         0.0557
     31 H4         78.0611   36.6929  -13.3683 H         1 HJZ         0.0551
     32 H5         78.0809   31.6869  -12.7121 H         1 HJZ         0.0587
     33 H6         73.6342   33.2393   -9.2706 H         1 HJZ         0.0615
     34 H7         71.4927   30.6337   -6.4644 H         1 HJZ         0.0608
     35 H8         73.5491   29.2551   -6.0240 H         1 HJZ         0.0615
     36 H9         71.5317   32.6060   -8.0253 H         1 HJZ         0.0615
     37 H10        75.6666   29.8272   -7.2715 H         1 HJZ         0.0615
     38 H11        77.3835   35.3313   -9.8229 H         1 HJZ         0.0464
     39 H12        78.3720   37.7262  -11.4020 H         1 HJZ         0.0291
     40 H13        79.3018   36.7508  -10.2142 H         1 HJZ         0.0291
     41 H14        78.3128   38.8386   -9.1571 H         1 HJZ         0.0270
     42 H15        77.6736   37.3345   -8.4114 H         1 HJZ         0.0270
     43 H16        76.3532   39.0547  -10.5154 H         1 HJZ         0.0298
     44 H17        74.3539   37.7342  -10.5225 H         1 HJZ         0.0270
     45 H18        74.9535   36.6816   -9.1962 H         1 HJZ         0.0270
     46 H19        75.2894   35.3810  -11.1868 H         1 HJZ         0.0291
     47 H20        75.8854   36.7968  -12.1179 H         1 HJZ         0.0291
     48 H21        76.3985   40.0728   -8.2458 H         1 HJZ         0.0232
     49 H22        75.4304   38.6860   -7.6407 H         1 HJZ         0.0232
     50 H23        74.7463   39.7826   -8.8882 H         1 HJZ         0.0232
@<TRIPOS>BOND
     1    2    1 1  
     2    1    5 1  
     3    2    3 2  
     4    6    2 1  
     5    3    4 1  
     6    4    5 2  
     7    4    8 1  
     8    5    7 1  
     9   16    6 ar 
    10    6   20 ar 
    11    7    9 ar 
    12    7   10 ar 
    13    8   11 ar 
    14    8   15 ar 
    15   11   14 ar 
    16   11   21 1  
    17   13   12 ar 
    18   14   12 ar 
    19   15   13 ar 
    20   19   16 ar 
    21   17   18 ar 
    22   17   19 ar 
    23   18   20 ar 
    24   21   22 1  
    25   21   26 1  
    26   22   23 1  
    27   23   24 1  
    28   24   25 1  
    29   24   27 1  
    30   25   26 1  
    31    3   28 1  
    32   12   29 1  
    33   13   30 1  
    34   14   31 1  
    35   15   32 1  
    36   16   33 1  
    37   17   34 1  
    38   18   35 1  
    39   19   36 1  
    40   20   37 1  
    41   21   38 1  
    42   22   39 1  
    43   22   40 1  
    44   23   41 1  
    45   23   42 1  
    46   24   43 1  
    47   25   44 1  
    48   25   45 1  
    49   26   46 1  
    50   26   47 1  
    51   27   48 1  
    52   27   49 1  
    53   27   50 1  
@<TRIPOS>SUBSTRUCTURE
     1 HJZ         1

