### 
### Created by X-TOOL on Mon Sep 10 21:13:02 2018
### 

@<TRIPOS>MOLECULE
3mfv_ligand
   25    25     1     0     0
SMALL
GAST_HUCK


@<TRIPOS>ATOM
      1 CA        -19.5010   16.4710   -5.2810 C.3       1 Z70         0.0300
      2 C         -20.9540   16.8970   -5.5920 C.2       1 Z70         0.0846
      3 C3        -20.2620   12.6300   -5.6040 C.2       1 Z70         0.0382
      4 C4        -20.2510   10.4610   -5.6450 C.2       1 Z70         0.1941
      5 C5        -19.2420   12.2430   -6.5980 C.2       1 Z70        -0.0516
      6 C6        -19.2760   14.9430   -5.1580 C.3       1 Z70         0.0122
      7 C7        -20.5410   14.1040   -5.3310 C.3       1 Z70         0.0023
      8 N         -19.1230   17.0290   -4.0280 N.4       1 Z70         0.2328
      9 N2        -20.8500   11.5140   -5.0490 N.pl3     1 Z70        -0.2452
     10 N3        -19.2840   10.8510   -6.5770 N.2       1 Z70        -0.3473
     11 N4        -20.5650    9.1430   -5.3650 N.pl3     1 Z70        -0.3004
     12 OXT       -21.5310   16.5360   -6.6910 O.co2     1 Z70        -0.5643
     13 O         -21.6040   17.6250   -4.7600 O.co2     1 Z70        -0.5643
     14 H1        -18.8504   16.8600   -6.0781 H         1 Z70         0.1026
     15 H2        -18.6086   12.8904   -7.2027 H         1 Z70         0.0251
     16 H3        -18.8590   14.7355   -4.1615 H         1 Z70         0.0359
     17 H4        -18.5528   14.6384   -5.9288 H         1 Z70         0.0359
     18 H5        -21.1378   14.1805   -4.4102 H         1 Z70         0.0424
     19 H6        -21.1160   14.5116   -6.1755 H         1 Z70         0.0424
     20 H7        -19.2506   18.0286   -4.0532 H         1 Z70         0.2010
     21 H8        -18.1544   16.8184   -3.8449 H         1 Z70         0.2010
     22 H9        -19.6962   16.6354   -3.2982 H         1 Z70         0.2010
     23 H10       -21.5891   11.4886   -4.3321 H         1 Z70         0.2341
     24 H11       -20.0726    8.3814   -5.8532 H         1 Z70         0.1788
     25 H12       -21.2912    8.9234   -4.6684 H         1 Z70         0.1788
@<TRIPOS>BOND
     1    1    2 1  
     2    6    1 1  
     3    1    8 1  
     4    2   12 ar 
     5    2   13 ar 
     6    3    5 2  
     7    7    3 1  
     8    3    9 1  
     9    9    4 1  
    10    4   10 2  
    11    4   11 1  
    12    5   10 1  
    13    6    7 1  
    14    1   14 1  
    15    5   15 1  
    16    6   16 1  
    17    6   17 1  
    18    7   18 1  
    19    7   19 1  
    20    8   20 1  
    21    8   21 1  
    22    8   22 1  
    23    9   23 1  
    24   11   24 1  
    25   11   25 1  
@<TRIPOS>SUBSTRUCTURE
     1 Z70         1

