### 
### Created by X-TOOL on Mon Sep 10 21:13:07 2018
### 

@<TRIPOS>MOLECULE
3mg4_ligand
   90    93     1     0     0
SMALL
GAST_HUCK


@<TRIPOS>ATOM
      1 C1          9.0890 -137.6890   19.5680 C.3       1 LXT         0.1329
      2 N2          9.6140 -137.4880   20.9420 N.am      1 LXT        -0.2609
      3 C3          8.0110 -136.6220   19.2740 C.3       1 LXT        -0.0027
      4 C4         10.2200 -137.6360   18.5220 C.2       1 LXT         0.2041
      5 N5         10.2490 -138.6880   17.6960 N.am      1 LXT        -0.2636
      6 O6         11.0140 -136.6930   18.4900 O.2       1 LXT        -0.3944
      7 C7         11.2410 -138.8890   16.6200 C.3       1 LXT         0.1327
      8 C8         11.9450 -140.2390   16.8600 C.3       1 LXT        -0.0027
      9 C9         10.5240 -138.8290   15.2630 C.2       1 LXT         0.2035
     10 O10         9.5100 -139.4900   15.0490 O.2       1 LXT        -0.3944
     11 N11        11.0700 -137.9970   14.3780 N.am      1 LXT        -0.2747
     12 C12        10.5060 -137.7430   13.0430 C.3       1 LXT         0.0615
     13 C13         9.7300 -136.4250   13.1380 C.ar      1 LXT        -0.0277
     14 C14        10.2210 -135.2590   12.5350 C.ar      1 LXT        -0.0649
     15 C15         9.5120 -134.0550   12.6430 C.ar      1 LXT        -0.0670
     16 C16         8.3150 -134.0210   13.3580 C.ar      1 LXT        -0.0528
     17 C17         7.8270 -135.1810   13.9610 C.ar      1 LXT        -0.0670
     18 C18         8.5310 -136.3820   13.8560 C.ar      1 LXT        -0.0649
     19 C19         7.5300 -132.7210   13.4860 C.3       1 LXT        -0.0343
     20 C20        13.4170 -140.2940   16.4180 C.3       1 LXT        -0.0149
     21 C21        14.3840 -139.3360   17.1390 C.ar      1 LXT        -0.0428
     22 C22        15.6110 -139.0550   16.5260 C.ar      1 LXT        -0.0603
     23 C23        16.5250 -138.1900   17.1340 C.ar      1 LXT        -0.0686
     24 C24        16.2080 -137.6010   18.3650 C.ar      1 LXT        -0.0687
     25 C25        14.9860 -137.8800   18.9870 C.ar      1 LXT        -0.0686
     26 C26        14.0810 -138.7500   18.3740 C.ar      1 LXT        -0.0603
     27 C27         7.0250 -137.0360   18.1650 C.3       1 LXT        -0.0149
     28 C28         5.6230 -136.4560   18.4180 C.ar      1 LXT        -0.0428
     29 C29         4.6940 -137.1660   19.1990 C.ar      1 LXT        -0.0603
     30 C30         3.4130 -136.6540   19.4470 C.ar      1 LXT        -0.0686
     31 C31         3.0630 -135.4180   18.9040 C.ar      1 LXT        -0.0687
     32 C32         3.9860 -134.7100   18.1250 C.ar      1 LXT        -0.0686
     33 C33         5.2660 -135.2180   17.8770 C.ar      1 LXT        -0.0603
     34 C34        10.5870 -138.2020   21.5320 C.2       1 LXT         0.2269
     35 O35        11.1910 -139.1420   21.0120 O.2       1 LXT        -0.3907
     36 C36        10.8810 -137.7880   22.9880 C.3       1 LXT         0.0668
     37 C37        12.3890 -137.8210   23.3110 C.3       1 LXT         0.0176
     38 N38        10.1490 -138.6900   23.9040 N.4       1 LXT         0.2380
     39 C41        12.8350 -136.5760   24.1050 C.3       1 LXT        -0.0119
     40 C42        14.2810 -136.1620   23.7640 C.ar      1 LXT        -0.0427
     41 C43        15.2490 -136.1300   24.7740 C.ar      1 LXT        -0.0603
     42 C44        16.5600 -135.7600   24.4650 C.ar      1 LXT        -0.0686
     43 C45        16.9050 -135.4240   23.1500 C.ar      1 LXT        -0.0687
     44 C46        15.9450 -135.4510   22.1340 C.ar      1 LXT        -0.0686
     45 C47        14.6350 -135.8180   22.4470 C.ar      1 LXT        -0.0603
     46 H           8.6402 -138.6802   19.5027 H         1 LXT         0.0801
     47 H           9.1961 -136.7362   21.4903 H         1 LXT         0.1885
     48 H           8.5242 -135.7212   18.9373 H         1 LXT         0.0334
     49 H           7.4349 -136.4771   20.1879 H         1 LXT         0.0334
     50 H           9.5332 -139.4043   17.8182 H         1 LXT         0.1883
     51 H          12.0010 -138.1077   16.6193 H         1 LXT         0.0801
     52 H          11.4110 -140.9815   16.2669 H         1 LXT         0.0334
     53 H          11.9335 -140.4123   17.9361 H         1 LXT         0.0334
     54 H          11.9264 -137.5089   14.6401 H         1 LXT         0.1877
     55 H           9.8513 -138.5585   12.7358 H         1 LXT         0.0670
     56 H          11.2948 -137.6768   12.2937 H         1 LXT         0.0670
     57 H          11.1584 -135.2888   11.9796 H         1 LXT         0.0540
     58 H           9.8940 -133.1499   12.1707 H         1 LXT         0.0540
     59 H           6.8903 -135.1492   14.5175 H         1 LXT         0.0540
     60 H           8.1469 -137.2839   14.3326 H         1 LXT         0.0540
     61 H           8.1490 -131.9713   13.9789 H         1 LXT         0.0378
     62 H           7.2504 -132.3677   12.4935 H         1 LXT         0.0378
     63 H           6.6312 -132.8975   14.0768 H         1 LXT         0.0378
     64 H          13.4290 -140.0028   15.3677 H         1 LXT         0.0428
     65 H          13.7640 -141.3021   16.6448 H         1 LXT         0.0428
     66 H          15.8551 -139.5140   15.5680 H         1 LXT         0.0557
     67 H          17.4792 -137.9748   16.6531 H         1 LXT         0.0599
     68 H          16.9164 -136.9225   18.8403 H         1 LXT         0.0559
     69 H          14.7415 -137.4209   19.9449 H         1 LXT         0.0599
     70 H          13.1319 -138.9743   18.8608 H         1 LXT         0.0557
     71 H           6.9534 -138.1236   18.1528 H         1 LXT         0.0428
     72 H           7.3925 -136.6523   17.2132 H         1 LXT         0.0428
     73 H           4.9750 -138.1318   19.6191 H         1 LXT         0.0557
     74 H           2.7015 -137.2131   20.0547 H         1 LXT         0.0599
     75 H           2.0715 -135.0035   19.0860 H         1 LXT         0.0559
     76 H           3.7023 -133.7454   17.7040 H         1 LXT         0.0599
     77 H           5.9753 -134.6555   17.2698 H         1 LXT         0.0557
     78 H          10.5468 -136.7590   23.1203 H         1 LXT         0.1100
     79 H          12.9395 -137.8416   22.3704 H         1 LXT         0.0368
     80 H          12.5890 -138.7035   23.9187 H         1 LXT         0.0368
     81 H          10.3399 -138.4206   24.8691 H         1 LXT         0.2015
     82 H           9.1480 -138.6186   23.7215 H         1 LXT         0.2015
     83 H          10.4561 -139.6505   23.7508 H         1 LXT         0.2015
     84 H          12.7900 -136.8148   25.1676 H         1 LXT         0.0429
     85 H          12.1732 -135.7500   23.8445 H         1 LXT         0.0429
     86 H          14.9811 -136.3927   25.7974 H         1 LXT         0.0557
     87 H          17.3164 -135.7327   25.2494 H         1 LXT         0.0599
     88 H          17.9309 -135.1390   22.9166 H         1 LXT         0.0559
     89 H          16.2158 -135.1890   21.1112 H         1 LXT         0.0599
     90 H          13.8785 -135.8382   21.6625 H         1 LXT         0.0557
@<TRIPOS>BOND
     1    1    2 1  
     2    1    3 1  
     3    1    4 1  
     4    2   34 am 
     5    3   27 1  
     6    4    5 am 
     7    4    6 2  
     8    5    7 1  
     9    7    8 1  
    10    7    9 1  
    11    8   20 1  
    12    9   10 2  
    13    9   11 am 
    14   11   12 1  
    15   12   13 1  
    16   13   14 ar 
    17   13   18 ar 
    18   14   15 ar 
    19   15   16 ar 
    20   16   17 ar 
    21   16   19 1  
    22   17   18 ar 
    23   20   21 1  
    24   21   22 ar 
    25   21   26 ar 
    26   22   23 ar 
    27   23   24 ar 
    28   24   25 ar 
    29   25   26 ar 
    30   27   28 1  
    31   28   29 ar 
    32   28   33 ar 
    33   29   30 ar 
    34   30   31 ar 
    35   31   32 ar 
    36   32   33 ar 
    37   34   35 2  
    38   34   36 1  
    39   36   37 1  
    40   36   38 1  
    41   37   39 1  
    42   39   40 1  
    43   40   41 ar 
    44   40   45 ar 
    45   41   42 ar 
    46   42   43 ar 
    47   43   44 ar 
    48   44   45 ar 
    49    1   46 1  
    50    2   47 1  
    51    3   48 1  
    52    3   49 1  
    53    5   50 1  
    54    7   51 1  
    55    8   52 1  
    56    8   53 1  
    57   11   54 1  
    58   12   55 1  
    59   12   56 1  
    60   14   57 1  
    61   15   58 1  
    62   17   59 1  
    63   18   60 1  
    64   19   61 1  
    65   19   62 1  
    66   19   63 1  
    67   20   64 1  
    68   20   65 1  
    69   22   66 1  
    70   23   67 1  
    71   24   68 1  
    72   25   69 1  
    73   26   70 1  
    74   27   71 1  
    75   27   72 1  
    76   29   73 1  
    77   30   74 1  
    78   31   75 1  
    79   32   76 1  
    80   33   77 1  
    81   36   78 1  
    82   37   79 1  
    83   37   80 1  
    84   38   81 1  
    85   38   82 1  
    86   38   83 1  
    87   39   84 1  
    88   39   85 1  
    89   41   86 1  
    90   42   87 1  
    91   43   88 1  
    92   44   89 1  
    93   45   90 1  
@<TRIPOS>SUBSTRUCTURE
     1 LXT         1

