### 
### Created by X-TOOL on Mon Sep 10 21:13:07 2018
### 

@<TRIPOS>MOLECULE
3mg6_ligand
   82    85     1     0     0
SMALL
GAST_HUCK


@<TRIPOS>ATOM
      1 C1         13.9130 -135.7030   23.8450 C.ar      1 LZT        -0.0246
      2 C2         13.3750 -136.0610   25.0750 C.ar      1 LZT        -0.0249
      3 C3         14.0710 -135.7200   26.2180 C.ar      1 LZT         0.0900
      4 O4         13.5200 -136.1000   27.4020 O.3       1 LZT        -0.3193
      5 C5         14.2460 -135.4720   28.4220 C.3       1 LZT         0.0606
      6 C6         15.2780 -135.0090   26.1260 C.ar      1 LZT        -0.0333
      7 C7         15.8060 -134.6320   24.8830 C.ar      1 LZT        -0.0576
      8 C8         15.1060 -134.9770   23.7270 C.ar      1 LZT         0.0236
      9 C9         15.3220 -134.7970   22.3530 C.2       1 LZT         0.1227
     10 O10        15.9660 -133.8840   21.8380 O.2       1 LZT        -0.3878
     11 C11        14.6280 -135.9500   21.5880 C.3       1 LZT         0.0348
     12 C12        13.3690 -135.8410   22.4330 C.3       1 LZT         0.0256
     13 C13        12.2350 -136.8890   22.3930 C.3       1 LZT         0.0526
     14 C14         7.9100 -131.2320   13.2820 C.3       1 LZT        -0.0343
     15 C15         8.5870 -132.6020   13.1240 C.ar      1 LZT        -0.0528
     16 C16         8.0670 -133.7370   13.7410 C.ar      1 LZT        -0.0670
     17 C17         8.6980 -134.9640   13.5670 C.ar      1 LZT        -0.0649
     18 C18         9.8490 -135.0300   12.7720 C.ar      1 LZT        -0.0277
     19 C19        10.3590 -133.9010   12.1510 C.ar      1 LZT        -0.0649
     20 C20         9.7250 -132.6860   12.3320 C.ar      1 LZT        -0.0670
     21 C21        10.5790 -136.3520   12.5520 C.3       1 LZT         0.0615
     22 N22        11.3630 -136.6520   13.7410 N.am      1 LZT        -0.2747
     23 C23        10.8810 -137.4650   14.6650 C.2       1 LZT         0.2035
     24 O24         9.7650 -137.9870   14.5690 O.2       1 LZT        -0.3944
     25 C25        11.8250 -137.6960   15.8800 C.3       1 LZT         0.1327
     26 C26        12.5820 -139.0080   15.7310 C.3       1 LZT        -0.0027
     27 N27        11.0400 -137.7150   17.1240 N.am      1 LZT        -0.2635
     28 C28        13.4250 -139.2660   16.9850 C.3       1 LZT        -0.0149
     29 C29        11.1050 -136.7740   18.0620 C.2       1 LZT         0.2065
     30 O30        11.8310 -135.7900   18.0370 O.2       1 LZT        -0.3943
     31 C31        10.1700 -137.0320   19.2240 C.3       1 LZT         0.1564
     32 N32        10.7180 -136.6750   20.5470 N.am      1 LZT        -0.2631
     33 C33         8.8070 -136.3740   19.0170 C.3       1 LZT         0.0924
     34 O34         7.9450 -136.9120   19.9990 O.3       1 LZT        -0.3874
     35 C35         8.2200 -136.6960   17.6550 C.3       1 LZT        -0.0346
     36 C36        14.6910 -138.4150   16.9490 C.ar      1 LZT        -0.0428
     37 C37        15.5470 -138.4810   15.8420 C.ar      1 LZT        -0.0603
     38 C38        14.9830 -137.5680   18.0120 C.ar      1 LZT        -0.0603
     39 C39        16.7160 -137.7160   15.7950 C.ar      1 LZT        -0.0686
     40 C40        17.0130 -136.8740   16.8630 C.ar      1 LZT        -0.0687
     41 C41        16.1520 -136.8020   17.9590 C.ar      1 LZT        -0.0686
     42 C42        11.8070 -137.2660   21.0100 C.2       1 LZT         0.1808
     43 O43        12.4760 -138.0910   20.4000 O.2       1 LZT        -0.3967
     44 H          12.4280 -136.5972   25.1362 H         1 LZT         0.0493
     45 H          15.2892 -135.7832   28.3683 H         1 LZT         0.0580
     46 H          14.1813 -134.3908   28.2996 H         1 LZT         0.0580
     47 H          13.8304 -135.7549   29.3891 H         1 LZT         0.0580
     48 H          15.8145 -134.7452   27.0375 H         1 LZT         0.0504
     49 H          16.7442 -134.0806   24.8214 H         1 LZT         0.0628
     50 H          15.1333 -136.9139   21.5271 H         1 LZT         0.0510
     51 H          14.5367 -135.8762   20.5043 H         1 LZT         0.0510
     52 H          12.8038 -135.0165   21.9984 H         1 LZT         0.0523
     53 H          11.3706 -136.4507   22.8918 H         1 LZT         0.0531
     54 H          12.6110 -137.7922   22.8736 H         1 LZT         0.0531
     55 H           6.8915 -131.2849   12.8974 H         1 LZT         0.0378
     56 H           7.8876 -130.9587   14.3370 H         1 LZT         0.0378
     57 H           8.4723 -130.4837   12.7234 H         1 LZT         0.0378
     58 H           7.1706 -133.6641   14.3568 H         1 LZT         0.0540
     59 H           8.3024 -135.8615   14.0426 H         1 LZT         0.0540
     60 H          11.2500 -133.9702   11.5269 H         1 LZT         0.0540
     61 H          10.1195 -131.7907   11.8515 H         1 LZT         0.0540
     62 H          11.2345 -136.2745   11.6846 H         1 LZT         0.0670
     63 H           9.8577 -137.1491   12.3718 H         1 LZT         0.0670
     64 H          12.2857 -136.2343   13.8614 H         1 LZT         0.1877
     65 H          12.5470 -136.8803   15.9173 H         1 LZT         0.0801
     66 H          13.2372 -138.9495   14.8619 H         1 LZT         0.0334
     67 H          11.8695 -139.8227   15.6017 H         1 LZT         0.0334
     68 H          10.4059 -138.4992   17.2769 H         1 LZT         0.1883
     69 H          13.7026 -140.3195   17.0192 H         1 LZT         0.0428
     70 H          12.8424 -139.0039   17.8682 H         1 LZT         0.0428
     71 H          10.0457 -138.1149   19.2327 H         1 LZT         0.0826
     72 H          10.2516 -135.9644   21.1108 H         1 LZT         0.1884
     73 H           8.9175 -135.2919   19.0878 H         1 LZT         0.0639
     74 H           7.0722 -136.5234   19.9046 H         1 LZT         0.2101
     75 H           8.8932 -136.3370   16.8765 H         1 LZT         0.0257
     76 H           8.0953 -137.7747   17.5603 H         1 LZT         0.0257
     77 H           7.2513 -136.2067   17.5534 H         1 LZT         0.0257
     78 H          15.2985 -139.1366   15.0074 H         1 LZT         0.0557
     79 H          14.3140 -137.5022   18.8700 H         1 LZT         0.0557
     80 H          17.3842 -137.7778   14.9360 H         1 LZT         0.0599
     81 H          17.9199 -136.2697   16.8432 H         1 LZT         0.0559
     82 H          16.3948 -136.1373   18.7880 H         1 LZT         0.0599
@<TRIPOS>BOND
     1    1    2 ar 
     2    1    8 ar 
     3   12    1 1  
     4    2    3 ar 
     5    3    4 1  
     6    3    6 ar 
     7    4    5 1  
     8    7    6 ar 
     9    8    7 ar 
    10    9    8 1  
    11    9   10 2  
    12   11    9 1  
    13   12   11 1  
    14   13   12 1  
    15   42   13 1  
    16   15   14 1  
    17   16   15 ar 
    18   20   15 ar 
    19   17   16 ar 
    20   18   17 ar 
    21   18   19 ar 
    22   21   18 1  
    23   19   20 ar 
    24   22   21 1  
    25   23   22 am 
    26   23   24 2  
    27   25   23 1  
    28   25   26 1  
    29   27   25 1  
    30   26   28 1  
    31   29   27 am 
    32   28   36 1  
    33   29   30 2  
    34   31   29 1  
    35   32   31 1  
    36   31   33 1  
    37   32   42 am 
    38   33   34 1  
    39   33   35 1  
    40   36   37 ar 
    41   36   38 ar 
    42   37   39 ar 
    43   38   41 ar 
    44   39   40 ar 
    45   40   41 ar 
    46   42   43 2  
    47    2   44 1  
    48    5   45 1  
    49    5   46 1  
    50    5   47 1  
    51    6   48 1  
    52    7   49 1  
    53   11   50 1  
    54   11   51 1  
    55   12   52 1  
    56   13   53 1  
    57   13   54 1  
    58   14   55 1  
    59   14   56 1  
    60   14   57 1  
    61   16   58 1  
    62   17   59 1  
    63   19   60 1  
    64   20   61 1  
    65   21   62 1  
    66   21   63 1  
    67   22   64 1  
    68   25   65 1  
    69   26   66 1  
    70   26   67 1  
    71   27   68 1  
    72   28   69 1  
    73   28   70 1  
    74   31   71 1  
    75   32   72 1  
    76   33   73 1  
    77   34   74 1  
    78   35   75 1  
    79   35   76 1  
    80   35   77 1  
    81   37   78 1  
    82   38   79 1  
    83   39   80 1  
    84   40   81 1  
    85   41   82 1  
@<TRIPOS>SUBSTRUCTURE
     1 LZT         1

