### 
### Created by X-TOOL on Mon Sep 10 21:13:07 2018
### 

@<TRIPOS>MOLECULE
3mg7_ligand
   83    86     1     0     0
SMALL
GAST_HUCK


@<TRIPOS>ATOM
      1 C1          9.5750 -135.0990   12.7880 C.ar      1 L2T        -0.0193
      2 C2          8.2580 -135.1770   13.2320 C.ar      1 L2T        -0.0649
      3 C3          7.5020 -134.0220   13.4290 C.ar      1 L2T        -0.0754
      4 C4          8.0540 -132.7740   13.1740 C.ar      1 L2T        -0.0755
      5 C5          9.3680 -132.6890   12.7270 C.ar      1 L2T        -0.0671
      6 C6         10.1310 -133.8420   12.5340 C.ar      1 L2T        -0.0422
      7 C8         10.3210 -136.4200   12.5850 C.3       1 L2T         0.0621
      8 C9         11.6710 -137.5150   22.3260 C.ar      1 L2T         0.0386
      9 C10        10.5460 -137.7060   14.6490 C.2       1 L2T         0.2035
     10 O11         9.4490 -138.2430   14.5130 O.2       1 L2T        -0.3944
     11 C12        11.4540 -137.9990   15.8600 C.3       1 L2T         0.1327
     12 C13        12.1740 -139.3440   15.6820 C.3       1 L2T        -0.0027
     13 N14        10.6160 -138.0100   17.0660 N.am      1 L2T        -0.2635
     14 C15        13.0260 -139.7240   16.8910 C.3       1 L2T        -0.0149
     15 C16        10.6270 -137.0420   17.9720 C.2       1 L2T         0.2064
     16 O17        11.3400 -136.0450   17.9230 O.2       1 L2T        -0.3943
     17 C18         9.6330 -137.2810   19.1120 C.3       1 L2T         0.1558
     18 N19        10.2110 -137.0880   20.4550 N.am      1 L2T        -0.2642
     19 C20         8.3790 -136.4130   18.9510 C.3       1 L2T         0.0923
     20 O21         7.5300 -136.6460   20.0700 O.3       1 L2T        -0.3874
     21 C22        14.1860 -138.7460   17.0550 C.ar      1 L2T        -0.0428
     22 C23        14.2000 -137.8670   18.1440 C.ar      1 L2T        -0.0603
     23 C24        15.2230 -138.7320   16.1200 C.ar      1 L2T        -0.0603
     24 C25        15.2600 -136.9730   18.2870 C.ar      1 L2T        -0.0686
     25 C26        16.2940 -136.9580   17.3500 C.ar      1 L2T        -0.0687
     26 C27        16.2830 -137.8370   16.2700 C.ar      1 L2T        -0.0686
     27 C28        11.2280 -137.8180   20.9040 C.2       1 L2T         0.1991
     28 O29        11.8000 -138.6850   20.2510 O.2       1 L2T        -0.3896
     29 N30        11.0370 -136.8290   13.7910 N.am      1 L2T        -0.2749
     30 C31        11.8910 -138.5690   23.2200 C.ar      1 L2T        -0.0504
     31 C32        12.2960 -138.2860   24.5270 C.ar      1 L2T        -0.0267
     32 C33        12.4740 -136.9530   24.9260 C.ar      1 L2T         0.0994
     33 C34        12.2400 -135.9130   24.0250 C.ar      1 L2T        -0.0267
     34 C35        11.8420 -136.1920   22.7230 C.ar      1 L2T        -0.0504
     35 O36        12.8580 -136.5910   26.1830 O.3       1 L2T        -0.3020
     36 C37        13.4900 -137.5600   27.0380 C.3       1 L2T         0.1056
     37 C38        14.2290 -137.0460   28.0980 C.ar      1 L2T        -0.0126
     38 C39        15.5600 -137.4260   28.2780 C.ar      1 L2T        -0.0578
     39 C40        16.2960 -136.8900   29.3330 C.ar      1 L2T        -0.0685
     40 C41        15.6990 -135.9730   30.2020 C.ar      1 L2T        -0.0687
     41 C42        14.3680 -135.5940   30.0210 C.ar      1 L2T        -0.0685
     42 C43        13.6340 -136.1230   28.9610 C.ar      1 L2T        -0.0578
     43 C44         7.6340 -136.7490   17.6640 C.3       1 L2T        -0.0346
     44 CL7        11.7820 -133.6980   11.9840 C.3       1 L2T        -0.0336
     45 H           7.8125 -136.1523   13.4280 H         1 L2T         0.0538
     46 H           6.4744 -134.0993   13.7843 H         1 L2T         0.0541
     47 H           7.4634 -131.8700   13.3227 H         1 L2T         0.0541
     48 H           9.8068 -131.7119   12.5252 H         1 L2T         0.0537
     49 H          11.0480 -136.2836   11.7844 H         1 L2T         0.0668
     50 H           9.5911 -137.1920   12.3413 H         1 L2T         0.0668
     51 H          12.2209 -137.2295   15.9490 H         1 L2T         0.0801
     52 H          12.8367 -139.2564   14.8210 H         1 L2T         0.0334
     53 H          11.4141 -140.1149   15.5537 H         1 L2T         0.0334
     54 H           9.9929 -138.8038   17.2144 H         1 L2T         0.1883
     55 H          13.4263 -140.7267   16.7414 H         1 L2T         0.0428
     56 H          12.4053 -139.6910   17.7864 H         1 L2T         0.0428
     57 H           9.3575 -138.3329   19.0366 H         1 L2T         0.0826
     58 H           9.8166 -136.3688   21.0613 H         1 L2T         0.1874
     59 H           8.6738 -135.3649   18.8995 H         1 L2T         0.0639
     60 H           6.7380 -136.1099   19.9865 H         1 L2T         0.2101
     61 H          13.3900 -137.8813   18.8732 H         1 L2T         0.0557
     62 H          15.2045 -139.4192   15.2741 H         1 L2T         0.0557
     63 H          15.2812 -136.2847   19.1319 H         1 L2T         0.0599
     64 H          17.1170 -136.2525   17.4644 H         1 L2T         0.0559
     65 H          17.0977 -137.8260   15.5460 H         1 L2T         0.0599
     66 H          11.9529 -136.4211   13.9783 H         1 L2T         0.1876
     67 H          11.7478 -139.6010   22.8997 H         1 L2T         0.0642
     68 H          12.4728 -139.0972   25.2332 H         1 L2T         0.0557
     69 H          12.3698 -134.8787   24.3436 H         1 L2T         0.0557
     70 H          11.6650 -135.3802   22.0175 H         1 L2T         0.0642
     71 H          14.1932 -138.1090   26.4118 H         1 L2T         0.0781
     72 H          12.6864 -138.1481   27.4812 H         1 L2T         0.0781
     73 H          16.0221 -138.1395   27.5957 H         1 L2T         0.0557
     74 H          17.3349 -137.1854   29.4799 H         1 L2T         0.0599
     75 H          16.2757 -135.5515   31.0254 H         1 L2T         0.0559
     76 H          13.9036 -134.8858   30.7072 H         1 L2T         0.0599
     77 H          12.5992 -135.8175   28.8060 H         1 L2T         0.0557
     78 H           8.2890 -136.5746   16.8104 H         1 L2T         0.0257
     79 H           7.3315 -137.7960   17.6836 H         1 L2T         0.0257
     80 H           6.7507 -136.1158   17.5811 H         1 L2T         0.0257
     81 H          11.7986 -133.1988   11.0152 H         1 L2T         0.0376
     82 H          12.3542 -133.1140   12.7049 H         1 L2T         0.0376
     83 H          12.2202 -134.6916   11.8898 H         1 L2T         0.0376
@<TRIPOS>BOND
     1    1    2 ar 
     2    1    6 ar 
     3    7    1 1  
     4    2    3 ar 
     5    3    4 ar 
     6    5    4 ar 
     7    6    5 ar 
     8    6   44 1  
     9   29    7 1  
    10   27    8 1  
    11    8   30 ar 
    12    8   34 ar 
    13    9   10 2  
    14   11    9 1  
    15    9   29 am 
    16   11   12 1  
    17   13   11 1  
    18   12   14 1  
    19   15   13 am 
    20   14   21 1  
    21   15   16 2  
    22   17   15 1  
    23   18   17 1  
    24   17   19 1  
    25   18   27 am 
    26   19   20 1  
    27   19   43 1  
    28   21   22 ar 
    29   21   23 ar 
    30   22   24 ar 
    31   23   26 ar 
    32   24   25 ar 
    33   25   26 ar 
    34   27   28 2  
    35   30   31 ar 
    36   31   32 ar 
    37   32   33 ar 
    38   32   35 1  
    39   33   34 ar 
    40   35   36 1  
    41   36   37 1  
    42   37   38 ar 
    43   37   42 ar 
    44   38   39 ar 
    45   39   40 ar 
    46   40   41 ar 
    47   41   42 ar 
    48    2   45 1  
    49    3   46 1  
    50    4   47 1  
    51    5   48 1  
    52    7   49 1  
    53    7   50 1  
    54   11   51 1  
    55   12   52 1  
    56   12   53 1  
    57   13   54 1  
    58   14   55 1  
    59   14   56 1  
    60   17   57 1  
    61   18   58 1  
    62   19   59 1  
    63   20   60 1  
    64   22   61 1  
    65   23   62 1  
    66   24   63 1  
    67   25   64 1  
    68   26   65 1  
    69   29   66 1  
    70   30   67 1  
    71   31   68 1  
    72   33   69 1  
    73   34   70 1  
    74   36   71 1  
    75   36   72 1  
    76   38   73 1  
    77   39   74 1  
    78   40   75 1  
    79   41   76 1  
    80   42   77 1  
    81   43   78 1  
    82   43   79 1  
    83   43   80 1  
    84   44   81 1  
    85   44   82 1  
    86   44   83 1  
@<TRIPOS>SUBSTRUCTURE
     1 L2T         1

