### 
### Created by X-TOOL on Mon Sep 10 21:13:07 2018
### 

@<TRIPOS>MOLECULE
3mg8_ligand
   86    89     1     0     0
SMALL
GAST_HUCK


@<TRIPOS>ATOM
      1 C1         12.6880 -137.8260   25.9020 C.ar      1 L3T         0.0696
      2 N2         12.1280 -138.8630   25.2570 N.pl3     1 L3T        -0.2691
      3 C3         11.6160 -138.4400   24.0960 C.2       1 L3T         0.0501
      4 C4         11.8790 -137.1330   23.9670 C.2       1 L3T         0.0484
      5 C5         12.5270 -136.6850   25.1090 C.ar      1 L3T        -0.0083
      6 C6         13.0180 -135.4440   25.5190 C.ar      1 L3T        -0.0729
      7 C7         13.6750 -135.3450   26.7420 C.ar      1 L3T        -0.0782
      8 C8         13.8400 -136.4790   27.5430 C.ar      1 L3T        -0.0755
      9 C9         13.3510 -137.7230   27.1290 C.ar      1 L3T        -0.0416
     10 C10        11.4030 -136.2440   22.8160 C.2       1 L3T         0.2128
     11 C11        10.9610 -136.8060   21.4630 C.2       1 L3T         0.2631
     12 O12        11.2010 -135.0550   23.0350 O.2       1 L3T        -0.3595
     13 O13        11.1420 -137.9940   21.2190 O.2       1 L3T        -0.3616
     14 N14        15.8420 -138.1750   18.4000 N.ar      1 L3T        -0.3066
     15 N15        11.0010 -135.9740   14.0170 N.am      1 L3T        -0.2747
     16 C16        10.1230 -135.6670   12.9050 C.3       1 L3T         0.0622
     17 C17         9.4810 -134.3080   13.1300 C.ar      1 L3T        -0.0193
     18 C18        10.1440 -133.0790   13.0120 C.ar      1 L3T        -0.0422
     19 C19         9.4440 -131.8850   13.2320 C.ar      1 L3T        -0.0671
     20 C20         8.0950 -131.9100   13.5730 C.ar      1 L3T        -0.0755
     21 C21         7.4490 -133.1310   13.7040 C.ar      1 L3T        -0.0754
     22 C22         8.1380 -134.3190   13.4820 C.ar      1 L3T        -0.0649
     23 CL23       11.8410 -133.0000   12.6140 C.3       1 L3T        -0.0336
     24 N24        10.4470 -135.9670   20.5710 N.am      1 L3T        -0.2539
     25 C25        10.6800 -136.9100   14.8890 C.2       1 L3T         0.2057
     26 C26        11.6920 -137.0980   16.0100 C.3       1 L3T         0.1422
     27 O27         9.6330 -137.5550   14.8610 O.2       1 L3T        -0.3942
     28 C28        12.4800 -138.3820   15.8340 C.3       1 L3T         0.0287
     29 N29        10.9160 -137.1390   17.2350 N.am      1 L3T        -0.2615
     30 C30        13.6820 -138.3120   16.7500 C.ar      1 L3T        -0.0187
     31 C31        13.6460 -138.9390   17.9970 C.ar      1 L3T        -0.0322
     32 C32        14.7680 -138.8450   18.8160 C.ar      1 L3T         0.0031
     33 C33        15.9100 -137.5630   17.2180 C.ar      1 L3T         0.0031
     34 C34        14.8190 -137.6120   16.3470 C.ar      1 L3T        -0.0322
     35 C35        10.9980 -136.2100   18.1660 C.2       1 L3T         0.2065
     36 C36         9.9830 -136.4250   19.2580 C.3       1 L3T         0.1484
     37 O37        11.7360 -135.2240   18.1290 O.2       1 L3T        -0.3942
     38 C38         8.7350 -135.6340   18.8290 C.3       1 L3T         0.0776
     39 C39         7.4400 -135.8870   19.6170 C.2       1 L3T         0.1805
     40 N40         6.5800 -134.8690   19.5610 N.am      1 L3T        -0.2863
     41 O41         7.2220 -136.9460   20.2100 O.2       1 L3T        -0.3968
     42 C42         5.2670 -134.8940   20.2330 C.3       1 L3T         0.0358
     43 C43         4.1310 -134.4890   19.2700 C.3       1 L3T        -0.0176
     44 C44         4.1090 -135.4060   18.0500 C.3       1 L3T        -0.0582
     45 C45         2.7910 -134.6260   19.9830 C.3       1 L3T        -0.0582
     46 C46         4.3010 -133.0530   18.7820 C.3       1 L3T        -0.0582
     47 H          12.0980 -139.8234   25.5994 H         1 L3T         0.2324
     48 H          11.0759 -139.0551   23.3763 H         1 L3T         0.1075
     49 H          12.8884 -134.5638   24.8893 H         1 L3T         0.0538
     50 H          14.0614 -134.3820   27.0758 H         1 L3T         0.0520
     51 H          14.3549 -136.3932   28.4999 H         1 L3T         0.0534
     52 H          13.4856 -138.6036   27.7571 H         1 L3T         0.0549
     53 H          11.8758 -135.4610   14.1261 H         1 L3T         0.1876
     54 H           9.3469 -136.4290   12.8325 H         1 L3T         0.0668
     55 H          10.6994 -135.6489   11.9800 H         1 L3T         0.0668
     56 H           9.9599 -130.9297   13.1353 H         1 L3T         0.0537
     57 H           7.5512 -130.9795   13.7356 H         1 L3T         0.0541
     58 H           6.3956 -133.1595   13.9825 H         1 L3T         0.0541
     59 H           7.6168 -135.2707   13.5857 H         1 L3T         0.0538
     60 H          12.4166 -133.5240   13.3770 H         1 L3T         0.0376
     61 H          12.0078 -133.4698   11.6447 H         1 L3T         0.0376
     62 H          12.1550 -131.9570   12.5725 H         1 L3T         0.0376
     63 H          10.3731 -134.9772   20.8058 H         1 L3T         0.1897
     64 H          12.4236 -136.2901   16.0188 H         1 L3T         0.0826
     65 H          12.7985 -138.4930   14.7975 H         1 L3T         0.0500
     66 H          11.8618 -139.2442   16.0841 H         1 L3T         0.0500
     67 H          10.2786 -137.9216   17.3822 H         1 L3T         0.1885
     68 H          12.7620 -139.4881   18.3211 H         1 L3T         0.0651
     69 H          14.7678 -139.3194   19.7973 H         1 L3T         0.0803
     70 H          16.8142 -137.0258   16.9318 H         1 L3T         0.0803
     71 H          14.8554 -137.1158   15.3772 H         1 L3T         0.0651
     72 H           9.7860 -137.4904   19.3769 H         1 L3T         0.0828
     73 H           8.5247 -135.9441   17.8054 H         1 L3T         0.0551
     74 H           8.9796 -134.5840   18.9898 H         1 L3T         0.0551
     75 H           6.8414 -134.0377   19.0309 H         1 L3T         0.1851
     76 H           5.2886 -134.1838   21.0596 H         1 L3T         0.0525
     77 H           5.0776 -135.9087   20.5831 H         1 L3T         0.0525
     78 H           5.0612 -135.3326   17.5247 H         1 L3T         0.0236
     79 H           3.9492 -136.4347   18.3731 H         1 L3T         0.0236
     80 H           3.3009 -135.1033   17.3840 H         1 L3T         0.0236
     81 H           2.6519 -135.6606   20.2967 H         1 L3T         0.0236
     82 H           2.7778 -133.9750   20.8571 H         1 L3T         0.0236
     83 H           1.9883 -134.3401   19.3033 H         1 L3T         0.0236
     84 H           4.2889 -132.3764   19.6365 H         1 L3T         0.0236
     85 H           5.2512 -132.9594   18.2562 H         1 L3T         0.0236
     86 H           3.4839 -132.8012   18.1060 H         1 L3T         0.0236
@<TRIPOS>BOND
     1    1    2 1  
     2    5    1 ar 
     3    1    9 ar 
     4    3    2 1  
     5    4    3 2  
     6    4    5 1  
     7   10    4 1  
     8    5    6 ar 
     9    6    7 ar 
    10    7    8 ar 
    11    9    8 ar 
    12   11   10 1  
    13   10   12 2  
    14   11   13 2  
    15   24   11 am 
    16   32   14 ar 
    17   33   14 ar 
    18   15   16 1  
    19   25   15 am 
    20   16   17 1  
    21   17   18 ar 
    22   17   22 ar 
    23   18   19 ar 
    24   18   23 1  
    25   19   20 ar 
    26   21   20 ar 
    27   22   21 ar 
    28   36   24 1  
    29   26   25 1  
    30   25   27 2  
    31   26   28 1  
    32   29   26 1  
    33   28   30 1  
    34   35   29 am 
    35   30   31 ar 
    36   30   34 ar 
    37   31   32 ar 
    38   34   33 ar 
    39   35   36 1  
    40   35   37 2  
    41   36   38 1  
    42   38   39 1  
    43   39   40 am 
    44   39   41 2  
    45   40   42 1  
    46   42   43 1  
    47   43   44 1  
    48   43   45 1  
    49   43   46 1  
    50    2   47 1  
    51    3   48 1  
    52    6   49 1  
    53    7   50 1  
    54    8   51 1  
    55    9   52 1  
    56   15   53 1  
    57   16   54 1  
    58   16   55 1  
    59   19   56 1  
    60   20   57 1  
    61   21   58 1  
    62   22   59 1  
    63   23   60 1  
    64   23   61 1  
    65   23   62 1  
    66   24   63 1  
    67   26   64 1  
    68   28   65 1  
    69   28   66 1  
    70   29   67 1  
    71   31   68 1  
    72   32   69 1  
    73   33   70 1  
    74   34   71 1  
    75   36   72 1  
    76   38   73 1  
    77   38   74 1  
    78   40   75 1  
    79   42   76 1  
    80   42   77 1  
    81   44   78 1  
    82   44   79 1  
    83   44   80 1  
    84   45   81 1  
    85   45   82 1  
    86   45   83 1  
    87   46   84 1  
    88   46   85 1  
    89   46   86 1  
@<TRIPOS>SUBSTRUCTURE
     1 L3T         1

