### 
### Created by X-TOOL on Mon Sep 10 21:13:02 2018
### 

@<TRIPOS>MOLECULE
3mhc_ligand
   40    43     1     0     0
SMALL
GAST_HUCK


@<TRIPOS>ATOM
      1 NAA        -5.3240   -0.3420   16.1320 N.am      1 ARZ        -0.2564
      2 OAB        -6.4720    5.7780   13.4580 O.2       1 ARZ        -0.3288
      3 OAC        -5.2590    1.1530   17.9920 O.2       1 ARZ        -0.1451
      4 OAD        -7.1990    1.1260   16.5130 O.2       1 ARZ        -0.1451
      5 CAE        -3.9290    8.1600    9.7660 C.3       1 ARZ        -0.0476
      6 CAF        -6.2900    7.9740    9.2340 C.3       1 ARZ        -0.0476
      7 CAG        -5.4640    9.3840   10.8290 C.3       1 ARZ        -0.0476
      8 CAH        -4.8280    6.4280   10.5470 C.3       1 ARZ        -0.0375
      9 CAI        -3.9970    7.6910   12.0380 C.3       1 ARZ        -0.0375
     10 CAJ        -6.5030    7.6170   11.7280 C.3       1 ARZ        -0.0375
     11 NAK        -3.5310    3.5300   14.8100 N.2       1 ARZ        -0.2557
     12 NAL        -3.7320    2.3670   15.6680 N.2       1 ARZ        -0.2464
     13 NAM        -4.1090    5.2460   13.6150 N.am      1 ARZ        -0.1912
     14 SAN        -5.8590    3.4430   14.9650 S.3       1 ARZ         0.0881
     15 CAO        -5.3300    5.9360   13.1980 C.2       1 ARZ         0.2398
     16 CAP        -4.6410    4.2220   14.3480 C.2       1 ARZ         0.2264
     17 CAQ        -5.0800    2.2610   15.7990 C.2       1 ARZ         0.2567
     18 CAR        -4.9730    7.1910    9.3070 C.3       1 ARZ        -0.0410
     19 CAS        -4.1640    8.8230   11.0960 C.3       1 ARZ        -0.0410
     20 CAT        -6.6230    8.6120   10.6140 C.3       1 ARZ        -0.0410
     21 CAU        -5.2200    6.8700   11.8520 C.3       1 ARZ         0.0595
     22 SAV        -5.8480    0.8850   16.6140 S.o2      1 ARZ         0.0993
     23 H1         -4.3439   -0.5282   16.2000 H         1 ARZ         0.1638
     24 H2         -5.9348   -1.0207   15.7242 H         1 ARZ         0.1638
     25 H3         -3.8523    8.9524    9.0070 H         1 ARZ         0.0270
     26 H4         -2.9741    7.6175    9.8276 H         1 ARZ         0.0270
     27 H5         -7.1021    7.2902    8.9462 H         1 ARZ         0.0270
     28 H6         -6.1965    8.7700    8.4805 H         1 ARZ         0.0270
     29 H7         -5.3438   10.0004    9.9259 H         1 ARZ         0.0270
     30 H8         -5.6919   10.0323   11.6879 H         1 ARZ         0.0270
     31 H9         -3.7535    6.2066   10.6269 H         1 ARZ         0.0259
     32 H10        -5.3835    5.4936   10.3788 H         1 ARZ         0.0259
     33 H11        -3.9263    8.0542   13.0739 H         1 ARZ         0.0259
     34 H12        -3.0967    7.1091   11.7911 H         1 ARZ         0.0259
     35 H13        -7.3039    6.8750   11.5939 H         1 ARZ         0.0259
     36 H14        -6.6601    8.1596   12.6719 H         1 ARZ         0.0259
     37 H15        -3.1527    5.4628   13.4187 H         1 ARZ         0.2421
     38 H16        -4.7650    6.6335    8.3818 H         1 ARZ         0.0300
     39 H17        -3.4467    9.6198   11.3421 H         1 ARZ         0.0300
     40 H18        -7.5743    9.1642   10.6221 H         1 ARZ         0.0300
@<TRIPOS>BOND
     1   22    1 am 
     2   15    2 2  
     3   22    3 2  
     4   22    4 2  
     5   18    5 1  
     6   19    5 1  
     7   18    6 1  
     8   20    6 1  
     9   19    7 1  
    10   20    7 1  
    11    8   18 1  
    12   21    8 1  
    13    9   19 1  
    14   21    9 1  
    15   10   20 1  
    16   21   10 1  
    17   12   11 1  
    18   16   11 2  
    19   17   12 2  
    20   13   15 am 
    21   16   13 1  
    22   14   16 1  
    23   17   14 1  
    24   15   21 1  
    25   17   22 1  
    26    1   23 1  
    27    1   24 1  
    28    5   25 1  
    29    5   26 1  
    30    6   27 1  
    31    6   28 1  
    32    7   29 1  
    33    7   30 1  
    34    8   31 1  
    35    8   32 1  
    36    9   33 1  
    37    9   34 1  
    38   10   35 1  
    39   10   36 1  
    40   13   37 1  
    41   18   38 1  
    42   19   39 1  
    43   20   40 1  
@<TRIPOS>SUBSTRUCTURE
     1 ARZ         1

