### 
### Created by X-TOOL on Mon Sep 10 21:13:02 2018
### 

@<TRIPOS>MOLECULE
3mhi_ligand
   33    34     1     0     0
SMALL
GAST_HUCK


@<TRIPOS>ATOM
      1 N1         -0.4050    9.0720   14.6540 N.ar      1 J90        -0.2487
      2 C2         -1.5480    8.8020   15.2370 C.ar      1 J90         0.0664
      3 N3         -2.3080    7.8050   14.8250 N.ar      1 J90        -0.2568
      4 C4         -2.0290    7.0040   13.7830 C.ar      1 J90         0.1653
      5 C5         -0.8090    7.2000   13.1290 C.ar      1 J90         0.2938
      6 C6         -0.0310    8.2680   13.6220 C.ar      1 J90         0.2110
      7 N7         -2.8900    5.9360   13.4480 N.pl3     1 J90        -0.2860
      8 C8         -4.6790    4.6850   14.5560 C.ar      1 J90        -0.0203
      9 C9         -3.7050    3.6680   14.8770 C.ar      1 J90        -0.0565
     10 C10        -4.1170    2.4950   15.6060 C.ar      1 J90        -0.0419
     11 C11        -5.4610    2.3750   15.9280 C.ar      1 J90         0.1009
     12 C12        -6.3740    3.3590   15.5770 C.ar      1 J90        -0.0419
     13 C13        -6.0120    4.5490   14.8800 C.ar      1 J90        -0.0565
     14 S14        -6.0730    0.9080   16.7700 S.o2      1 J90         0.0628
     15 O15        -5.4910    0.9830   18.1410 O.2       1 J90        -0.1514
     16 O16        -7.5600    0.9250   16.6010 O.2       1 J90        -0.1514
     17 N17        -5.2930   -0.3710   16.0350 N.am      1 J90        -0.2617
     18 N18        -0.3400    6.3410   11.9530 N.2       1 J90         0.3132
     19 O19         0.7460    6.7010   11.6080 O.2       1 J90         0.1694
     20 O20        -1.1600    5.5490   11.6860 O.2       1 J90         0.1694
     21 O21         1.1570    8.5450   12.9780 O.3       1 J90        -0.3024
     22 C22        -4.2670    5.9290   13.7680 C.3       1 J90         0.0642
     23 H1         -1.8748    9.4093   16.0733 H         1 J90         0.1090
     24 H2         -2.4971    5.1257   12.9480 H         1 J90         0.1896
     25 H3         -2.6716    3.7861   14.5718 H         1 J90         0.0558
     26 H4         -3.4014    1.7329   15.8928 H         1 J90         0.0619
     27 H5         -7.4143    3.2160   15.8461 H         1 J90         0.0619
     28 H6         -6.7442    5.3047   14.6194 H         1 J90         0.0558
     29 H7         -5.4734   -1.3070   16.3372 H         1 J90         0.1634
     30 H8         -4.6452   -0.2015   15.2923 H         1 J90         0.1634
     31 H9          1.2948    7.9113   12.2837 H         1 J90         0.2603
     32 H10        -4.8465    5.9625   12.8336 H         1 J90         0.0690
     33 H11        -4.4933    6.8200   14.3720 H         1 J90         0.0690
@<TRIPOS>BOND
     1    2    1 ar 
     2    6    1 ar 
     3    3    2 ar 
     4    4    3 ar 
     5    4    5 ar 
     6    7    4 1  
     7    5    6 ar 
     8    5   18 1  
     9    6   21 1  
    10   22    7 1  
    11    8    9 ar 
    12    8   13 ar 
    13    8   22 1  
    14    9   10 ar 
    15   10   11 ar 
    16   11   12 ar 
    17   11   14 1  
    18   12   13 ar 
    19   14   15 2  
    20   14   16 2  
    21   14   17 am 
    22   18   19 2  
    23   18   20 2  
    24    2   23 1  
    25    7   24 1  
    26    9   25 1  
    27   10   26 1  
    28   12   27 1  
    29   13   28 1  
    30   17   29 1  
    31   17   30 1  
    32   21   31 1  
    33   22   32 1  
    34   22   33 1  
@<TRIPOS>SUBSTRUCTURE
     1 J90         1

