### 
### Created by X-TOOL on Mon Sep 10 21:13:02 2018
### 

@<TRIPOS>MOLECULE
3mhl_ligand
   36    37     1     0     0
SMALL
GAST_HUCK


@<TRIPOS>ATOM
      1 N1         -3.3010    9.8570   11.0590 N.ar      1 J71        -0.2485
      2 C2         -2.4370    9.1480   11.8180 C.ar      1 J71         0.0664
      3 N3         -2.7590    7.9360   12.3130 N.ar      1 J71        -0.2568
      4 C4         -3.9750    7.3920   12.0330 C.ar      1 J71         0.1653
      5 C5         -4.9080    8.1060   11.2010 C.ar      1 J71         0.2940
      6 C6         -4.5270    9.4110   10.6980 C.ar      1 J71         0.2136
      7 N7         -4.2880    6.1130   12.5700 N.pl3     1 J71        -0.2860
      8 C8         -4.0820    4.3290   14.2150 C.ar      1 J71        -0.0203
      9 C9         -5.4450    4.3270   14.5960 C.ar      1 J71        -0.0565
     10 C10        -5.8950    3.2150   15.3960 C.ar      1 J71        -0.0419
     11 C11        -5.0130    2.1350   15.6740 C.ar      1 J71         0.1009
     12 C12        -3.6740    2.1640   15.3040 C.ar      1 J71        -0.0419
     13 C13        -3.2290    3.2510   14.5370 C.ar      1 J71        -0.0565
     14 S14        -5.6340    0.8510   16.6480 S.o2      1 J71         0.0628
     15 O15        -5.1200    0.9100   17.9660 O.2       1 J71        -0.1514
     16 O16        -7.0900    0.8590   16.4600 O.2       1 J71        -0.1514
     17 N17        -4.9200   -0.4920   15.9450 N.am      1 J71        -0.2617
     18 N18        -6.2190    7.3910   10.9460 N.2       1 J71         0.3133
     19 O19        -6.2740    6.3990   10.3250 O.2       1 J71         0.1694
     20 O20        -7.3770    7.8660   11.3830 O.2       1 J71         0.1694
     21 O21        -5.2760   10.3850    9.8140 O.3       1 J71        -0.2901
     22 C22        -5.7040   11.6980   10.1900 C.3       1 J71         0.0674
     23 C23        -3.3920    5.4040   13.3930 C.3       1 J71         0.0642
     24 H1         -1.4598    9.5643   12.0345 H         1 J71         0.1090
     25 H2         -5.2012    5.6908   12.3494 H         1 J71         0.1896
     26 H3         -6.1185    5.1234   14.3005 H         1 J71         0.0558
     27 H4         -6.9064    3.2024   15.7858 H         1 J71         0.0619
     28 H5         -2.9950    1.3720   15.5986 H         1 J71         0.0619
     29 H6         -2.2046    3.2636   14.1827 H         1 J71         0.0558
     30 H7         -5.1029   -1.4045   16.3108 H         1 J71         0.1634
     31 H8         -4.3110   -0.3810   15.1596 H         1 J71         0.1634
     32 H9         -6.2227   12.1711    9.3432 H         1 J71         0.0592
     33 H10        -4.8287   12.3033   10.4683 H         1 J71         0.0592
     34 H11        -6.3896   11.6287   11.0474 H         1 J71         0.0592
     35 H12        -2.9055    6.1138   14.0782 H         1 J71         0.0690
     36 H13        -2.6310    4.9277   12.7574 H         1 J71         0.0690
@<TRIPOS>BOND
     1    2    1 ar 
     2    6    1 ar 
     3    3    2 ar 
     4    4    3 ar 
     5    4    5 ar 
     6    7    4 1  
     7    5    6 ar 
     8    5   18 1  
     9    6   21 1  
    10   23    7 1  
    11    8    9 ar 
    12    8   13 ar 
    13    8   23 1  
    14    9   10 ar 
    15   10   11 ar 
    16   11   12 ar 
    17   11   14 1  
    18   12   13 ar 
    19   14   15 2  
    20   14   16 2  
    21   14   17 am 
    22   18   19 2  
    23   18   20 2  
    24   21   22 1  
    25    2   24 1  
    26    7   25 1  
    27    9   26 1  
    28   10   27 1  
    29   12   28 1  
    30   13   29 1  
    31   17   30 1  
    32   17   31 1  
    33   22   32 1  
    34   22   33 1  
    35   22   34 1  
    36   23   35 1  
    37   23   36 1  
@<TRIPOS>SUBSTRUCTURE
     1 J71         1

