### 
### Created by X-TOOL on Mon Sep 10 21:13:02 2018
### 

@<TRIPOS>MOLECULE
3mhm_ligand
   47    49     1     0     0
SMALL
GAST_HUCK


@<TRIPOS>ATOM
      1 N1         -3.3430    9.9140   11.1210 N.ar      1 J75        -0.2599
      2 C2         -2.4220    9.2540   11.8640 C.ar      1 J75         0.0625
      3 N3         -2.7350    8.0690   12.4870 N.ar      1 J75        -0.2599
      4 C4         -3.9790    7.5080   12.3820 C.ar      1 J75         0.1614
      5 C5         -4.9710    8.1770   11.5950 C.ar      1 J75         0.2818
      6 C6         -4.6130    9.4050   10.9680 C.ar      1 J75         0.1614
      7 N7         -4.2960    6.2760   13.0470 N.pl3     1 J75        -0.2867
      8 C8         -4.0140    4.4650   14.6110 C.ar      1 J75        -0.0204
      9 C9         -3.2500    3.3330   14.9720 C.ar      1 J75        -0.0565
     10 C10        -3.8010    2.2330   15.6740 C.ar      1 J75        -0.0419
     11 C11        -5.1670    2.2300   16.0110 C.ar      1 J75         0.1009
     12 C12        -5.9770    3.3330   15.6380 C.ar      1 J75        -0.0419
     13 C13        -5.4020    4.4190   14.9140 C.ar      1 J75        -0.0565
     14 S14        -5.8090    0.7640   16.8990 S.o2      1 J75         0.0628
     15 O15        -7.3370    0.8270   16.7110 O.2       1 J75        -0.1514
     16 O16        -5.3660    0.8300   18.3050 O.2       1 J75        -0.1514
     17 N17        -5.2500   -0.4930   16.0210 N.am      1 J75        -0.2617
     18 N18        -6.3330    7.6820   11.4330 N.2       1 J75         0.3102
     19 O19        -7.0410    8.1600   10.5750 O.2       1 J75         0.1680
     20 O20        -6.8670    6.7860   12.2400 O.2       1 J75         0.1680
     21 N21        -5.6140   10.0430   10.1920 N.pl3     1 J75        -0.2867
     22 C22        -5.4700   11.3370    9.6160 C.3       1 J75         0.0641
     23 C23        -5.7580   12.6040   10.4040 C.ar      1 J75        -0.0205
     24 C24        -4.7090   13.2770   11.1040 C.ar      1 J75        -0.0584
     25 C25        -4.9420   14.5060   11.7980 C.ar      1 J75        -0.0685
     26 C26        -6.2240   15.0810   11.8120 C.ar      1 J75        -0.0687
     27 C27        -7.2800   14.4430   11.0790 C.ar      1 J75        -0.0685
     28 C28        -7.0350   13.2160   10.3780 C.ar      1 J75        -0.0584
     29 C29        -3.3440    5.6090   13.8740 C.3       1 J75         0.0641
     30 H1         -1.4248    9.6659   11.9687 H         1 J75         0.1083
     31 H2         -5.2321    5.8642   12.9243 H         1 J75         0.1894
     32 H3         -2.2008    3.3050   14.7011 H         1 J75         0.0558
     33 H4         -3.1715    1.3951   15.9510 H         1 J75         0.0619
     34 H5         -7.0282    3.3505   15.9020 H         1 J75         0.0619
     35 H6         -6.0407    5.2312   14.5860 H         1 J75         0.0558
     36 H7         -5.4633   -1.4301   16.2974 H         1 J75         0.1634
     37 H8         -4.6942   -0.3261   15.2066 H         1 J75         0.1634
     38 H9         -6.4989    9.5396   10.0356 H         1 J75         0.1894
     39 H10        -6.1356   11.3606    8.7405 H         1 J75         0.0690
     40 H11        -4.4241   11.4118    9.2836 H         1 J75         0.0690
     41 H12        -3.7143   12.8462   11.1091 H         1 J75         0.0557
     42 H13        -4.1254   14.9962   12.3157 H         1 J75         0.0599
     43 H14        -6.4124   15.9924   12.3678 H         1 J75         0.0559
     44 H15        -8.2671   14.8904   11.0550 H         1 J75         0.0599
     45 H16        -7.8391   12.7501    9.8200 H         1 J75         0.0557
     46 H17        -2.9318    6.3215   14.6037 H         1 J75         0.0690
     47 H18        -2.5306    5.2132   13.2481 H         1 J75         0.0690
@<TRIPOS>BOND
     1    2    1 ar 
     2    6    1 ar 
     3    3    2 ar 
     4    4    3 ar 
     5    4    5 ar 
     6    7    4 1  
     7    5    6 ar 
     8    5   18 1  
     9    6   21 1  
    10   29    7 1  
    11    8    9 ar 
    12    8   13 ar 
    13    8   29 1  
    14    9   10 ar 
    15   10   11 ar 
    16   11   12 ar 
    17   11   14 1  
    18   12   13 ar 
    19   14   15 2  
    20   14   16 2  
    21   14   17 am 
    22   18   19 2  
    23   18   20 2  
    24   21   22 1  
    25   22   23 1  
    26   23   24 ar 
    27   23   28 ar 
    28   24   25 ar 
    29   25   26 ar 
    30   26   27 ar 
    31   27   28 ar 
    32    2   30 1  
    33    7   31 1  
    34    9   32 1  
    35   10   33 1  
    36   12   34 1  
    37   13   35 1  
    38   17   36 1  
    39   17   37 1  
    40   21   38 1  
    41   22   39 1  
    42   22   40 1  
    43   24   41 1  
    44   25   42 1  
    45   26   43 1  
    46   27   44 1  
    47   28   45 1  
    48   29   46 1  
    49   29   47 1  
@<TRIPOS>SUBSTRUCTURE
     1 J75         1

