### 
### Created by X-TOOL on Mon Sep 10 21:13:02 2018
### 

@<TRIPOS>MOLECULE
3mho_ligand
   33    34     1     0     0
SMALL
GAST_HUCK


@<TRIPOS>ATOM
      1 N1         -0.0490    5.6030   11.8170 N.ar      1 J43        -0.2503
      2 C2         -0.8590    4.5540   11.7850 C.ar      1 J43         0.1504
      3 N3         -1.9580    4.5440   12.5220 N.ar      1 J43        -0.2359
      4 C4         -2.2890    5.5420   13.3420 C.ar      1 J43         0.1576
      5 C5         -1.4870    6.6800   13.3820 C.ar      1 J43         0.1105
      6 C6         -0.3320    6.6510   12.5930 C.ar      1 J43         0.1347
      7 N7         -3.5400    5.3740   13.9960 N.pl3     1 J43        -0.2512
      8 C8         -4.0360    4.2740   14.6180 C.ar      1 J43         0.0658
      9 C9         -3.2940    3.1230   14.8740 C.ar      1 J43        -0.0359
     10 C10        -3.8800    2.0660   15.5590 C.ar      1 J43        -0.0446
     11 C11        -5.2120    2.1550   15.9760 C.ar      1 J43         0.0965
     12 C12        -5.9480    3.3130   15.7130 C.ar      1 J43        -0.0446
     13 C13        -5.3540    4.3700   15.0350 C.ar      1 J43        -0.0359
     14 S14        -5.9210    0.8520   16.8210 S.o2      1 J43         0.0609
     15 O15        -7.4080    0.9760   16.6690 O.2       1 J43        -0.1519
     16 O16        -5.4040    0.9830   18.2170 O.2       1 J43        -0.1519
     17 N17        -5.3630   -0.6140   16.1370 N.am      1 J43        -0.2621
     18 C18        -1.8110    7.8450   14.2460 C.2       1 J43         0.1261
     19 O19        -2.6770    7.8410   15.1180 O.2       1 J43        -0.3702
     20 CL20        0.7700    7.9760   12.5910 Cl        1 J43        -0.0276
     21 S21        -0.5160    3.1410   10.7630 S.3       1 J43        -0.0602
     22 C22        -1.4540    1.7120   11.3620 C.3       1 J43         0.0024
     23 H1         -4.1546    6.2006   13.9982 H         1 J43         0.2184
     24 H2         -2.2650    3.0526   14.5405 H         1 J43         0.0539
     25 H3         -3.3047    1.1719   15.7704 H         1 J43         0.0607
     26 H4         -6.9798    3.3865   16.0371 H         1 J43         0.0607
     27 H5         -5.9220    5.2707   14.8320 H         1 J43         0.0539
     28 H6         -5.6752   -1.4891   16.5068 H         1 J43         0.1633
     29 H7         -4.7247   -0.5956   15.3674 H         1 J43         0.1633
     30 H8         -1.2438    8.7625   14.0966 H         1 J43         0.1311
     31 H9         -1.2389    0.8399   10.7270 H         1 J43         0.0374
     32 H10        -2.5300    1.9373   11.3233 H         1 J43         0.0374
     33 H11        -1.1627    1.4909   12.3994 H         1 J43         0.0374
@<TRIPOS>BOND
     1    1    2 ar 
     2    1    6 ar 
     3    2    3 ar 
     4    2   21 1  
     5    3    4 ar 
     6    4    5 ar 
     7    4    7 1  
     8    5    6 ar 
     9    5   18 1  
    10    6   20 1  
    11    7    8 1  
    12    8    9 ar 
    13    8   13 ar 
    14    9   10 ar 
    15   10   11 ar 
    16   11   12 ar 
    17   11   14 1  
    18   12   13 ar 
    19   14   15 2  
    20   14   16 2  
    21   14   17 am 
    22   18   19 2  
    23   21   22 1  
    24    7   23 1  
    25    9   24 1  
    26   10   25 1  
    27   12   26 1  
    28   13   27 1  
    29   17   28 1  
    30   17   29 1  
    31   18   30 1  
    32   22   31 1  
    33   22   32 1  
    34   22   33 1  
@<TRIPOS>SUBSTRUCTURE
     1 J43         1

