### 
### Created by X-TOOL on Mon Sep 10 21:13:03 2018
### 

@<TRIPOS>MOLECULE
3mhw_ligand
   16    17     1     0     0
SMALL
GAST_HUCK


@<TRIPOS>ATOM
      1 C1        -29.5790  -17.6000    9.0430 C.ar      1 ABV        -0.0531
      2 N1        -30.4030  -19.8040   11.6350 N.2       1 ABV        -0.3076
      3 S1        -31.6130  -19.1420    9.4990 S.3       1 ABV         0.0284
      4 C2        -28.4240  -17.0880    9.4690 C.ar      1 ABV        -0.0745
      5 N2        -32.4300  -20.9140   11.2400 N.pl3     1 ABV        -0.2934
      6 C3        -27.8510  -17.4600   10.6270 C.ar      1 ABV        -0.0756
      7 C4        -28.4280  -18.4020   11.4040 C.ar      1 ABV        -0.0632
      8 C5        -29.5950  -18.9180   11.0100 C.ar      1 ABV         0.0104
      9 C6        -30.1590  -18.4920    9.8400 C.ar      1 ABV         0.0494
     10 C7        -31.4920  -20.0710   10.8950 C.2       1 ABV         0.1827
     11 H1        -30.0210  -17.3050    8.0982 H         1 ABV         0.0557
     12 H2        -27.9276  -16.3428    8.8579 H         1 ABV         0.0534
     13 H3        -32.3307  -21.4711   12.1006 H         1 ABV         0.1896
     14 H4        -33.2683  -21.0210   10.6511 H         1 ABV         0.1896
     15 H5        -26.9199  -17.0009   10.9390 H         1 ABV         0.0546
     16 H6        -27.9564  -18.7305   12.3231 H         1 ABV         0.0536
@<TRIPOS>BOND
     1    1    4 ar 
     2    9    1 ar 
     3    2    8 1  
     4   10    2 2  
     5    3    9 1  
     6    3   10 1  
     7    4    6 ar 
     8   10    5 1  
     9    6    7 ar 
    10    7    8 ar 
    11    8    9 ar 
    12    1   11 1  
    13    4   12 1  
    14    5   13 1  
    15    5   14 1  
    16    6   15 1  
    17    7   16 1  
@<TRIPOS>SUBSTRUCTURE
     1 ABV         1

