### 
### Created by X-TOOL on Mon Sep 10 21:13:02 2018
### 

@<TRIPOS>MOLECULE
3mi3_ligand
   25    24     1     0     0
SMALL
GAST_HUCK


@<TRIPOS>ATOM
      1 N         -43.4470    9.7920  -15.3680 N.4       1 LYS         0.2327
      2 CA        -44.7910   10.0750  -15.9450 C.3       1 LYS         0.0283
      3 C         -45.6660   10.4960  -14.7860 C.2       1 LYS         0.0844
      4 O         -45.3200   10.1900  -13.6320 O.co2     1 LYS        -0.5643
      5 CB        -45.3570    8.8140  -16.6210 C.3       1 LYS         0.0026
      6 CG        -46.7800    8.9130  -17.1660 C.3       1 LYS        -0.0416
      7 CD        -47.1510    7.6200  -17.8780 C.3       1 LYS        -0.0123
      8 CE        -48.4960    7.7090  -18.5930 C.3       1 LYS        -0.0354
      9 NZ        -48.7780    6.4600  -19.4070 N.4       1 LYS         0.2185
     10 OXT       -46.7060   11.1320  -14.9620 O.co2     1 LYS        -0.5643
     11 H1        -42.8196    9.5050  -16.1028 H         1 LYS         0.2010
     12 H2        -43.5232    9.0552  -14.6844 H         1 LYS         0.2010
     13 H3        -43.0888   10.6243  -14.9265 H         1 LYS         0.2010
     14 H4        -44.7246   10.8865  -16.6846 H         1 LYS         0.1024
     15 H5        -45.3388    8.0010  -15.8803 H         1 LYS         0.0339
     16 H6        -44.6944    8.5594  -17.4613 H         1 LYS         0.0339
     17 H7        -46.8417    9.7512  -17.8757 H         1 LYS         0.0270
     18 H8        -47.4785    9.0849  -16.3339 H         1 LYS         0.0270
     19 H9        -47.1999    6.8102  -17.1351 H         1 LYS         0.0317
     20 H10       -46.3721    7.3904  -18.6200 H         1 LYS         0.0317
     21 H11       -48.4860    8.5791  -19.2658 H         1 LYS         0.0813
     22 H12       -49.2914    7.8341  -17.8436 H         1 LYS         0.0813
     23 H13       -49.6714    6.5519  -19.8647 H         1 LYS         0.1994
     24 H14       -48.7941    5.6578  -18.7969 H         1 LYS         0.1994
     25 H15       -48.0560    6.3406  -20.1002 H         1 LYS         0.1994
@<TRIPOS>BOND
     1    1    2 1  
     2    2    3 1  
     3    2    5 1  
     4    3    4 ar 
     5    3   10 ar 
     6    5    6 1  
     7    6    7 1  
     8    7    8 1  
     9    8    9 1  
    10    1   11 1  
    11    1   12 1  
    12    1   13 1  
    13    2   14 1  
    14    5   15 1  
    15    5   16 1  
    16    6   17 1  
    17    6   18 1  
    18    7   19 1  
    19    7   20 1  
    20    8   21 1  
    21    8   22 1  
    22    9   23 1  
    23    9   24 1  
    24    9   25 1  
@<TRIPOS>SUBSTRUCTURE
     1 LYS         1

