### 
### Created by X-TOOL on Mon Sep 10 21:13:03 2018
### 

@<TRIPOS>MOLECULE
3miy_ligand
   57    59     1     0     0
SMALL
GAST_HUCK


@<TRIPOS>ATOM
      1 C4         10.5610  -11.6350   -2.8360 C.3       1 B49         0.0032
      2 C5          0.8180  -11.2260   -3.0830 C.ar      1 B49        -0.0474
      3 C6          1.7270  -11.3090   -4.1250 C.ar      1 B49        -0.0482
      4 C7          2.6100  -11.2980   -1.4790 C.ar      1 B49        -0.0432
      5 C13         7.9420  -11.5120   -0.1900 C.2       1 B49        -0.0268
      6 C15         1.2570  -11.2200   -1.7640 C.ar      1 B49         0.1099
      7 C17         3.5300  -11.3890   -2.5250 C.ar      1 B49        -0.0112
      8 C20         5.0050  -11.4700   -2.5610 C.2       1 B49         0.0299
      9 C21         5.3460  -11.5420   -3.9980 C.2       1 B49         0.2046
     10 C22        10.4690  -11.5920    0.3730 C.2       1 B49         0.1771
     11 C3          7.3610  -11.4770    1.2050 C.3       1 B49        -0.0381
     12 C12         5.7950  -11.4620   -1.4240 C.2       1 B49        -0.0340
     13 C14         9.3450  -11.5880   -1.9490 C.2       1 B49         0.0723
     14 C16         3.0930  -11.3830   -3.8580 C.ar      1 B49         0.0612
     15 C18         7.2060  -11.5120   -1.3630 C.2       1 B49         0.0643
     16 C19         9.3100  -11.5650   -0.5570 C.2       1 B49         0.0573
     17 N23         8.0870  -11.5540   -2.4190 N.pl3     1 B49        -0.2702
     18 N24         4.1970  -11.4790   -4.6940 N.am      1 B49        -0.2438
     19 N25        11.6280  -12.1850    0.0040 N.am      1 B49        -0.2873
     20 O27         6.4540  -11.6450   -4.4990 O.2       1 B49        -0.3913
     21 O28        10.3710  -11.0870    1.4770 O.2       1 B49        -0.4049
     22 F29         0.3610  -11.1370   -0.7560 F         1 B49        -0.1977
     23 C171       12.7940  -12.2330    0.8970 C.3       1 B49         0.0694
     24 C181       13.6290  -10.9610    0.7200 C.3       1 B49        -0.0114
     25 N4         14.5910  -11.1470   -0.3810 N.4       1 B49         0.2363
     26 C191       14.2440  -10.4840   -1.6560 C.3       1 B49        -0.0347
     27 C201       15.9710  -10.8690    0.0440 C.3       1 B49        -0.0347
     28 C211       16.7780  -12.1710    0.0370 C.3       1 B49        -0.0245
     29 C221       13.4420   -9.1880   -1.4780 C.3       1 B49        -0.0245
     30 H1         10.2460  -11.6432   -3.8899 H         1 B49         0.0471
     31 H2         11.1383  -12.5458   -2.6189 H         1 B49         0.0471
     32 H3         11.1869  -10.7504   -2.6473 H         1 B49         0.0471
     33 H4         -0.2428  -11.1653   -3.2976 H         1 B49         0.0519
     34 H5          1.3752  -11.3164   -5.1503 H         1 B49         0.0478
     35 H6          2.9524  -11.2885   -0.4505 H         1 B49         0.0507
     36 H7          6.2634  -11.4381    1.1441 H         1 B49         0.0375
     37 H8          7.7307  -10.5862    1.7340 H         1 B49         0.0375
     38 H9          7.6660  -12.3813    1.7521 H         1 B49         0.0375
     39 H10         5.2708  -11.4116   -0.4708 H         1 B49         0.0691
     40 H11         7.8231  -11.5586   -3.4146 H         1 B49         0.2314
     41 H12         4.1443  -11.4989   -5.6924 H         1 B49         0.2226
     42 H13        11.6929  -12.6025   -0.9024 H         1 B49         0.1834
     43 H14        13.4083  -13.1115    0.6502 H         1 B49         0.0571
     44 H15        12.4534  -12.3051    1.9404 H         1 B49         0.0571
     45 H16        14.1754  -10.7498    1.6510 H         1 B49         0.0834
     46 H17        12.9639  -10.1168    0.4856 H         1 B49         0.0834
     47 H18        14.5642  -12.1334   -0.5870 H         1 B49         0.2034
     48 H19        13.6458  -11.1826   -2.2594 H         1 B49         0.0812
     49 H20        15.1764  -10.2452   -2.1885 H         1 B49         0.0812
     50 H21        15.9642  -10.4471    1.0598 H         1 B49         0.0812
     51 H22        16.4304  -10.1489   -0.6491 H         1 B49         0.0812
     52 H23        17.8106  -11.9641    0.3548 H         1 B49         0.0281
     53 H24        16.7846  -12.5928   -0.9789 H         1 B49         0.0281
     54 H25        16.3184  -12.8910    0.7301 H         1 B49         0.0281
     55 H26        13.2222   -8.7544   -2.4648 H         1 B49         0.0281
     56 H27        14.0298   -8.4715   -0.8854 H         1 B49         0.0281
     57 H28        12.4991   -9.4090   -0.9563 H         1 B49         0.0281
@<TRIPOS>BOND
     1   13    1 1  
     2    3    2 ar 
     3    6    2 ar 
     4   14    3 ar 
     5    4    6 ar 
     6    7    4 ar 
     7    5   11 1  
     8    5   15 2  
     9   16    5 1  
    10    6   22 1  
    11    8    7 1  
    12    7   14 ar 
    13    8    9 1  
    14   12    8 2  
    15    9   18 am 
    16    9   20 2  
    17   16   10 1  
    18   10   19 am 
    19   10   21 2  
    20   15   12 1  
    21   13   16 2  
    22   13   17 1  
    23   14   18 1  
    24   15   17 1  
    25   19   23 1  
    26   23   24 1  
    27   24   25 1  
    28   25   26 1  
    29   25   27 1  
    30   26   29 1  
    31   27   28 1  
    32    1   30 1  
    33    1   31 1  
    34    1   32 1  
    35    2   33 1  
    36    3   34 1  
    37    4   35 1  
    38   11   36 1  
    39   11   37 1  
    40   11   38 1  
    41   12   39 1  
    42   17   40 1  
    43   18   41 1  
    44   19   42 1  
    45   23   43 1  
    46   23   44 1  
    47   24   45 1  
    48   24   46 1  
    49   25   47 1  
    50   26   48 1  
    51   26   49 1  
    52   27   50 1  
    53   27   51 1  
    54   28   52 1  
    55   28   53 1  
    56   28   54 1  
    57   29   55 1  
    58   29   56 1  
    59   29   57 1  
@<TRIPOS>SUBSTRUCTURE
     1 B49         1

