### 
### Created by X-TOOL on Mon Sep 10 21:13:04 2018
### 

@<TRIPOS>MOLECULE
3mj2_ligand
   85    88     1     0     0
SMALL
GAST_HUCK


@<TRIPOS>ATOM
      1 C1         17.0640    1.1020   -1.2970 C.ar      1 MJG         0.0992
      2 C2         17.2080    1.8670   -2.4670 C.ar      1 MJG         0.0661
      3 C3         16.1130    1.9900   -3.3420 C.ar      1 MJG        -0.0423
      4 C4         14.9010    1.3740   -3.0430 C.ar      1 MJG         0.0256
      5 C5         14.7730    0.6220   -1.8720 C.ar      1 MJG        -0.0348
      6 C6         15.8490    0.4840   -1.0160 C.ar      1 MJG        -0.0306
      7 O7         18.1130    0.9620   -0.4400 O.3       1 MJG        -0.3216
      8 C8         17.8270    0.9430    0.9610 C.3       1 MJG         0.0596
      9 C9         18.5100    2.5080   -2.7770 C.2       1 MJG         0.1955
     10 N10        18.7650    3.8140   -2.5380 N.am      1 MJG        -0.2714
     11 O11        19.3820    1.8210   -3.2740 O.2       1 MJG        -0.3938
     12 C12        20.0900    4.3730   -2.8630 C.3       1 MJG         0.0534
     13 C13        19.9070    5.6190   -3.7370 C.3       1 MJG         0.0542
     14 N14        18.9850    6.5620   -3.0720 N.am      1 MJG        -0.2696
     15 C15        17.6760    6.0660   -2.5940 C.3       1 MJG         0.0542
     16 C16        17.7500    4.6910   -1.9260 C.3       1 MJG         0.0534
     17 C17        19.3040    7.8770   -2.9280 C.2       1 MJG         0.1755
     18 C18        20.6220    8.4330   -3.4160 C.3       1 MJG         0.0258
     19 O19        18.5260    8.6390   -2.3890 O.2       1 MJG        -0.3972
     20 S20        13.5260    1.5490   -4.1400 S.3       1 MJG        -0.0520
     21 C21        11.8230    3.6540   -3.4980 C.2       1 MJG        -0.0387
     22 C22        13.0470    3.2040   -3.8180 C.2       1 MJG         0.0822
     23 S23        14.1430    4.5720   -3.8870 S.3       1 MJG         0.0312
     24 C24        12.8250    5.6490   -3.4480 C.2       1 MJG         0.1990
     25 N25        11.7330    4.9610   -3.3180 N.2       1 MJG        -0.3369
     26 N26        12.9280    7.0280   -3.3380 N.am      1 MJG        -0.1992
     27 C27        14.1040    7.6860   -3.4790 C.2       1 MJG         0.2368
     28 C28        14.1370    9.1650   -3.4220 C.ar      1 MJG         0.0507
     29 C29        15.3560    9.8500   -3.3230 C.ar      1 MJG        -0.0477
     30 C30        15.3720   11.2330   -3.2990 C.ar      1 MJG        -0.0494
     31 C31        14.1850   11.9460   -3.3920 C.ar      1 MJG         0.0061
     32 C32        12.9750   11.2760   -3.5060 C.ar      1 MJG        -0.0494
     33 C33        12.9480    9.8930   -3.5310 C.ar      1 MJG        -0.0477
     34 O34        15.1400    7.0770   -3.6930 O.2       1 MJG        -0.3723
     35 C35        14.1970   13.4560   -3.3780 C.3       1 MJG         0.0025
     36 N36        14.6390   14.0460   -4.6670 N.4       1 MJG         0.2421
     37 C37        14.1220   13.3900   -5.8930 C.3       1 MJG        -0.0191
     38 C38        15.1790   13.3410   -7.0270 C.3       1 MJG         0.0049
     39 C39        16.2900   12.3700   -6.6240 C.3       1 MJG        -0.0550
     40 C40        14.5530   12.8360   -8.3320 C.3       1 MJG        -0.0550
     41 C41        15.8390   14.6950   -7.3090 C.3       1 MJG        -0.0550
     42 C42        13.4780   -0.0620   -1.5280 C.3       1 MJG        -0.0326
     43 C43        12.7880   14.0250   -6.3270 C.3       1 MJG        -0.0211
     44 H1         16.2137    2.5675   -4.2538 H         1 MJG         0.0572
     45 H2         15.7457   -0.1118   -0.1163 H         1 MJG         0.0477
     46 H3         18.7641    0.8250    1.5249 H         1 MJG         0.0578
     47 H4         17.1549    0.1020    1.1867 H         1 MJG         0.0578
     48 H5         17.3422    1.8874    1.2491 H         1 MJG         0.0578
     49 H6         20.6823    3.6238   -3.4088 H         1 MJG         0.0541
     50 H7         20.6120    4.6476   -1.9345 H         1 MJG         0.0541
     51 H8         19.4891    5.3244   -4.7109 H         1 MJG         0.0542
     52 H9         20.8817    6.1059   -3.8884 H         1 MJG         0.0542
     53 H10        16.9941    5.9985   -3.4545 H         1 MJG         0.0542
     54 H11        17.2762    6.7860   -1.8648 H         1 MJG         0.0542
     55 H12        17.9990    4.8291   -0.8635 H         1 MJG         0.0541
     56 H13        16.7670    4.2048   -2.0121 H         1 MJG         0.0541
     57 H14        20.6686    9.5103   -3.1984 H         1 MJG         0.0467
     58 H15        20.7078    8.2741   -4.5011 H         1 MJG         0.0467
     59 H16        21.4489    7.9194   -2.9037 H         1 MJG         0.0467
     60 H17        10.9659    2.9902   -3.3942 H         1 MJG         0.0362
     61 H18        12.1015    7.5575   -3.1470 H         1 MJG         0.2379
     62 H19        16.2860    9.2960   -3.2653 H         1 MJG         0.0652
     63 H20        16.3141   11.7612   -3.2073 H         1 MJG         0.0572
     64 H21        12.0500   11.8369   -3.5755 H         1 MJG         0.0572
     65 H22        12.0029    9.3724   -3.6353 H         1 MJG         0.0652
     66 H23        14.8811   13.7935   -2.5855 H         1 MJG         0.0990
     67 H24        13.1794   13.8124   -3.1604 H         1 MJG         0.0990
     68 H25        15.6457   14.0046   -4.6962 H         1 MJG         0.2031
     69 H26        14.3416   15.0090   -4.6836 H         1 MJG         0.2031
     70 H27        13.9031   12.3450   -5.6284 H         1 MJG         0.0853
     71 H28        17.0464   12.3269   -7.4215 H         1 MJG         0.0237
     72 H29        15.8631   11.3682   -6.4691 H         1 MJG         0.0237
     73 H30        16.7596   12.7167   -5.6917 H         1 MJG         0.0237
     74 H31        13.7494   13.5202   -8.6420 H         1 MJG         0.0237
     75 H32        14.1372   11.8299   -8.1740 H         1 MJG         0.0237
     76 H33        15.3230   12.7955   -9.1165 H         1 MJG         0.0237
     77 H34        16.2966   15.0792   -6.3855 H         1 MJG         0.0237
     78 H35        15.0792   15.4062   -7.6651 H         1 MJG         0.0237
     79 H36        16.6150   14.5715   -8.0788 H         1 MJG         0.0237
     80 H37        12.7328    0.1499   -2.3088 H         1 MJG         0.0386
     81 H38        13.1116    0.3117   -0.5605 H         1 MJG         0.0386
     82 H39        13.6426   -1.1477   -1.4632 H         1 MJG         0.0386
     83 H40        12.4226   13.5250   -7.2361 H         1 MJG         0.0284
     84 H41        12.9409   15.0946   -6.5331 H         1 MJG         0.0284
     85 H42        12.0475   13.9089   -5.5219 H         1 MJG         0.0284
@<TRIPOS>BOND
     1    1    2 ar 
     2    1    6 ar 
     3    1    7 1  
     4    2    3 ar 
     5    2    9 1  
     6    3    4 ar 
     7    4    5 ar 
     8    4   20 1  
     9    5    6 ar 
    10    5   42 1  
    11    7    8 1  
    12    9   10 am 
    13    9   11 2  
    14   10   12 1  
    15   10   16 1  
    16   12   13 1  
    17   13   14 1  
    18   14   15 1  
    19   14   17 am 
    20   15   16 1  
    21   17   18 1  
    22   17   19 2  
    23   20   22 1  
    24   22   21 2  
    25   21   25 1  
    26   22   23 1  
    27   23   24 1  
    28   24   25 2  
    29   24   26 1  
    30   26   27 am 
    31   27   28 1  
    32   27   34 2  
    33   28   29 ar 
    34   28   33 ar 
    35   29   30 ar 
    36   30   31 ar 
    37   31   32 ar 
    38   31   35 1  
    39   32   33 ar 
    40   35   36 1  
    41   36   37 1  
    42   37   38 1  
    43   37   43 1  
    44   38   39 1  
    45   38   40 1  
    46   38   41 1  
    47    3   44 1  
    48    6   45 1  
    49    8   46 1  
    50    8   47 1  
    51    8   48 1  
    52   12   49 1  
    53   12   50 1  
    54   13   51 1  
    55   13   52 1  
    56   15   53 1  
    57   15   54 1  
    58   16   55 1  
    59   16   56 1  
    60   18   57 1  
    61   18   58 1  
    62   18   59 1  
    63   21   60 1  
    64   26   61 1  
    65   29   62 1  
    66   30   63 1  
    67   32   64 1  
    68   33   65 1  
    69   35   66 1  
    70   35   67 1  
    71   36   68 1  
    72   36   69 1  
    73   37   70 1  
    74   39   71 1  
    75   39   72 1  
    76   39   73 1  
    77   40   74 1  
    78   40   75 1  
    79   40   76 1  
    80   41   77 1  
    81   41   78 1  
    82   41   79 1  
    83   42   80 1  
    84   42   81 1  
    85   42   82 1  
    86   43   83 1  
    87   43   84 1  
    88   43   85 1  
@<TRIPOS>SUBSTRUCTURE
     1 MJG         1

