### 
### Created by X-TOOL on Mon Sep 10 21:13:02 2018
### 

@<TRIPOS>MOLECULE
3mjl_ligand
   11    11     1     0     0
SMALL
GAST_HUCK


@<TRIPOS>ATOM
      1 CG         -3.4140  -24.2900   -4.8630 C.2       1 2AI         0.0189
      2 CD2        -2.1770  -24.7370   -4.5510 C.2       1 2AI        -0.0470
      3 NE2        -1.3180  -24.0180   -5.3340 N.2       1 2AI        -0.3337
      4 CE1        -1.9830  -23.1690   -6.0880 C.2       1 2AI         0.2013
      5 ND1        -3.2740  -23.3280   -5.8340 N.pl3     1 2AI        -0.2503
      6 NT         -1.3620  -22.2890   -6.9900 N.pl3     1 2AI        -0.2969
      7 H1         -4.3509  -24.6304   -4.4246 H         1 2AI         0.0740
      8 H2         -1.9189  -25.5086   -3.8272 H         1 2AI         0.0379
      9 H3         -4.0436  -22.8161   -6.2885 H         1 2AI         0.2348
     10 H4         -0.3357  -22.2806   -7.0774 H         1 2AI         0.1804
     11 H5         -1.9330  -21.6522   -7.5639 H         1 2AI         0.1804
@<TRIPOS>BOND
     1    1    2 2  
     2    1    5 1  
     3    2    3 1  
     4    3    4 2  
     5    4    5 1  
     6    4    6 1  
     7    1    7 1  
     8    2    8 1  
     9    5    9 1  
    10    6   10 1  
    11    6   11 1  
@<TRIPOS>SUBSTRUCTURE
     1 2AI         1

