### 
### Created by X-TOOL on Mon Sep 10 21:13:02 2018
### 

@<TRIPOS>MOLECULE
3mkn_ligand
   35    36     1     0     0
SMALL
GAST_HUCK


@<TRIPOS>ATOM
      1 O2'        29.1690    3.7880   33.6030 O.3       1 DNB        -0.3815
      2 C2'        27.7760    3.4440   33.7790 C.3       1 DNB         0.1363
      3 C3'        27.5870    2.2670   34.7420 C.3       1 DNB         0.1323
      4 O3'        28.7830    1.4840   34.8640 O.3       1 DNB        -0.3832
      5 C1'        27.1530    3.0000   32.4520 C.3       1 DNB         0.0320
      6 N4'        26.7350    1.6380   32.7260 N.4       1 DNB         0.2470
      7 C4'        26.5480    1.3480   34.1270 C.3       1 DNB         0.0318
      8 C5'        25.1330    1.6520   34.6620 C.3       1 DNB         0.0894
      9 O5'        24.1120    0.9050   33.9870 O.3       1 DNB        -0.3894
     10 C1         25.8820    3.6570   32.0970 C.ar      1 DNB        -0.0178
     11 C6         25.3120    3.3050   30.8700 C.ar      1 DNB        -0.0800
     12 C5         24.0870    3.8480   30.4770 C.ar      1 DNB        -0.0620
     13 C4         23.4300    4.7450   31.3250 C.ar      1 DNB         0.0475
     14 C3         23.9900    5.0910   32.5630 C.ar      1 DNB         0.0482
     15 N3         23.3510    5.9700   33.3880 N.pl3     1 DNB        -0.3429
     16 C2         25.2200    4.5450   32.9560 C.ar      1 DNB        -0.0487
     17 N4         22.2390    5.2630   30.9180 N.pl3     1 DNB        -0.3454
     18 H          29.5467    4.0325   34.4511 H         1 DNB         0.2104
     19 H          27.3010    4.3424   34.1731 H         1 DNB         0.0699
     20 H          27.3068    2.6617   35.7186 H         1 DNB         0.0681
     21 H          29.4935    2.0369   35.1974 H         1 DNB         0.2102
     22 H          27.8758    3.1976   31.6604 H         1 DNB         0.1016
     23 H          27.4740    1.0221   32.3870 H         1 DNB         0.2034
     24 H          25.8343    1.5013   32.2673 H         1 DNB         0.2034
     25 H          26.6564    0.2883   34.3582 H         1 DNB         0.0900
     26 H          24.9348    2.7114   34.4991 H         1 DNB         0.0614
     27 H          25.1078    1.3752   35.7160 H         1 DNB         0.0614
     28 H          24.2746   -0.0339   34.1028 H         1 DNB         0.2097
     29 H          25.8273    2.6019   30.2156 H         1 DNB         0.0414
     30 H          23.6469    3.5751   29.5179 H         1 DNB         0.0457
     31 H          23.7685    6.2252   34.2830 H         1 DNB         0.1680
     32 H          22.4558    6.3719   33.1098 H         1 DNB         0.1680
     33 H          25.6569    4.8082   33.9193 H         1 DNB         0.0417
     34 H          21.8480    4.9945   30.0150 H         1 DNB         0.1660
     35 H          21.7374    5.9197   31.5160 H         1 DNB         0.1660
@<TRIPOS>BOND
     1    1    2 1  
     2    2    3 1  
     3    2    5 1  
     4    3    4 1  
     5    3    7 1  
     6    5    6 1  
     7    5   10 1  
     8    6    7 1  
     9    7    8 1  
    10    8    9 1  
    11   10   11 ar 
    12   10   16 ar 
    13   11   12 ar 
    14   12   13 ar 
    15   13   14 ar 
    16   13   17 1  
    17   14   15 1  
    18   14   16 ar 
    19    1   18 1  
    20    2   19 1  
    21    3   20 1  
    22    4   21 1  
    23    5   22 1  
    24    6   23 1  
    25    6   24 1  
    26    7   25 1  
    27    8   26 1  
    28    8   27 1  
    29    9   28 1  
    30   11   29 1  
    31   12   30 1  
    32   15   31 1  
    33   15   32 1  
    34   16   33 1  
    35   17   34 1  
    36   17   35 1  
@<TRIPOS>SUBSTRUCTURE
     1 DNB         1

