### 
### Created by X-TOOL on Mon Sep 10 21:13:04 2018
### 

@<TRIPOS>MOLECULE
3mks_ligand
   38    41     1     0     0
SMALL
GAST_HUCK


@<TRIPOS>ATOM
      1 C1        171.3980   34.3160  -52.1780 C.ar      1 C1C        -0.0603
      2 C2        170.7940   35.1430  -53.1080 C.ar      1 C1C        -0.0529
      3 C3        171.4000   35.3260  -54.3500 C.ar      1 C1C        -0.0153
      4 C4        172.6200   34.6450  -54.6670 C.ar      1 C1C        -0.0060
      5 C5        173.2050   33.7990  -53.7110 C.ar      1 C1C        -0.0520
      6 C6        172.5980   33.6510  -52.4740 C.ar      1 C1C        -0.0602
      7 C7        170.7700   36.1640  -55.2780 C.ar      1 C1C        -0.0513
      8 C8        171.3890   36.3120  -56.5240 C.ar      1 C1C        -0.0471
      9 C9        172.5930   35.6460  -56.8290 C.ar      1 C1C         0.0186
     10 C10       173.2270   34.7880  -55.9250 C.ar      1 C1C         0.0075
     11 C11       174.4300   34.0990  -56.1690 C.ar      1 C1C         0.0075
     12 C12       175.6580   34.7700  -56.0510 C.ar      1 C1C        -0.0060
     13 C13       176.8530   34.1010  -56.2260 C.ar      1 C1C        -0.0153
     14 C14       176.8650   32.7470  -56.5150 C.ar      1 C1C        -0.0513
     15 C15       175.6670   32.0560  -56.6300 C.ar      1 C1C        -0.0471
     16 C16       174.4650   32.7260  -56.4590 C.ar      1 C1C         0.0186
     17 C17       175.7020   36.1290  -55.7350 C.ar      1 C1C        -0.0520
     18 C18       176.9080   36.8010  -55.6360 C.ar      1 C1C        -0.0602
     19 C19       178.1200   36.1220  -55.8330 C.ar      1 C1C        -0.0603
     20 C20       178.0720   34.7690  -56.1140 C.ar      1 C1C        -0.0529
     21 C21       173.2310   31.8710  -56.5780 C.2       1 C1C         0.0632
     22 O22       173.2510   30.7740  -55.9170 O.co2     1 C1C        -0.5609
     23 O23       172.2770   32.3330  -57.2520 O.co2     1 C1C        -0.5609
     24 C24       173.1690   35.8640  -58.1930 C.2       1 C1C         0.0632
     25 O25       173.3060   34.8500  -58.8830 O.co2     1 C1C        -0.5609
     26 O26       173.4250   37.0070  -58.5590 O.co2     1 C1C        -0.5609
     27 H         170.9351   34.1788  -51.2008 H         1 C1C         0.0624
     28 H         169.8558   35.6454  -52.8725 H         1 C1C         0.0626
     29 H         174.1269   33.2643  -53.9395 H         1 C1C         0.0630
     30 H         173.0581   33.0103  -51.7217 H         1 C1C         0.0621
     31 H         169.8388   36.6782  -55.0403 H         1 C1C         0.0630
     32 H         170.9304   36.9559  -57.2745 H         1 C1C         0.0643
     33 H         177.8123   32.2255  -56.6517 H         1 C1C         0.0630
     34 H         175.6709   30.9893  -56.8542 H         1 C1C         0.0643
     35 H         174.7713   36.6698  -55.5634 H         1 C1C         0.0630
     36 H         176.9163   37.8658  -55.4032 H         1 C1C         0.0621
     37 H         179.0731   36.6467  -55.7664 H         1 C1C         0.0624
     38 H         179.0014   34.2160  -56.2501 H         1 C1C         0.0626
@<TRIPOS>BOND
     1    1    2 ar 
     2    1    6 ar 
     3    2    3 ar 
     4    3    4 ar 
     5    3    7 ar 
     6    4    5 ar 
     7    4   10 ar 
     8    5    6 ar 
     9    7    8 ar 
    10    8    9 ar 
    11    9   10 ar 
    12    9   24 1  
    13   10   11 1  
    14   11   12 ar 
    15   11   16 ar 
    16   12   13 ar 
    17   12   17 ar 
    18   13   14 ar 
    19   13   20 ar 
    20   14   15 ar 
    21   15   16 ar 
    22   16   21 1  
    23   17   18 ar 
    24   18   19 ar 
    25   19   20 ar 
    26   21   22 ar 
    27   21   23 ar 
    28   24   25 ar 
    29   24   26 ar 
    30    1   27 1  
    31    2   28 1  
    32    5   29 1  
    33    6   30 1  
    34    7   31 1  
    35    8   32 1  
    36   14   33 1  
    37   15   34 1  
    38   17   35 1  
    39   18   36 1  
    40   19   37 1  
    41   20   38 1  
@<TRIPOS>SUBSTRUCTURE
     1 C1C         1

