### 
### Created by X-TOOL on Mon Sep 10 21:13:06 2018
### 

@<TRIPOS>MOLECULE
3ml2_ligand
   43    45     1     0     0
SMALL
GAST_HUCK


@<TRIPOS>ATOM
      1 C1         -5.0750    2.6800   15.6910 C.ar      1 SU0         0.0924
      2 N1         -5.1060    0.0910   15.9930 N.am      1 SU0        -0.2626
      3 O1         -7.2100    1.4060   16.5130 O.2       1 SU0        -0.1524
      4 S1         -5.7980    1.3740   16.6360 S.o2      1 SU0         0.0591
      5 C2         -3.6170    2.5500   15.4460 C.ar      1 SU0        -0.0490
      6 O2         -5.3030    1.5770   17.9740 O.2       1 SU0        -0.1524
      7 C3         -2.9840    3.5100   14.7140 C.ar      1 SU0        -0.0394
      8 O3         -4.5980    6.9030   12.8100 O.2       1 SU0        -0.3809
      9 C4         -3.7540    4.6400   14.1870 C.ar      1 SU0         0.0665
     10 O4         -0.0880    9.6640   15.4990 O.2       1 SU0        -0.3875
     11 C5         -5.1170    4.7650   14.3780 C.ar      1 SU0        -0.0394
     12 C6         -5.8110    3.7190   15.1860 C.ar      1 SU0        -0.0490
     13 C7         -3.4100    6.5970   12.6710 C.2       1 SU0         0.2183
     14 N7         -2.8850    5.5470   13.4810 N.am      1 SU0        -0.2318
     15 C8         -2.3820    7.3990   11.8870 C.3       1 SU0         0.0818
     16 C9         -1.9770    8.6050   12.6850 C.2       1 SU0        -0.0091
     17 C10        -1.2240    8.5340   13.8610 C.2       1 SU0         0.0097
     18 C11        -0.7760    9.7090   14.4830 C.2       1 SU0         0.2454
     19 O12        -1.0070   11.0000   14.0250 O.3       1 SU0        -0.2166
     20 C13        -1.8970   11.0920   12.9230 C.ar      1 SU0         0.1351
     21 C14        -2.3480   12.4460   12.5520 C.ar      1 SU0         0.0085
     22 C15        -3.2370   12.6170   11.5220 C.ar      1 SU0         0.0910
     23 C16        -3.8100   11.4060   10.8330 C.ar      1 SU0        -0.0348
     24 C17        -3.4090   10.1370   11.1830 C.ar      1 SU0        -0.0590
     25 C18        -2.4270    9.9600   12.2890 C.ar      1 SU0         0.0253
     26 O19        -3.6180   13.9110   11.1190 O.3       1 SU0        -0.3192
     27 C20        -2.7720   15.0800   11.2160 C.3       1 SU0         0.0608
     28 H1         -5.3281   -0.8217   16.3361 H         1 SU0         0.1633
     29 H2         -4.4495    0.1984   15.2463 H         1 SU0         0.1633
     30 H3         -3.0647    1.7057   15.8425 H         1 SU0         0.0596
     31 H4         -1.9193    3.4381   14.5232 H         1 SU0         0.0503
     32 H5         -5.6659    5.5979   13.9537 H         1 SU0         0.0503
     33 H6         -6.8776    3.7806   15.3696 H         1 SU0         0.0596
     34 H7         -1.8941    5.4381   13.5605 H         1 SU0         0.2259
     35 H8         -2.8196    7.7216   10.9308 H         1 SU0         0.0705
     36 H9         -1.4983    6.7733   11.6933 H         1 SU0         0.0705
     37 H10        -0.9847    7.5644   14.2951 H         1 SU0         0.0418
     38 H11        -1.9761   13.3077   13.0944 H         1 SU0         0.0489
     39 H12        -4.5487   11.5361   10.0504 H         1 SU0         0.0493
     40 H13        -3.8040    9.2743   10.6588 H         1 SU0         0.0617
     41 H14        -3.3137   15.9574   10.8330 H         1 SU0         0.0581
     42 H15        -1.8604   14.9233   10.6207 H         1 SU0         0.0581
     43 H16        -2.4985   15.2485   12.2681 H         1 SU0         0.0581
@<TRIPOS>BOND
     1    1    4 1  
     2    5    1 ar 
     3   12    1 ar 
     4    4    2 am 
     5    4    3 2  
     6    4    6 2  
     7    7    5 ar 
     8    9    7 ar 
     9   13    8 2  
    10    9   11 ar 
    11   14    9 1  
    12   18   10 2  
    13   11   12 ar 
    14   13   14 am 
    15   15   13 1  
    16   16   15 1  
    17   17   16 2  
    18   16   25 1  
    19   17   18 1  
    20   18   19 1  
    21   19   20 1  
    22   20   21 ar 
    23   20   25 ar 
    24   21   22 ar 
    25   22   23 ar 
    26   22   26 1  
    27   23   24 ar 
    28   24   25 ar 
    29   26   27 1  
    30    2   28 1  
    31    2   29 1  
    32    5   30 1  
    33    7   31 1  
    34   11   32 1  
    35   12   33 1  
    36   14   34 1  
    37   15   35 1  
    38   15   36 1  
    39   17   37 1  
    40   21   38 1  
    41   23   39 1  
    42   24   40 1  
    43   27   41 1  
    44   27   42 1  
    45   27   43 1  
@<TRIPOS>SUBSTRUCTURE
     1 SU0         1

