### 
### Created by X-TOOL on Mon Sep 10 21:13:05 2018
### 

@<TRIPOS>MOLECULE
3ml5_ligand
   19    19     1     0     0
SMALL
GAST_HUCK


@<TRIPOS>ATOM
      1 C1         -2.5460   -2.7960   19.6090 C.2       1 AZM         0.2562
      2 C2         -4.5190   -2.4240   20.8150 C.2       1 AZM         0.2252
      3 C3         -6.6040   -1.1100   20.9090 C.2       1 AZM         0.2120
      4 C4         -7.7590   -0.8200   21.8100 C.3       1 AZM         0.0337
      5 N1          0.1220   -2.4650   19.3250 N.am      1 AZM        -0.2565
      6 N2         -3.7630   -3.3400   21.3670 N.2       1 AZM        -0.2573
      7 N3         -2.6110   -3.5520   20.6560 N.2       1 AZM        -0.2476
      8 N4         -5.7180   -2.0670   21.3910 N.am      1 AZM        -0.1925
      9 O1         -1.0470   -4.2190   18.1030 O.2       1 AZM        -0.1452
     10 O2         -1.4030   -1.8260   17.5280 O.2       1 AZM        -0.1452
     11 O3         -6.4290   -0.5650   19.8370 O.2       1 AZM        -0.3804
     12 S1         -1.1590   -2.8480   18.4960 S.o2      1 AZM         0.0991
     13 S2         -3.8800   -1.7330   19.3570 S.3       1 AZM         0.0874
     14 H1         -8.4014   -0.0558   21.3482 H         1 AZM         0.0474
     15 H2         -7.3862   -0.4502   22.7766 H         1 AZM         0.0474
     16 H3         -8.3402   -1.7403   21.9689 H         1 AZM         0.0474
     17 H4          1.0163   -2.4356   18.8784 H         1 AZM         0.1638
     18 H5          0.0420   -2.2509   20.2985 H         1 AZM         0.1638
     19 H6         -5.9751   -2.5398   22.2338 H         1 AZM         0.2411
@<TRIPOS>BOND
     1    1    7 2  
     2    1   12 1  
     3   13    1 1  
     4    2    6 2  
     5    8    2 1  
     6    2   13 1  
     7    3    4 1  
     8    3    8 am 
     9    3   11 2  
    10   12    5 am 
    11    6    7 1  
    12   12    9 2  
    13   12   10 2  
    14    4   14 1  
    15    4   15 1  
    16    4   16 1  
    17    5   17 1  
    18    5   18 1  
    19    8   19 1  
@<TRIPOS>SUBSTRUCTURE
     1 AZM         1

