### 
### Created by X-TOOL on Mon Sep 10 21:13:03 2018
### 

@<TRIPOS>MOLECULE
3mlb_ligand
   66    68     1     0     0
SMALL
GAST_HUCK


@<TRIPOS>ATOM
      1 OAA        11.7270  -28.7330  -12.2270 O.2       1 LJZ        -0.3796
      2 OAB        20.9760  -39.4560  -16.1250 O.2       1 LJZ        -0.3796
      3 OAC        10.0640  -33.0340  -11.0130 O.2       1 LJZ        -0.3845
      4 OAD        16.3510  -40.3750  -17.0120 O.2       1 LJZ        -0.3845
      5 CLAE        8.0930  -34.6060  -13.1910 Cl        1 LJZ        -0.0830
      6 CLAF       14.7670  -42.1090  -15.0220 Cl        1 LJZ        -0.0830
      7 CAG        15.3930  -30.9800  -13.9760 C.2       1 LJZ         0.0308
      8 CAH        19.1470  -35.4090  -14.4940 C.2       1 LJZ         0.0308
      9 CAI         5.3510  -34.9910  -10.2510 C.ar      1 LJZ        -0.0766
     10 CAJ        14.1480  -45.0660  -17.6660 C.ar      1 LJZ        -0.0766
     11 CAK         5.4030  -33.6970   -9.5940 C.ar      1 LJZ        -0.0753
     12 CAL        15.3830  -45.1910  -18.2900 C.ar      1 LJZ        -0.0753
     13 CAM         6.1910  -35.2520  -11.3750 C.ar      1 LJZ        -0.0616
     14 CAN        13.9640  -44.1030  -16.6440 C.ar      1 LJZ        -0.0616
     15 CAO         6.2970  -32.6610  -10.0660 C.ar      1 LJZ        -0.0406
     16 CAP        16.4680  -44.3610  -17.9040 C.ar      1 LJZ        -0.0406
     17 CAQ        17.6990  -31.8700  -14.2120 C.ar      1 LJZ        -0.0602
     18 CAR        18.5930  -32.9540  -14.3370 C.ar      1 LJZ        -0.0602
     19 CAS        15.8760  -33.4830  -14.1370 C.ar      1 LJZ        -0.0602
     20 CAT        16.7750  -34.5790  -14.2710 C.ar      1 LJZ        -0.0602
     21 CAU        11.5370  -31.0930  -12.2860 C.3       1 LJZ         0.0633
     22 CAV        18.6160  -39.1500  -15.9700 C.3       1 LJZ         0.0633
     23 CAW        10.1440  -30.7760  -11.7620 C.3       1 LJZ         0.0607
     24 CAX        18.6810  -40.5490  -16.5800 C.3       1 LJZ         0.0607
     25 NAY        14.3640  -31.0190  -13.1770 N.2       1 LJZ        -0.1838
     26 NAZ        18.9300  -36.5640  -15.0800 N.2       1 LJZ        -0.1838
     27 NBA        13.3780  -30.1280  -13.4340 N.am      1 LJZ        -0.1657
     28 NBB        20.0550  -37.3360  -15.2370 N.am      1 LJZ        -0.1657
     29 NBC         8.0020  -31.8220  -11.6040 N.am      1 LJZ        -0.2328
     30 NBD        17.4370  -42.5790  -16.5190 N.am      1 LJZ        -0.2328
     31 CBE        12.3600  -29.8490  -12.5990 C.2       1 LJZ         0.2254
     32 CBF        20.0400  -38.5630  -15.8160 C.2       1 LJZ         0.2254
     33 CBG         9.3210  -32.0490  -11.5240 C.2       1 LJZ         0.2062
     34 CBH        17.3120  -41.2280  -16.6510 C.2       1 LJZ         0.2062
     35 CBI        16.3500  -32.1340  -14.1030 C.ar      1 LJZ        -0.0209
     36 CBJ        18.1280  -34.3030  -14.3720 C.ar      1 LJZ        -0.0209
     37 CBK         7.0770  -34.2380  -11.8390 C.ar      1 LJZ         0.0594
     38 CBL        15.0330  -43.2800  -16.2620 C.ar      1 LJZ         0.0594
     39 CBM         7.1190  -32.8990  -11.1590 C.ar      1 LJZ         0.0804
     40 CBN        16.3030  -43.4150  -16.8960 C.ar      1 LJZ         0.0804
     41 H1         15.5655  -30.0840  -14.5704 H         1 LJZ         0.0709
     42 H2         20.1332  -35.2371  -14.0653 H         1 LJZ         0.0709
     43 H3          4.6754  -35.7573   -9.8884 H         1 LJZ         0.0488
     44 H4         13.3246  -45.7061  -17.9616 H         1 LJZ         0.0488
     45 H5          4.7644  -33.5045   -8.7395 H         1 LJZ         0.0579
     46 H6         15.5187  -45.9258  -19.0753 H         1 LJZ         0.0579
     47 H7          6.1549  -36.2148  -11.8718 H         1 LJZ         0.0583
     48 H8         12.9999  -44.0025  -16.1587 H         1 LJZ         0.0583
     49 H9          6.3246  -31.6996   -9.5661 H         1 LJZ         0.0502
     50 H10        17.4285  -44.4641  -18.3959 H         1 LJZ         0.0502
     51 H11        18.0652  -30.8498  -14.2018 H         1 LJZ         0.0590
     52 H12        19.6568  -32.7581  -14.4081 H         1 LJZ         0.0590
     53 H13        14.8119  -33.6747  -14.0593 H         1 LJZ         0.0590
     54 H14        16.4107  -35.5997  -14.2933 H         1 LJZ         0.0590
     55 H15        11.4372  -31.6865  -13.2067 H         1 LJZ         0.0534
     56 H16        12.0704  -31.6825  -11.5258 H         1 LJZ         0.0534
     57 H17        18.1386  -39.2075  -14.9807 H         1 LJZ         0.0534
     58 H18        18.0230  -38.4956  -16.6258 H         1 LJZ         0.0534
     59 H19         9.6216  -30.1467  -12.4976 H         1 LJZ         0.0533
     60 H20        10.2369  -30.2294  -10.8120 H         1 LJZ         0.0533
     61 H21        19.3499  -41.1697  -15.9657 H         1 LJZ         0.0533
     62 H22        19.0874  -40.4697  -17.5991 H         1 LJZ         0.0533
     63 H23        13.4081  -29.6419  -14.3074 H         1 LJZ         0.2550
     64 H24        20.9282  -36.9761  -14.9084 H         1 LJZ         0.2550
     65 H25         7.6394  -30.9572  -11.9515 H         1 LJZ         0.2262
     66 H26        18.2827  -42.9855  -16.1733 H         1 LJZ         0.2262
@<TRIPOS>BOND
     1   31    1 2  
     2   32    2 2  
     3   33    3 2  
     4   34    4 2  
     5   37    5 1  
     6   38    6 1  
     7    7   25 2  
     8   35    7 1  
     9   26    8 2  
    10    8   36 1  
    11   11    9 ar 
    12    9   13 ar 
    13   12   10 ar 
    14   10   14 ar 
    15   15   11 ar 
    16   16   12 ar 
    17   13   37 ar 
    18   14   38 ar 
    19   39   15 ar 
    20   40   16 ar 
    21   18   17 ar 
    22   17   35 ar 
    23   36   18 ar 
    24   20   19 ar 
    25   19   35 ar 
    26   36   20 ar 
    27   21   23 1  
    28   31   21 1  
    29   24   22 1  
    30   22   32 1  
    31   23   33 1  
    32   34   24 1  
    33   25   27 1  
    34   28   26 1  
    35   27   31 am 
    36   32   28 am 
    37   33   29 am 
    38   29   39 1  
    39   30   34 am 
    40   30   40 1  
    41   37   39 ar 
    42   38   40 ar 
    43    7   41 1  
    44    8   42 1  
    45    9   43 1  
    46   10   44 1  
    47   11   45 1  
    48   12   46 1  
    49   13   47 1  
    50   14   48 1  
    51   15   49 1  
    52   16   50 1  
    53   17   51 1  
    54   18   52 1  
    55   19   53 1  
    56   20   54 1  
    57   21   55 1  
    58   21   56 1  
    59   22   57 1  
    60   22   58 1  
    61   23   59 1  
    62   23   60 1  
    63   24   61 1  
    64   24   62 1  
    65   27   63 1  
    66   28   64 1  
    67   29   65 1  
    68   30   66 1  
@<TRIPOS>SUBSTRUCTURE
     1 LJZ         1

