### 
### Created by X-TOOL on Mon Sep 10 21:13:05 2018
### 

@<TRIPOS>MOLECULE
3mmf_ligand
   35    36     1     0     0
SMALL
GAST_HUCK


@<TRIPOS>ATOM
      1 C1         -5.3320    2.0580   15.7700 C.ar      1 D9H         0.0966
      2 N1         -5.4280   -0.5910   16.0780 N.am      1 D9H        -0.2621
      3 O1         -7.3950    0.8770   16.6480 O.2       1 D9H        -0.1519
      4 S1         -5.9260    0.7330   16.7560 S.o2      1 D9H         0.0609
      5 C2         -6.1360    3.0940   15.3830 C.ar      1 D9H        -0.0444
      6 O2         -5.3620    0.9630   18.0380 O.2       1 D9H        -0.1519
      7 C3         -5.6090    4.2180   14.5900 C.ar      1 D9H        -0.0356
      8 C4         -4.2870    4.1770   14.2510 C.ar      1 D9H         0.0680
      9 C5         -3.4210    3.0800   14.6580 C.ar      1 D9H        -0.0356
     10 C6         -3.9240    2.0480   15.3760 C.ar      1 D9H        -0.0444
     11 N7         -3.6130    5.1780   13.5450 N.pl3     1 D9H        -0.2392
     12 C8         -4.1860    6.1400   12.7300 C.ar      1 D9H         0.2045
     13 N9         -3.3100    6.9740   12.1470 N.ar      1 D9H        -0.2177
     14 C10        -3.7650    7.9520   11.3660 C.ar      1 D9H         0.1854
     15 N11        -2.8540    8.8520   10.7410 N.pl3     1 D9H        -0.2844
     16 N12        -5.0790    8.1110   11.2030 N.ar      1 D9H        -0.2280
     17 C13        -5.9240    7.2630   11.7920 C.ar      1 D9H         0.1804
     18 CL13       -7.5810    7.5300   11.6110 Cl        1 D9H        -0.0062
     19 N14        -5.4980    6.2740   12.5730 N.ar      1 D9H        -0.2250
     20 C15        -1.4510    8.5490   10.7320 C.3       1 D9H         0.0559
     21 C16        -1.1510    7.7510    9.5020 C.3       1 D9H         0.0650
     22 O17         0.1540    7.2910    9.5320 O.3       1 D9H        -0.3929
     23 H1         -5.6576   -1.4765   16.4819 H         1 D9H         0.1633
     24 H2         -4.8810   -0.5495   15.2419 H         1 D9H         0.1633
     25 H3         -7.1825    3.0881   15.6655 H         1 D9H         0.0608
     26 H4         -6.2441    5.0430   14.2883 H         1 D9H         0.0540
     27 H5         -2.3718    3.0893   14.3859 H         1 D9H         0.0540
     28 H6         -3.2857    1.2182   15.6574 H         1 D9H         0.0608
     29 H7         -2.5877    5.2024   13.6406 H         1 D9H         0.2211
     30 H8         -3.2003    9.7151   10.2982 H         1 D9H         0.1898
     31 H9         -1.1908    7.9649   11.6270 H         1 D9H         0.0552
     32 H10        -0.8689    9.4823   10.7211 H         1 D9H         0.0552
     33 H11        -1.2912    8.3860    8.6148 H         1 D9H         0.0578
     34 H12        -1.8368    6.8925    9.4506 H         1 D9H         0.0578
     35 H13         0.3291    6.7871    8.7459 H         1 D9H         0.2095
@<TRIPOS>BOND
     1    1    4 1  
     2    1    5 ar 
     3    1   10 ar 
     4    4    2 am 
     5    4    3 2  
     6    4    6 2  
     7    5    7 ar 
     8    7    8 ar 
     9    8    9 ar 
    10    8   11 1  
    11    9   10 ar 
    12   11   12 1  
    13   12   13 ar 
    14   12   19 ar 
    15   13   14 ar 
    16   14   15 1  
    17   14   16 ar 
    18   15   20 1  
    19   16   17 ar 
    20   17   18 1  
    21   17   19 ar 
    22   20   21 1  
    23   21   22 1  
    24    2   23 1  
    25    2   24 1  
    26    5   25 1  
    27    7   26 1  
    28    9   27 1  
    29   10   28 1  
    30   11   29 1  
    31   15   30 1  
    32   20   31 1  
    33   20   32 1  
    34   21   33 1  
    35   21   34 1  
    36   22   35 1  
@<TRIPOS>SUBSTRUCTURE
     1 D9H         1

