### 
### Created by X-TOOL on Mon Sep 10 21:13:04 2018
### 

@<TRIPOS>MOLECULE
3mn8_ligand
   27    26     1     0     0
SMALL
GAST_HUCK


@<TRIPOS>ATOM
      1 C8          3.7030  -15.2060  -29.7450 C.3       1 GEM         0.0691
      2 S7          4.0450  -14.8320  -28.0480 S.3       1 GEM        -0.1372
      3 C6          3.8220  -13.0760  -28.0520 C.3       1 GEM         0.0288
      4 C5          2.4710  -12.6290  -28.6060 C.3       1 GEM         0.0716
      5 N3          1.4510  -13.0280  -27.6490 N.pl3     1 GEM        -0.2715
      6 C1          0.1340  -12.9850  -27.8200 C.cat     1 GEM         0.2883
      7 N4         -0.6810  -13.3850  -26.8520 N.pl3     1 GEM        -0.2849
      8 N2         -0.3750  -12.5450  -28.9660 N.pl3     1 GEM        -0.2849
      9 C9          3.6060  -16.7040  -29.8610 C.2       1 GEM         0.0494
     10 O14         3.8700  -17.3920  -28.8500 O.co2     1 GEM        -0.5677
     11 O15         3.2590  -17.2080  -30.9500 O.co2     1 GEM        -0.5677
     12 C10         4.7390  -14.6190  -30.7180 C.3       1 GEM         0.0237
     13 C11         6.1430  -15.2090  -30.6690 C.2       1 GEM         0.0375
     14 O12         7.1050  -14.4050  -30.6030 O.co2     1 GEM        -0.5689
     15 O13         6.3030  -16.4550  -30.7330 O.co2     1 GEM        -0.5689
     16 H           2.7638  -14.7354  -30.0357 H         1 GEM         0.0597
     17 H           4.5937  -12.6513  -28.6940 H         1 GEM         0.0412
     18 H           3.8773  -12.7385  -27.0171 H         1 GEM         0.0412
     19 H           2.2852  -13.0914  -29.5754 H         1 GEM         0.0697
     20 H           2.4569  -11.5485  -28.7492 H         1 GEM         0.0697
     21 H           1.7822  -13.3784  -26.7502 H         1 GEM         0.2642
     22 H          -1.6911  -13.3535  -26.9902 H         1 GEM         0.2615
     23 H          -0.2973  -13.7239  -25.9698 H         1 GEM         0.2615
     24 H          -1.3861  -12.5163  -29.0973 H         1 GEM         0.2615
     25 H           0.2454  -12.2360  -29.7143 H         1 GEM         0.2615
     26 H           4.8465  -13.5700  -30.4422 H         1 GEM         0.0459
     27 H           4.3615  -14.8299  -31.7186 H         1 GEM         0.0459
@<TRIPOS>BOND
     1    1    2 1  
     2    1    9 1  
     3    1   12 1  
     4    2    3 1  
     5    3    4 1  
     6    4    5 1  
     7    5    6 ar 
     8    6    7 ar 
     9    6    8 ar 
    10    9   10 ar 
    11    9   11 ar 
    12   12   13 1  
    13   13   14 ar 
    14   13   15 ar 
    15    1   16 1  
    16    3   17 1  
    17    3   18 1  
    18    4   19 1  
    19    4   20 1  
    20    5   21 1  
    21    7   22 1  
    22    7   23 1  
    23    8   24 1  
    24    8   25 1  
    25   12   26 1  
    26   12   27 1  
@<TRIPOS>SUBSTRUCTURE
     1 GEM         1

