### 
### Created by X-TOOL on Mon Sep 10 21:13:05 2018
### 

@<TRIPOS>MOLECULE
3mna_ligand
   37    38     1     0     0
SMALL
GAST_HUCK


@<TRIPOS>ATOM
      1 C1         -5.2200    2.6390   15.7540 C.ar      1 DWH         0.0966
      2 N1         -5.3950   -0.0150   16.0790 N.am      1 DWH        -0.2621
      3 O1         -7.3310    1.5100   16.6350 O.2       1 DWH        -0.1519
      4 S1         -5.8860    1.3350   16.7470 S.o2      1 DWH         0.0609
      5 C2         -6.1000    3.7450   15.2940 C.ar      1 DWH        -0.0444
      6 O2         -5.3270    1.5240   18.0710 O.2       1 DWH        -0.1519
      7 C3         -5.6000    4.7620   14.5530 C.ar      1 DWH        -0.0356
      8 C4         -4.1780    4.7370   14.2180 C.ar      1 DWH         0.0680
      9 C5         -3.3630    3.7420   14.6190 C.ar      1 DWH        -0.0356
     10 C6         -3.8970    2.6560   15.4170 C.ar      1 DWH        -0.0444
     11 N7         -3.5240    5.7510   13.5140 N.pl3     1 DWH        -0.2392
     12 C8         -4.1280    6.6130   12.6130 C.ar      1 DWH         0.2045
     13 N9         -3.2450    7.6020   12.1200 N.ar      1 DWH        -0.2176
     14 C10        -3.7080    8.4890   11.3030 C.ar      1 DWH         0.1876
     15 N11        -2.8580    9.5030   10.8120 N.pl3     1 DWH        -0.2666
     16 N12        -5.0700    8.4840   10.9340 N.ar      1 DWH        -0.2279
     17 C13        -5.8540    7.5600   11.4100 C.ar      1 DWH         0.1804
     18 CL13       -7.4770    7.5490   10.9190 Cl        1 DWH        -0.0062
     19 N14        -5.3860    6.5770   12.3180 N.ar      1 DWH        -0.2250
     20 C15        -1.4510    9.3600   11.0240 C.3       1 DWH         0.1332
     21 C16        -0.9020    8.5610    9.8920 C.2       1 DWH         0.2570
     22 C17         0.7800    7.9600    8.4800 C.3       1 DWH         0.0658
     23 O17         0.3040    8.6850    9.5590 O.3       1 DWH        -0.2786
     24 O18        -1.6470    7.7850    9.2350 O.2       1 DWH        -0.3681
     25 H1         -5.6558   -0.8941   16.4781 H         1 DWH         0.1633
     26 H2         -4.8243    0.0119   15.2583 H         1 DWH         0.1633
     27 H3         -7.1523    3.7373   15.5543 H         1 DWH         0.0608
     28 H4         -6.2371    5.5724   14.2176 H         1 DWH         0.0540
     29 H5         -2.3139    3.7534   14.3465 H         1 DWH         0.0540
     30 H6         -3.2445    1.8557   15.7469 H         1 DWH         0.0608
     31 H7         -2.5137    5.8669   13.6775 H         1 DWH         0.2211
     32 H8         -3.2395   10.3212   10.3160 H         1 DWH         0.1928
     33 H9         -1.2663    8.8388   11.9749 H         1 DWH         0.0789
     34 H10        -0.9733   10.3505   11.0499 H         1 DWH         0.0789
     35 H11         1.8458    8.1858    8.3280 H         1 DWH         0.0577
     36 H12         0.2149    8.2332    7.5767 H         1 DWH         0.0577
     37 H13         0.6576    6.8849    8.6779 H         1 DWH         0.0577
@<TRIPOS>BOND
     1    1    4 1  
     2    1    5 ar 
     3    1   10 ar 
     4    4    2 am 
     5    4    3 2  
     6    4    6 2  
     7    5    7 ar 
     8    7    8 ar 
     9    8    9 ar 
    10    8   11 1  
    11    9   10 ar 
    12   11   12 1  
    13   12   13 ar 
    14   12   19 ar 
    15   13   14 ar 
    16   14   15 1  
    17   14   16 ar 
    18   15   20 1  
    19   16   17 ar 
    20   17   18 1  
    21   17   19 ar 
    22   20   21 1  
    23   21   23 1  
    24   21   24 2  
    25   23   22 1  
    26    2   25 1  
    27    2   26 1  
    28    5   27 1  
    29    7   28 1  
    30    9   29 1  
    31   10   30 1  
    32   11   31 1  
    33   15   32 1  
    34   20   33 1  
    35   20   34 1  
    36   22   35 1  
    37   22   36 1  
    38   22   37 1  
@<TRIPOS>SUBSTRUCTURE
     1 DWH         1

