### 
### Created by X-TOOL on Fri Sep 26 17:34:46 2014
### 

@<TRIPOS>MOLECULE
3moe_ligand
   12    11     1     0     0
SMALL
GAST_HUCK


@<TRIPOS>ATOM
      1 C1          0.8050   -2.1970    9.8180 C.2       1 SPV         0.1264
      2 O1          0.4200   -1.0160    9.9320 O.co2     1 SPV        -0.5464
      3 O2'         2.0370   -2.5260    9.9950 O.co2     1 SPV        -0.5464
      4 C2         -0.1160   -3.1840    9.4940 C.2       1 SPV         0.1893
      5 C3          0.3710   -4.7010    9.2470 C.3       1 SPV         0.1133
      6 O2         -1.3480   -2.9350    9.3130 O.2       1 SPV        -0.3561
      7 S           0.8920   -5.0010    7.5910 S.o2      1 SPV        -0.1746
      8 O1S         1.5000   -6.2730    7.6760 O.co2     1 SPV        -0.4823
      9 O2S         1.8350   -3.9530    7.2490 O.co2     1 SPV        -0.4823
     10 O3S        -0.3240   -5.0280    6.7620 O.co2     1 SPV        -0.4823
     11 H1         -0.4639   -5.3785    9.4791 H         1 SPV         0.0706
     12 H2          1.2132   -4.9123    9.9222 H         1 SPV         0.0706
@<TRIPOS>BOND
     1    1    2 ar 
     2    1    3 ar 
     3    1    4 1  
     4    4    5 1  
     5    4    6 2  
     6    5    7 1  
     7    7    8 ar 
     8    7    9 ar 
     9    7   10 ar 
    10    5   11 1  
    11    5   12 1  
@<TRIPOS>SUBSTRUCTURE
     1 SPV         1

