### 
### Created by X-TOOL on Sun Sep  9 21:51:14 2018
### 

@<TRIPOS>MOLECULE
3mof_ligand
    6     5     1     0     0
SMALL
GAST_HUCK


@<TRIPOS>ATOM
      1 C1         10.3750    2.8750   46.4510 C.2       1 NON         0.0999
      2 C2          9.5370    1.9960   45.6140 C.2       1 NON         0.0999
      3 O1         10.6530    4.0480   46.0740 O.co2     1 NON        -0.5500
      4 O2          9.3900    0.7770   45.9560 O.co2     1 NON        -0.5500
      5 O3         10.7860    2.3980   47.5410 O.co2     1 NON        -0.5500
      6 O4          8.9910    2.4980   44.5930 O.co2     1 NON        -0.5500
@<TRIPOS>BOND
     1    1    2 1  
     2    1    3 ar 
     3    1    5 ar 
     4    2    4 ar 
     5    2    6 ar 
@<TRIPOS>SUBSTRUCTURE
     1 NON         1

