### 
### Created by X-TOOL on Mon Sep 10 21:13:06 2018
### 

@<TRIPOS>MOLECULE
3mp6_ligand
   79    78     1     0     0
SMALL
GAST_HUCK


@<TRIPOS>ATOM
      1 N         -42.3320    7.5900  -27.0590 N.4       1 ALA         0.2377
      2 CA        -41.2030    8.4440  -26.5890 C.3       1 ALA         0.0621
      3 C         -40.8360    9.4780  -27.6450 C.2       1 ALA         0.2264
      4 O         -41.2310    9.3480  -28.8040 O.2       1 ALA        -0.3907
      5 CB        -39.9980    7.5740  -26.2380 C.3       1 ALA        -0.0040
      6 N         -40.1150   10.5180  -27.2400 N.am      1 ARG        -0.2610
      7 CA        -39.5390   11.4480  -28.2090 C.3       1 ARG         0.1312
      8 C         -38.2900   10.7980  -28.7910 C.2       1 ARG         0.2040
      9 O         -37.4950   10.2110  -28.0520 O.2       1 ARG        -0.3944
     10 CB        -39.1890   12.7800  -27.5510 C.3       1 ARG        -0.0092
     11 CG        -40.3730   13.5110  -26.9390 C.3       1 ARG        -0.0156
     12 CD        -39.9700   14.9290  -26.5730 C.3       1 ARG         0.0627
     13 NE        -41.0900   15.6700  -26.0000 N.pl3     1 ARG        -0.2723
     14 CZ        -42.0040   16.3340  -26.7060 C.cat     1 ARG         0.2882
     15 NH1       -41.9490   16.3710  -28.0350 N.pl3     1 ARG        -0.2849
     16 NH2       -42.9800   16.9670  -26.0760 N.pl3     1 ARG        -0.2849
     17 N         -38.1220   10.8860  -30.1120 N.am      1 THR        -0.2613
     18 CA        -37.0060   10.2190  -30.8080 C.3       1 THR         0.1564
     19 C         -36.1080   11.1820  -31.5970 C.2       1 THR         0.2059
     20 O         -36.4250   12.3670  -31.7250 O.2       1 THR        -0.3943
     21 CB        -37.5210    9.1400  -31.7760 C.3       1 THR         0.0924
     22 OG1       -38.3700    9.7500  -32.7580 O.3       1 THR        -0.3874
     23 CG2       -38.2840    8.0700  -31.0330 C.3       1 THR        -0.0346
     24 N         -34.8320   10.6130  -32.0340 N.am      1 MLY        -0.2694
     25 CA        -33.9210   11.4370  -32.8410 C.3       1 MLY         0.0944
     26 CB        -32.4780   11.1850  -32.3990 C.3       1 MLY        -0.0177
     27 CG        -31.7460   10.2880  -33.3990 C.3       1 MLY        -0.0446
     28 CD        -30.5740    9.5650  -32.7320 C.3       1 MLY        -0.0124
     29 CE        -29.4110    9.3870  -33.7100 C.3       1 MLY        -0.0324
     30 NZ        -28.6690    8.1640  -33.3730 N.4       1 MLY         0.2309
     31 CH1       -29.5740    7.0080  -33.4340 C.3       1 MLY        -0.0433
     32 CH2       -28.1170    8.2840  -32.0160 C.3       1 MLY        -0.0433
     33 C         -34.0740   11.0700  -34.3190 C.2       1 MLY         0.0601
     34 O         -35.1420   10.6490  -34.7600 O.co2     1 MLY        -0.5666
     35 O1        -33.0907   11.2012  -35.0958 O.co2     1 MLY        -0.5666
     36 H1        -42.5600    6.9131  -26.3477 H         1 ALA         0.2015
     37 H2        -42.0621    7.1114  -27.9041 H         1 ALA         0.2015
     38 H3        -43.1369    8.1683  -27.2427 H         1 ALA         0.2015
     39 H4        -41.5234    8.9762  -25.6812 H         1 ALA         0.1095
     40 H5        -39.1722    8.2135  -25.8930 H         1 ALA         0.0310
     41 H6        -39.6794    7.0124  -27.1285 H         1 ALA         0.0310
     42 H7        -40.2744    6.8696  -25.4397 H         1 ALA         0.0310
     43 H8        -39.9650   10.6658  -26.2624 H         1 ARG         0.1884
     44 H9        -40.2658   11.6309  -29.0142 H         1 ARG         0.0800
     45 H10       -38.7394   13.4325  -28.3140 H         1 ARG         0.0313
     46 H11       -38.4551   12.5875  -26.7545 H         1 ARG         0.0313
     47 H12       -40.7017   12.9798  -26.0336 H         1 ARG         0.0301
     48 H13       -41.1981   13.5421  -27.6658 H         1 ARG         0.0301
     49 H14       -39.6238   15.4478  -27.4790 H         1 ARG         0.0689
     50 H15       -39.1529   14.8904  -25.8376 H         1 ARG         0.0689
     51 H16       -41.1801   15.6801  -24.9740 H         1 ARG         0.2642
     52 H17       -42.6637   16.8890  -28.5658 H         1 ARG         0.2615
     53 H18       -41.1917   15.8816  -28.5329 H         1 ARG         0.2615
     54 H19       -43.0296   16.9432  -25.0475 H         1 ARG         0.2615
     55 H20       -43.6903   17.4837  -26.6140 H         1 ARG         0.2615
     56 H21       -38.7745   11.4220  -30.6477 H         1 THR         0.1884
     57 H22       -36.3866    9.7307  -30.0412 H         1 THR         0.0826
     58 H23       -36.6615    8.6757  -32.2817 H         1 THR         0.0639
     59 H24       -38.6888    9.0847  -33.3565 H         1 THR         0.2101
     60 H25       -38.6408    7.3121  -31.7459 H         1 THR         0.0257
     61 H26       -39.1442    8.5232  -30.5186 H         1 THR         0.0257
     62 H27       -37.6229    7.5949  -30.2932 H         1 THR         0.0257
     63 H28       -34.5836    9.6764  -31.7868 H         1 MLY         0.1875
     64 H29       -34.1668   12.4999  -32.7003 H         1 MLY         0.0726
     65 H30       -32.4840   10.6952  -31.4141 H         1 MLY         0.0305
     66 H31       -31.9508   12.1477  -32.3266 H         1 MLY         0.0305
     67 H32       -31.3641   10.9066  -34.2245 H         1 MLY         0.0269
     68 H33       -32.4503    9.5417  -33.7954 H         1 MLY         0.0269
     69 H34       -30.9101    8.5754  -32.3890 H         1 MLY         0.0317
     70 H35       -30.2313   10.1552  -31.8693 H         1 MLY         0.0317
     71 H36       -28.7382   10.2545  -33.6411 H         1 MLY         0.0814
     72 H37       -29.8028    9.3072  -34.7347 H         1 MLY         0.0814
     73 H38       -27.9164    8.0360  -34.0313 H         1 MLY         0.2028
     74 H39       -29.0177    6.0932  -33.1816 H         1 MLY         0.0777
     75 H40       -29.9860    6.9181  -34.4499 H         1 MLY         0.0777
     76 H41       -30.3957    7.1473  -32.7161 H         1 MLY         0.0777
     77 H42       -27.4396    9.1495  -31.9710 H         1 MLY         0.0777
     78 H43       -27.5603    7.3693  -31.7644 H         1 MLY         0.0777
     79 H44       -28.9379    8.4231  -31.2972 H         1 MLY         0.0777
@<TRIPOS>BOND
     1    1    2 1  
     2    2    3 1  
     3    2    5 1  
     4    3    4 2  
     5    3    6 am 
     6    6    7 1  
     7    7    8 1  
     8    7   10 1  
     9    8    9 2  
    10    8   17 am 
    11   10   11 1  
    12   11   12 1  
    13   12   13 1  
    14   13   14 ar 
    15   14   15 ar 
    16   14   16 ar 
    17   17   18 1  
    18   18   19 1  
    19   18   21 1  
    20   19   20 2  
    21   19   24 am 
    22   21   22 1  
    23   21   23 1  
    24   24   25 1  
    25   25   26 1  
    26   25   33 1  
    27   26   27 1  
    28   27   28 1  
    29   28   29 1  
    30   29   30 1  
    31   30   31 1  
    32   30   32 1  
    33   33   34 ar 
    34   33   35 ar 
    35    1   36 1  
    36    1   37 1  
    37    1   38 1  
    38    2   39 1  
    39    5   40 1  
    40    5   41 1  
    41    5   42 1  
    42    6   43 1  
    43    7   44 1  
    44   10   45 1  
    45   10   46 1  
    46   11   47 1  
    47   11   48 1  
    48   12   49 1  
    49   12   50 1  
    50   13   51 1  
    51   15   52 1  
    52   15   53 1  
    53   16   54 1  
    54   16   55 1  
    55   17   56 1  
    56   18   57 1  
    57   21   58 1  
    58   22   59 1  
    59   23   60 1  
    60   23   61 1  
    61   23   62 1  
    62   24   63 1  
    63   25   64 1  
    64   26   65 1  
    65   26   66 1  
    66   27   67 1  
    67   27   68 1  
    68   28   69 1  
    69   28   70 1  
    70   29   71 1  
    71   29   72 1  
    72   30   73 1  
    73   31   74 1  
    74   31   75 1  
    75   31   76 1  
    76   32   77 1  
    77   32   78 1  
    78   32   79 1  
@<TRIPOS>SUBSTRUCTURE
     1 ALA         1

