### 
### Created by X-TOOL on Mon Sep 10 21:13:02 2018
### 

@<TRIPOS>MOLECULE
3mpm_ligand
   56    60     1     0     0
SMALL
GAST_HUCK


@<TRIPOS>ATOM
      1 N1         24.6870    9.6500   51.4490 N.ar      1 5LK        -0.1774
      2 N2         25.9150    9.3540   50.9360 N.pl3     1 5LK        -0.1759
      3 C3         26.6370   10.3950   50.8150 C.2       1 5LK         0.1228
      4 C5         25.8180   11.5150   51.3210 C.2       1 5LK         0.0811
      5 C6         24.6630   10.9320   51.7140 C.ar      1 5LK         0.1456
      6 N7         23.4910   11.5300   52.3120 N.ar      1 5LK        -0.2679
      7 C8         22.5310   10.7910   52.7290 C.ar      1 5LK         0.0392
      8 C10        22.6640    9.3290   52.4820 C.ar      1 5LK         0.0811
      9 C11        23.7270    8.8310   51.7920 C.ar      1 5LK         0.1843
     10 N12        23.9550    7.5550   51.5150 N.pl3     1 5LK        -0.2968
     11 C15        21.5350    8.4950   53.0140 C.ar      1 5LK         0.0122
     12 C16        21.8240    7.8230   54.2230 C.ar      1 5LK        -0.0405
     13 C18        20.8580    7.0210   54.8150 C.ar      1 5LK        -0.0123
     14 C20        19.5960    6.9170   54.2090 C.ar      1 5LK         0.1117
     15 C21        19.2960    7.6000   53.0050 C.ar      1 5LK        -0.0123
     16 C23        20.2790    8.3910   52.4020 C.ar      1 5LK        -0.0405
     17 O25        18.6440    6.1160   54.8220 O.3       1 5LK        -0.3171
     18 C27        26.2360   12.9720   51.3990 C.ar      1 5LK        -0.0028
     19 C28        27.5350   13.3580   51.0020 C.ar      1 5LK        -0.0258
     20 C30        27.9680   14.6930   51.0920 C.ar      1 5LK         0.0525
     21 C31        27.0660   15.6430   51.5830 C.ar      1 5LK        -0.0304
     22 C33        25.7780   15.2940   51.9940 C.ar      1 5LK        -0.0582
     23 C35        25.3650   13.9530   51.9010 C.ar      1 5LK        -0.0514
     24 N37        29.2810   15.1130   50.6720 N.pl3     1 5LK        -0.2960
     25 C38        30.3270   14.0690   50.5900 C.3       1 5LK         0.0675
     26 C41        31.7380   14.6790   50.3250 C.3       1 5LK        -0.0119
     27 N44        31.7450   15.5040   49.0860 N.4       1 5LK         0.2359
     28 C45        30.7210   16.5760   49.1240 C.3       1 5LK        -0.0119
     29 C48        29.3230   15.9910   49.4720 C.3       1 5LK         0.0675
     30 C51        33.1210   16.0000   48.8020 C.3       1 5LK        -0.0430
     31 H1         26.2207    8.4048   50.6781 H         1 5LK         0.2808
     32 H2         27.6503   10.4489   50.4197 H         1 5LK         0.1495
     33 H3         21.6678   11.2082   53.2348 H         1 5LK         0.0870
     34 H4         23.2499    6.8426   51.7522 H         1 5LK         0.1955
     35 H5         24.8372    7.2759   51.0626 H         1 5LK         0.1955
     36 H6         22.7975    7.9335   54.6869 H         1 5LK         0.0699
     37 H7         21.0747    6.4834   55.7310 H         1 5LK         0.0618
     38 H8         18.3138    7.5104   52.5552 H         1 5LK         0.0618
     39 H9         20.0725    8.9153   51.4759 H         1 5LK         0.0699
     40 H10        17.8850    6.6421   55.0447 H         1 5LK         0.2586
     41 H11        28.2155   12.6065   50.6183 H         1 5LK         0.0555
     42 H12        27.3759   16.6798   51.6462 H         1 5LK         0.0636
     43 H13        25.1033   16.0491   52.3808 H         1 5LK         0.0625
     44 H14        24.3669   13.6742   52.2191 H         1 5LK         0.0614
     45 H15        30.0779   13.3796   49.7698 H         1 5LK         0.0568
     46 H16        30.3518   13.5150   51.5400 H         1 5LK         0.0568
     47 H17        32.4670   13.8625   50.2162 H         1 5LK         0.0834
     48 H18        32.0211   15.3120   51.1789 H         1 5LK         0.0834
     49 H19        31.4922   14.8953   48.3234 H         1 5LK         0.2032
     50 H20        30.6729   17.0641   48.1394 H         1 5LK         0.0834
     51 H21        31.0022   17.3167   49.8871 H         1 5LK         0.0834
     52 H22        28.6356   16.8326   49.6427 H         1 5LK         0.0568
     53 H23        28.9763   15.4036   48.6090 H         1 5LK         0.0568
     54 H24        33.8213   15.1518   48.7899 H         1 5LK         0.0778
     55 H25        33.4223   16.7130   49.5835 H         1 5LK         0.0778
     56 H26        33.1353   16.5013   47.8230 H         1 5LK         0.0778
@<TRIPOS>BOND
     1    1    2 1  
     2    1    5 ar 
     3    1    9 ar 
     4    2    3 1  
     5    3    4 2  
     6    4    5 1  
     7    4   18 1  
     8    5    6 ar 
     9    6    7 ar 
    10    7    8 ar 
    11    8    9 ar 
    12    8   11 1  
    13    9   10 1  
    14   11   12 ar 
    15   11   16 ar 
    16   12   13 ar 
    17   13   14 ar 
    18   14   15 ar 
    19   14   17 1  
    20   15   16 ar 
    21   18   19 ar 
    22   18   23 ar 
    23   19   20 ar 
    24   20   21 ar 
    25   20   24 1  
    26   21   22 ar 
    27   22   23 ar 
    28   24   25 1  
    29   24   29 1  
    30   25   26 1  
    31   26   27 1  
    32   27   28 1  
    33   27   30 1  
    34   28   29 1  
    35    2   31 1  
    36    3   32 1  
    37    7   33 1  
    38   10   34 1  
    39   10   35 1  
    40   12   36 1  
    41   13   37 1  
    42   15   38 1  
    43   16   39 1  
    44   17   40 1  
    45   19   41 1  
    46   21   42 1  
    47   22   43 1  
    48   23   44 1  
    49   25   45 1  
    50   25   46 1  
    51   26   47 1  
    52   26   48 1  
    53   27   49 1  
    54   28   50 1  
    55   28   51 1  
    56   29   52 1  
    57   29   53 1  
    58   30   54 1  
    59   30   55 1  
    60   30   56 1  
@<TRIPOS>SUBSTRUCTURE
     1 5LK         1

