### 
### Created by X-TOOL on Mon Sep 10 21:13:04 2018
### 

@<TRIPOS>MOLECULE
3mpt_ligand
   39    41     1     0     0
SMALL
GAST_HUCK


@<TRIPOS>ATOM
      1 C1         40.6540   29.2610   33.2960 C.3       1 1GK        -0.0274
      2 C2         40.0080   29.8400   32.0830 C.ar      1 1GK        -0.0275
      3 C3         38.6270   29.9010   32.0040 C.ar      1 1GK        -0.0546
      4 C4         38.0200   30.4360   30.8920 C.ar      1 1GK        -0.0641
      5 C5         38.7970   30.8950   29.8540 C.ar      1 1GK        -0.0630
      6 C6         40.1770   30.8330   29.9130 C.ar      1 1GK        -0.0504
      7 C7         40.7810   30.3050   31.0370 C.ar      1 1GK         0.0299
      8 C8         42.2630   30.2400   31.1380 C.2       1 1GK         0.1325
      9 O9         42.8540   29.2080   30.8740 O.2       1 1GK        -0.3863
     10 C10        42.9530   31.4200   31.6040 C.2       1 1GK         0.0231
     11 C11        42.3190   32.5620   32.0190 C.2       1 1GK         0.0464
     12 N12        43.2650   33.4670   32.3960 N.pl3     1 1GK        -0.2705
     13 C13        44.5190   32.9630   32.2500 C.2       1 1GK         0.1290
     14 C14        44.3440   31.6830   31.7500 C.2       1 1GK        -0.0432
     15 C15        45.6790   33.7360   32.5930 C.2       1 1GK         0.2195
     16 O16        45.6320   34.9020   32.9760 O.2       1 1GK        -0.3914
     17 N17        46.8520   33.0540   32.4920 N.am      1 1GK        -0.2730
     18 C18        48.0690   33.7370   32.8450 C.3       1 1GK         0.0931
     19 C19        48.8530   33.9690   31.6430 C.2       1 1GK         0.1170
     20 C20        48.7230   34.8710   30.6120 C.2       1 1GK        -0.0686
     21 C21        49.7860   34.5940   29.7220 C.2       1 1GK        -0.0808
     22 C22        50.4790   33.5360   30.2740 C.2       1 1GK         0.0669
     23 O23        49.9170   33.1410   31.4540 O.3       1 1GK        -0.2668
     24 H1         39.8784   28.9495   34.0111 H         1 1GK         0.0405
     25 H2         41.3010   30.0178   33.7635 H         1 1GK         0.0405
     26 H3         41.2590   28.3886   33.0082 H         1 1GK         0.0405
     27 H4         38.0222   29.5257   32.8216 H         1 1GK         0.0569
     28 H5         36.9392   30.4954   30.8341 H         1 1GK         0.0636
     29 H6         38.3194   31.3124   28.9749 H         1 1GK         0.0572
     30 H7         40.7779   31.1947   29.0865 H         1 1GK         0.0651
     31 H8         41.2417   32.7193   32.0433 H         1 1GK         0.0992
     32 H9         43.0566   34.4127   32.7470 H         1 1GK         0.2396
     33 H10        45.1454   30.9869   31.5067 H         1 1GK         0.0411
     34 H11        46.8683   32.1038   32.1809 H         1 1GK         0.1866
     35 H12        48.6472   33.1190   33.5477 H         1 1GK         0.0712
     36 H13        47.8265   34.7002   33.3176 H         1 1GK         0.0712
     37 H14        47.9591   35.6395   30.5039 H         1 1GK         0.0219
     38 H15        50.0120   35.1105   28.7903 H         1 1GK         0.0296
     39 H16        51.3591   33.0762   29.8269 H         1 1GK         0.0854
@<TRIPOS>BOND
     1    1    2 1  
     2    2    3 ar 
     3    2    7 ar 
     4    3    4 ar 
     5    4    5 ar 
     6    5    6 ar 
     7    6    7 ar 
     8    7    8 1  
     9    8    9 2  
    10    8   10 1  
    11   10   11 2  
    12   10   14 1  
    13   11   12 1  
    14   12   13 1  
    15   13   14 2  
    16   13   15 1  
    17   15   16 2  
    18   15   17 am 
    19   17   18 1  
    20   18   19 1  
    21   19   20 2  
    22   19   23 1  
    23   20   21 1  
    24   21   22 2  
    25   22   23 1  
    26    1   24 1  
    27    1   25 1  
    28    1   26 1  
    29    3   27 1  
    30    4   28 1  
    31    5   29 1  
    32    6   30 1  
    33   11   31 1  
    34   12   32 1  
    35   14   33 1  
    36   17   34 1  
    37   18   35 1  
    38   18   36 1  
    39   20   37 1  
    40   21   38 1  
    41   22   39 1  
@<TRIPOS>SUBSTRUCTURE
     1 1GK         1

