### 
### Created by X-TOOL on Mon Sep 10 21:13:06 2018
### 

@<TRIPOS>MOLECULE
3mqf_ligand
   42    43     1     0     0
SMALL
GAST_HUCK


@<TRIPOS>ATOM
      1 C1         33.5430   22.8620   27.9700 C.3       1 20X         0.1785
      2 F1         36.9070   27.8280   37.4020 F         1 20X        -0.1893
      3 N1         34.5280   23.4260   28.8780 N.am      1 20X        -0.2524
      4 S1         32.7620   24.5200   30.4360 S.2       1 20X        -0.2042
      5 C2         33.9090   23.1250   26.5070 C.3       1 20X         0.1330
      6 N2         35.3310   24.4320   30.6990 N.2       1 20X        -0.1034
      7 O2         34.0940   24.5290   26.2760 O.3       1 20X        -0.3842
      8 C3         32.8130   22.5390   25.5970 C.3       1 20X         0.1140
      9 N3         35.3520   25.0540   31.8640 N.2       1 20X        -0.1651
     10 O3         33.3420   18.6660   27.2770 O.3       1 20X        -0.3924
     11 C4         32.5270   21.0700   25.9390 C.3       1 20X         0.1119
     12 O4         31.3220   20.6550   25.2790 O.3       1 20X        -0.3865
     13 C5         32.3640   20.8670   27.4560 C.3       1 20X         0.1130
     14 O5         33.4810   21.4420   28.1460 O.3       1 20X        -0.3416
     15 C6         32.2540   19.4010   27.8560 C.3       1 20X         0.0730
     16 O6         33.1740   22.6510   24.2080 O.3       1 20X        -0.3864
     17 C7         34.2430   24.1110   29.9970 C.2       1 20X         0.1993
     18 C8         36.4780   25.2360   32.4300 C.3       1 20X         0.0948
     19 C9         36.6080   25.9220   33.7350 C.ar      1 20X        -0.0234
     20 C10        37.8220   26.5150   34.1070 C.ar      1 20X        -0.0601
     21 C11        37.9410   27.1600   35.3430 C.ar      1 20X        -0.0348
     22 C12        36.8380   27.2070   36.2060 C.ar      1 20X         0.1248
     23 C13        35.6320   26.6120   35.8300 C.ar      1 20X        -0.0348
     24 C14        35.5110   25.9680   34.6000 C.ar      1 20X        -0.0601
     25 H1         32.5609   23.3075   28.1869 H         1 20X         0.0925
     26 H2         35.4930   23.2935   28.6516 H         1 20X         0.2021
     27 H3         34.8568   22.6131   26.2841 H         1 20X         0.0670
     28 H4         33.2894   24.9911   26.4800 H         1 20X         0.2101
     29 H5         31.8915   23.1166   25.7616 H         1 20X         0.0648
     30 H6         34.1652   19.0204   27.5919 H         1 20X         0.2095
     31 H7         33.3664   20.4532   25.5855 H         1 20X         0.0647
     32 H8         30.5989   21.1969   25.5723 H         1 20X         0.2100
     33 H9         31.4445   21.3815   27.7719 H         1 20X         0.0647
     34 H10        32.2954   19.3156   28.9519 H         1 20X         0.0584
     35 H11        31.2999   18.9919   27.4921 H         1 20X         0.0584
     36 H12        33.3502   23.5611   24.0001 H         1 20X         0.2100
     37 H13        37.0881   25.8126   31.7192 H         1 20X         0.0688
     38 H14        36.9179   24.2368   32.5645 H         1 20X         0.0688
     39 H15        38.6716   26.4739   33.4350 H         1 20X         0.0548
     40 H16        38.8795   27.6199   35.6308 H         1 20X         0.0587
     41 H17        34.7817   26.6514   36.5013 H         1 20X         0.0587
     42 H18        34.5725   25.5059   34.3160 H         1 20X         0.0548
@<TRIPOS>BOND
     1    3    1 1  
     2    1    5 1  
     3    1   14 1  
     4   22    2 1  
     5   17    3 am 
     6   17    4 2  
     7    5    7 1  
     8    5    8 1  
     9    9    6 2  
    10    6   17 1  
    11    8   11 1  
    12    8   16 1  
    13   18    9 1  
    14   15   10 1  
    15   11   12 1  
    16   13   11 1  
    17   14   13 1  
    18   13   15 1  
    19   19   18 1  
    20   20   19 ar 
    21   19   24 ar 
    22   21   20 ar 
    23   21   22 ar 
    24   22   23 ar 
    25   23   24 ar 
    26    1   25 1  
    27    3   26 1  
    28    5   27 1  
    29    7   28 1  
    30    8   29 1  
    31   10   30 1  
    32   11   31 1  
    33   12   32 1  
    34   13   33 1  
    35   15   34 1  
    36   15   35 1  
    37   16   36 1  
    38   18   37 1  
    39   18   38 1  
    40   20   39 1  
    41   21   40 1  
    42   23   41 1  
    43   24   42 1  
@<TRIPOS>SUBSTRUCTURE
     1 20X         1

