### 
### Created by X-TOOL on Mon Sep 10 21:13:06 2018
### 

@<TRIPOS>MOLECULE
3mrt_ligand
   41    42     1     0     0
SMALL
GAST_HUCK


@<TRIPOS>ATOM
      1 C1         19.2170   14.8630   55.6580 C.3       1 12E         0.1785
      2 N1         18.8880   13.5550   55.1020 N.am      1 12E        -0.2524
      3 S1         18.1140   12.6850   57.5030 S.2       1 12E        -0.2042
      4 C2         20.6140   15.3230   55.1970 C.3       1 12E         0.1330
      5 N2         18.0670   11.4130   55.1920 N.2       1 12E        -0.1031
      6 O2         21.6480   14.5200   55.7920 O.3       1 12E        -0.3842
      7 C3         20.8240   16.8040   55.5630 C.3       1 12E         0.1140
      8 N3         18.0890   11.3500   53.9380 N.2       1 12E        -0.1621
      9 O3         22.0730   17.2840   55.0420 O.3       1 12E        -0.3864
     10 C4         19.6710   17.6650   55.0450 C.3       1 12E         0.1119
     11 N4         17.8320    9.9150   49.0880 N.ar      1 12E        -0.3066
     12 O4         19.7940   19.0140   55.4950 O.3       1 12E        -0.3865
     13 C5         18.3450   17.0980   55.5400 C.3       1 12E         0.1130
     14 O5         18.2270   15.7400   55.1020 O.3       1 12E        -0.3416
     15 C6         17.1460   17.8820   55.0270 C.3       1 12E         0.0730
     16 O6         15.9760   17.0970   55.2810 O.3       1 12E        -0.3924
     17 C7         18.3720   12.5500   55.8200 C.2       1 12E         0.1993
     18 C8         17.7870   10.2760   53.3350 C.3       1 12E         0.1037
     19 C9         17.8100   10.1650   51.8490 C.ar      1 12E         0.0004
     20 C10        18.4340   11.1300   51.0560 C.ar      1 12E        -0.0306
     21 C11        18.4300   10.9780   49.6640 C.ar      1 12E         0.0031
     22 C12        17.2280    8.9620   49.8270 C.ar      1 12E         0.0031
     23 C13        17.1990    9.0750   51.2210 C.ar      1 12E        -0.0306
     24 H1         19.1685   14.8481   56.7568 H         1 12E         0.0925
     25 H2         19.0577   13.4003   54.1287 H         1 12E         0.2021
     26 H3         20.6742   15.2163   54.1039 H         1 12E         0.0670
     27 H4         21.6005   14.5945   56.7379 H         1 12E         0.2101
     28 H5         20.8513   16.8864   56.6596 H         1 12E         0.0648
     29 H6         22.0742   17.1980   54.0958 H         1 12E         0.2100
     30 H7         19.6839   17.6518   53.9452 H         1 12E         0.0647
     31 H8         20.6121   19.3788   55.1787 H         1 12E         0.2100
     32 H9         18.3398   17.1281   56.6396 H         1 12E         0.0647
     33 H10        17.2497   18.0623   53.9468 H         1 12E         0.0584
     34 H11        17.0737   18.8447   55.5542 H         1 12E         0.0584
     35 H12        16.0486   16.2661   54.8262 H         1 12E         0.2095
     36 H13        16.7612   10.0281   53.6452 H         1 12E         0.0722
     37 H14        18.4794    9.5082   53.7106 H         1 12E         0.0722
     38 H15        18.9160   11.9869   51.5126 H         1 12E         0.0652
     39 H16        18.9130   11.7231   49.0422 H         1 12E         0.0803
     40 H17        16.7659    8.1100   49.3416 H         1 12E         0.0803
     41 H18        16.7022    8.3166   51.8153 H         1 12E         0.0652
@<TRIPOS>BOND
     1    2    1 1  
     2    1    4 1  
     3    1   14 1  
     4   17    2 am 
     5   17    3 2  
     6    4    6 1  
     7    4    7 1  
     8    8    5 2  
     9    5   17 1  
    10    7    9 1  
    11    7   10 1  
    12   18    8 1  
    13   10   12 1  
    14   13   10 1  
    15   21   11 ar 
    16   11   22 ar 
    17   14   13 1  
    18   13   15 1  
    19   15   16 1  
    20   19   18 1  
    21   20   19 ar 
    22   19   23 ar 
    23   20   21 ar 
    24   22   23 ar 
    25    1   24 1  
    26    2   25 1  
    27    4   26 1  
    28    6   27 1  
    29    7   28 1  
    30    9   29 1  
    31   10   30 1  
    32   12   31 1  
    33   13   32 1  
    34   15   33 1  
    35   15   34 1  
    36   16   35 1  
    37   18   36 1  
    38   18   37 1  
    39   20   38 1  
    40   21   39 1  
    41   22   40 1  
    42   23   41 1  
@<TRIPOS>SUBSTRUCTURE
     1 12E         1

