### 
### Created by X-TOOL on Mon Sep 10 21:13:06 2018
### 

@<TRIPOS>MOLECULE
3mrv_ligand
   43    44     1     0     0
SMALL
GAST_HUCK


@<TRIPOS>ATOM
      1 C1         19.1840   14.9040   55.8610 C.3       1 16F         0.1785
      2 N1         18.7750   13.6190   55.2950 N.am      1 16F        -0.2524
      3 S1         18.2150   12.6870   57.7310 S.2       1 16F        -0.2042
      4 C2         20.5850   15.3640   55.3960 C.3       1 16F         0.1330
      5 N2         17.9290   11.4760   55.3970 N.2       1 16F        -0.1034
      6 O2         21.6350   14.5900   56.0150 O.3       1 16F        -0.3842
      7 C3         20.7750   16.8640   55.7190 C.3       1 16F         0.1140
      8 N3         17.9580   11.3500   54.1530 N.2       1 16F        -0.1646
      9 O3         22.0410   17.3970   55.2670 O.3       1 16F        -0.3864
     10 C4         19.6060   17.6990   55.1750 C.3       1 16F         0.1119
     11 O4         19.7280   19.0430   55.6160 O.3       1 16F        -0.3865
     12 C5         18.2950   17.1360   55.7100 C.3       1 16F         0.1130
     13 O5         18.1960   15.7690   55.3020 O.3       1 16F        -0.3416
     14 C6         17.0570   17.8790   55.2230 C.3       1 16F         0.0730
     15 O6         15.9180   17.0130   55.3920 O.3       1 16F        -0.3924
     16 C7         18.3040   12.5990   56.0240 C.2       1 16F         0.1993
     17 O7         18.3600   11.4260   48.8960 O.3       1 16F        -0.3349
     18 C8         17.5810   10.2610   53.6360 C.3       1 16F         0.0942
     19 C9         17.5330   10.0030   52.1700 C.ar      1 16F        -0.0285
     20 C10        18.0210   10.9040   51.2180 C.ar      1 16F        -0.0306
     21 C11        17.8950   10.5850   49.8540 C.ar      1 16F         0.0810
     22 C12        17.2750    9.4030   49.4450 C.ar      1 16F        -0.0403
     23 C13        16.7750    8.5160   50.3890 C.ar      1 16F        -0.0772
     24 C14        16.8920    8.8340   51.7430 C.ar      1 16F        -0.0696
     25 H1         19.1465   14.8861   56.9602 H         1 16F         0.0925
     26 H2         18.8515   13.4947   54.3057 H         1 16F         0.2021
     27 H3         20.6508   15.2266   54.3066 H         1 16F         0.0670
     28 H4         22.4787   14.8995   55.7069 H         1 16F         0.2101
     29 H5         20.7626   16.9573   56.8150 H         1 16F         0.0648
     30 H6         22.1064   17.2985   54.3245 H         1 16F         0.2100
     31 H7         19.6077   17.6655   54.0755 H         1 16F         0.0647
     32 H8         20.5473   19.4056   55.3001 H         1 16F         0.2100
     33 H9         18.3186   17.1889   56.8085 H         1 16F         0.0647
     34 H10        17.1726   18.1394   54.1605 H         1 16F         0.0584
     35 H11        16.9176   18.7972   55.8125 H         1 16F         0.0584
     36 H12        16.0456   16.2209   54.8833 H         1 16F         0.2095
     37 H13        18.1909   11.0525   48.0391 H         1 16F         0.2479
     38 H14        16.5559   10.0982   54.0001 H         1 16F         0.0694
     39 H15        18.2448    9.4889   54.0521 H         1 16F         0.0694
     40 H16        18.4883   11.8323   51.5262 H         1 16F         0.0479
     41 H17        17.1838    9.1773   48.3887 H         1 16F         0.0485
     42 H18        16.3014    7.5914   50.0794 H         1 16F         0.0572
     43 H19        16.4762    8.1590   52.4823 H         1 16F         0.0465
@<TRIPOS>BOND
     1    2    1 1  
     2    1    4 1  
     3    1   13 1  
     4   16    2 am 
     5   16    3 2  
     6    4    6 1  
     7    4    7 1  
     8    8    5 2  
     9    5   16 1  
    10    7    9 1  
    11    7   10 1  
    12   18    8 1  
    13   10   11 1  
    14   12   10 1  
    15   13   12 1  
    16   12   14 1  
    17   14   15 1  
    18   21   17 1  
    19   19   18 1  
    20   20   19 ar 
    21   19   24 ar 
    22   20   21 ar 
    23   21   22 ar 
    24   22   23 ar 
    25   23   24 ar 
    26    1   25 1  
    27    2   26 1  
    28    4   27 1  
    29    6   28 1  
    30    7   29 1  
    31    9   30 1  
    32   10   31 1  
    33   11   32 1  
    34   12   33 1  
    35   14   34 1  
    36   14   35 1  
    37   15   36 1  
    38   17   37 1  
    39   18   38 1  
    40   18   39 1  
    41   20   40 1  
    42   22   41 1  
    43   23   42 1  
    44   24   43 1  
@<TRIPOS>SUBSTRUCTURE
     1 16F         1

