### 
### Created by X-TOOL on Mon Sep 10 21:13:06 2018
### 

@<TRIPOS>MOLECULE
3mrx_ligand
   46    47     1     0     0
SMALL
GAST_HUCK


@<TRIPOS>ATOM
      1 C1         19.3590   15.2360   56.1620 C.3       1 17S         0.1785
      2 N1         18.9160   13.9420   55.6700 N.am      1 17S        -0.2524
      3 S1         18.4350   13.1230   58.1600 S.2       1 17S        -0.2042
      4 C2         20.6970   15.5840   55.4940 C.3       1 17S         0.1330
      5 N2         18.0590   11.8350   55.9170 N.2       1 17S        -0.1036
      6 O2         21.7350   14.7060   55.9440 O.3       1 17S        -0.3842
      7 C3         21.0550   17.0400   55.7940 C.3       1 17S         0.1140
      8 N3         18.0790   11.7090   54.6820 N.2       1 17S        -0.1663
      9 O3         22.2580   17.4080   55.1060 O.3       1 17S        -0.3864
     10 C4         19.9250   17.9570   55.3320 C.3       1 17S         0.1119
     11 O4         20.1820   19.3100   55.7230 O.3       1 17S        -0.3865
     12 C5         18.5760   17.5310   55.9030 C.3       1 17S         0.1130
     13 O5         18.3350   16.1300   55.7160 O.3       1 17S        -0.3416
     14 C6         17.4770   18.2760   55.1650 C.3       1 17S         0.0730
     15 O6         16.5110   18.6540   56.1410 O.3       1 17S        -0.3924
     16 C7         18.4660   12.9680   56.4690 C.2       1 17S         0.1993
     17 O7         17.5630    9.6100   48.6660 O.3       1 17S        -0.3257
     18 C8         17.6910   10.6330   54.1800 C.3       1 17S         0.0917
     19 C9         17.6890   10.4110   52.7220 C.ar      1 17S        -0.0303
     20 C10        18.3900   11.2440   51.8430 C.ar      1 17S        -0.0669
     21 C11        18.3540   10.9820   50.4760 C.ar      1 17S        -0.0395
     22 C12        17.6190    9.8870   50.0030 C.ar      1 17S         0.0837
     23 C13        16.9210    9.0670   50.8860 C.ar      1 17S        -0.0395
     24 C14        16.9530    9.3350   52.2470 C.ar      1 17S        -0.0669
     25 C15        17.3370    8.2610   48.2620 C.3       1 17S         0.0579
     26 H1         19.4587   15.2477   57.2574 H         1 17S         0.0925
     27 H2         18.9493   13.7713   54.6852 H         1 17S         0.2021
     28 H3         20.5883   15.4649   54.4059 H         1 17S         0.0670
     29 H4         22.5519   14.9391   55.5188 H         1 17S         0.2101
     30 H5         21.2035   17.1591   56.8774 H         1 17S         0.0648
     31 H6         22.1302   17.3058   54.1701 H         1 17S         0.2100
     32 H7         19.8713   17.9090   54.2344 H         1 17S         0.0647
     33 H8         20.9963   19.6026   55.3307 H         1 17S         0.2100
     34 H9         18.5438   17.7708   56.9760 H         1 17S         0.0647
     35 H10        17.0168   17.6218   54.4099 H         1 17S         0.0584
     36 H11        17.8890   19.1698   54.6737 H         1 17S         0.0584
     37 H12        15.8027   19.1252   55.7180 H         1 17S         0.2095
     38 H13        16.6527   10.4927   54.5150 H         1 17S         0.0674
     39 H14        18.3253    9.8446   54.6114 H         1 17S         0.0674
     40 H15        18.9565   12.0864   52.2232 H         1 17S         0.0531
     41 H16        18.8904   11.6202   49.7832 H         1 17S         0.0525
     42 H17        16.3546    8.2221   50.5113 H         1 17S         0.0525
     43 H18        16.4042    8.7051   52.9377 H         1 17S         0.0531
     44 H19        17.3194    8.2053   47.1636 H         1 17S         0.0575
     45 H20        16.3725    7.9151   48.6621 H         1 17S         0.0575
     46 H21        18.1448    7.6222   48.6486 H         1 17S         0.0575
@<TRIPOS>BOND
     1    2    1 1  
     2    1    4 1  
     3    1   13 1  
     4   16    2 am 
     5   16    3 2  
     6    4    6 1  
     7    4    7 1  
     8    8    5 2  
     9    5   16 1  
    10    7    9 1  
    11    7   10 1  
    12   18    8 1  
    13   10   11 1  
    14   12   10 1  
    15   13   12 1  
    16   12   14 1  
    17   14   15 1  
    18   22   17 1  
    19   17   25 1  
    20   19   18 1  
    21   20   19 ar 
    22   19   24 ar 
    23   21   20 ar 
    24   21   22 ar 
    25   22   23 ar 
    26   23   24 ar 
    27    1   26 1  
    28    2   27 1  
    29    4   28 1  
    30    6   29 1  
    31    7   30 1  
    32    9   31 1  
    33   10   32 1  
    34   11   33 1  
    35   12   34 1  
    36   14   35 1  
    37   14   36 1  
    38   15   37 1  
    39   18   38 1  
    40   18   39 1  
    41   20   40 1  
    42   21   41 1  
    43   23   42 1  
    44   24   43 1  
    45   25   44 1  
    46   25   45 1  
    47   25   46 1  
@<TRIPOS>SUBSTRUCTURE
     1 17S         1

