### 
### Created by X-TOOL on Mon Sep 10 21:13:06 2018
### 

@<TRIPOS>MOLECULE
3ms2_ligand
   45    46     1     0     0
SMALL
GAST_HUCK


@<TRIPOS>ATOM
      1 C1         19.3350   14.9500   56.0300 C.3       1 18S         0.1785
      2 N1         18.8510   13.6940   55.4910 N.am      1 18S        -0.2524
      3 S1         18.4110   12.8680   57.9660 S.2       1 18S        -0.2042
      4 C2         20.6050   15.3410   55.2690 C.3       1 18S         0.1330
      5 N2         17.9330   11.6030   55.6760 N.2       1 18S        -0.1035
      6 O2         21.6850   14.4590   55.5860 O.3       1 18S        -0.3842
      7 C3         20.9460   16.7850   55.6180 C.3       1 18S         0.1140
      8 N3         17.9240   11.5120   54.4310 N.2       1 18S        -0.1656
      9 O3         22.1210   17.2090   54.9230 O.3       1 18S        -0.3864
     10 C4         19.7860   17.6680   55.1760 C.3       1 18S         0.1119
     11 O4         20.0570   19.0310   55.4920 O.3       1 18S        -0.3865
     12 C5         18.4500   17.2430   55.7890 C.3       1 18S         0.1130
     13 O5         18.2440   15.8270   55.7350 O.3       1 18S        -0.3416
     14 C6         17.3240   17.8390   54.9590 C.3       1 18S         0.0730
     15 O6         16.7780   18.9530   55.6660 O.3       1 18S        -0.3924
     16 C7         18.3920   12.7150   56.2660 C.2       1 18S         0.1993
     17 C8         17.5070   10.4650   53.8810 C.3       1 18S         0.0936
     18 C9         17.4810   10.2820   52.4130 C.ar      1 18S        -0.0263
     19 C10        18.1800   11.1320   51.5460 C.ar      1 18S        -0.0650
     20 C11        18.1250   10.9010   50.1690 C.ar      1 18S        -0.0670
     21 C12        17.3800    9.8250   49.6590 C.ar      1 18S        -0.0528
     22 C13        16.6870    8.9830   50.5240 C.ar      1 18S        -0.0670
     23 C14        16.7410    9.2180   51.8980 C.ar      1 18S        -0.0650
     24 C15        17.2990    9.5630   48.1750 C.3       1 18S        -0.0343
     25 H1         19.5351   14.8966   57.1103 H         1 18S         0.0925
     26 H2         18.8627   13.5587   54.5003 H         1 18S         0.2021
     27 H3         20.4089   15.2732   54.1888 H         1 18S         0.0670
     28 H4         22.4594   14.7219   55.1025 H         1 18S         0.2101
     29 H5         21.1026   16.8778   56.7028 H         1 18S         0.0648
     30 H6         21.9740   17.1454   53.9867 H         1 18S         0.2100
     31 H7         19.6960   17.5794   54.0833 H         1 18S         0.0647
     32 H8         20.8476   19.3077   55.0437 H         1 18S         0.2100
     33 H9         18.3980   17.5929   56.8305 H         1 18S         0.0647
     34 H10        16.5417   17.0826   54.7981 H         1 18S         0.0584
     35 H11        17.7165   18.1731   53.9873 H         1 18S         0.0584
     36 H12        16.0725   19.3347   55.1570 H         1 18S         0.2095
     37 H13        16.4687   10.3368   54.2209 H         1 18S         0.0682
     38 H14        18.1263    9.6469   54.2775 H         1 18S         0.0682
     39 H15        18.7577   11.9606   51.9395 H         1 18S         0.0540
     40 H16        18.6601   11.5557   49.4907 H         1 18S         0.0540
     41 H17        16.1106    8.1522   50.1335 H         1 18S         0.0540
     42 H18        16.2008    8.5652   52.5741 H         1 18S         0.0540
     43 H19        17.8981   10.3125   47.6371 H         1 18S         0.0378
     44 H20        16.2508    9.6280   47.8478 H         1 18S         0.0378
     45 H21        17.6892    8.5576   47.9583 H         1 18S         0.0378
@<TRIPOS>BOND
     1    2    1 1  
     2    1    4 1  
     3    1   13 1  
     4   16    2 am 
     5   16    3 2  
     6    4    6 1  
     7    4    7 1  
     8    5    8 2  
     9    5   16 1  
    10    7    9 1  
    11    7   10 1  
    12    8   17 1  
    13   10   11 1  
    14   10   12 1  
    15   12   13 1  
    16   12   14 1  
    17   14   15 1  
    18   17   18 1  
    19   18   19 ar 
    20   18   23 ar 
    21   19   20 ar 
    22   20   21 ar 
    23   21   22 ar 
    24   21   24 1  
    25   22   23 ar 
    26    1   25 1  
    27    2   26 1  
    28    4   27 1  
    29    6   28 1  
    30    7   29 1  
    31    9   30 1  
    32   10   31 1  
    33   11   32 1  
    34   12   33 1  
    35   14   34 1  
    36   14   35 1  
    37   15   36 1  
    38   17   37 1  
    39   17   38 1  
    40   19   39 1  
    41   20   40 1  
    42   22   41 1  
    43   23   42 1  
    44   24   43 1  
    45   24   44 1  
    46   24   45 1  
@<TRIPOS>SUBSTRUCTURE
     1 18S         1

