### 
### Created by X-TOOL on Mon Sep 10 21:13:06 2018
### 

@<TRIPOS>MOLECULE
3ms4_ligand
   45    46     1     0     0
SMALL
GAST_HUCK


@<TRIPOS>ATOM
      1 C1         19.4790   15.4430   56.7550 C.3       1 21N         0.1785
      2 F1         17.1570   10.7620   48.5730 F         1 21N        -0.2274
      3 N1         18.9460   14.1430   56.3770 N.am      1 21N        -0.2524
      4 S1         18.7300   13.3210   58.7910 S.2       1 21N        -0.2042
      5 C2         20.7910   15.7260   55.9940 C.3       1 21N         0.1330
      6 F2         16.8830    8.6720   49.0060 F         1 21N        -0.2274
      7 N2         17.9850   12.0840   56.7430 N.2       1 21N        -0.1025
      8 O2         21.8220   14.7890   56.3610 O.3       1 21N        -0.3842
      9 C3         21.2320   17.1830   56.2030 C.3       1 21N         0.1140
     10 F3         18.8500    9.4930   48.9190 F         1 21N        -0.2274
     11 N3         18.0440   11.8660   55.4420 N.2       1 21N        -0.1581
     12 O3         22.3600   17.4910   55.3860 O.3       1 21N        -0.3864
     13 C4         20.0900   18.1280   55.8150 C.3       1 21N         0.1119
     14 O4         20.4820   19.4980   55.9930 O.3       1 21N        -0.3865
     15 C5         18.8320   17.8040   56.6230 C.3       1 21N         0.1130
     16 O5         18.4830   16.4260   56.4260 O.3       1 21N        -0.3416
     17 C6         17.6270   18.6860   56.2650 C.3       1 21N         0.0730
     18 O6         17.5420   18.9410   54.8520 O.3       1 21N        -0.3924
     19 C7         18.5530   13.1870   57.2320 C.2       1 21N         0.1994
     20 C8         17.4640   10.8850   54.9360 C.3       1 21N         0.1115
     21 C9         17.5270   10.6260   53.4880 C.ar      1 21N         0.0123
     22 C10        18.4130   11.3180   52.6520 C.ar      1 21N        -0.0263
     23 C11        18.4460   11.0380   51.2870 C.ar      1 21N        -0.0371
     24 C12        17.5880   10.0660   50.7520 C.ar      1 21N         0.0385
     25 C13        16.7040    9.3840   51.5930 C.ar      1 21N        -0.0371
     26 C14        16.6730    9.6590   52.9580 C.ar      1 21N        -0.0263
     27 C15        17.6100    9.7460   49.2760 C.3       1 21N         0.3684
     28 H1         19.6779   15.4635   57.8367 H         1 21N         0.0925
     29 H2         18.8661   13.9461   55.3998 H         1 21N         0.2021
     30 H3         20.5910   15.5910   54.9208 H         1 21N         0.0670
     31 H4         22.6155   14.9877   55.8779 H         1 21N         0.2101
     32 H5         21.4936   17.3329   57.2608 H         1 21N         0.0648
     33 H6         22.1311   17.3671   54.4724 H         1 21N         0.2100
     34 H7         19.8622   17.9736   54.7500 H         1 21N         0.0647
     35 H8         21.2352   19.6845   55.4449 H         1 21N         0.2100
     36 H9         19.0632   17.9623   57.6867 H         1 21N         0.0647
     37 H10        17.7212   19.6462   56.7933 H         1 21N         0.0584
     38 H11        16.7070   18.1777   56.5893 H         1 21N         0.0584
     39 H12        18.3303   19.3858   54.5636 H         1 21N         0.2095
     40 H13        16.3983   10.9885   55.1882 H         1 21N         0.0770
     41 H14        17.8729    9.9916   55.4307 H         1 21N         0.0770
     42 H15        19.0730   12.0713   53.0668 H         1 21N         0.0653
     43 H16        19.1336   11.5706   50.6400 H         1 21N         0.0836
     44 H17        16.0376    8.6355   51.1797 H         1 21N         0.0836
     45 H18        15.9881    9.1238   53.6057 H         1 21N         0.0653
@<TRIPOS>BOND
     1    3    1 1  
     2    1    5 1  
     3    1   16 1  
     4   27    2 1  
     5   19    3 am 
     6   19    4 2  
     7    5    8 1  
     8    5    9 1  
     9   27    6 1  
    10   11    7 2  
    11    7   19 1  
    12    9   12 1  
    13    9   13 1  
    14   27   10 1  
    15   20   11 1  
    16   13   14 1  
    17   15   13 1  
    18   16   15 1  
    19   15   17 1  
    20   17   18 1  
    21   21   20 1  
    22   22   21 ar 
    23   21   26 ar 
    24   23   22 ar 
    25   24   23 ar 
    26   24   25 ar 
    27   24   27 1  
    28   25   26 ar 
    29    1   28 1  
    30    3   29 1  
    31    5   30 1  
    32    8   31 1  
    33    9   32 1  
    34   12   33 1  
    35   13   34 1  
    36   14   35 1  
    37   15   36 1  
    38   17   37 1  
    39   17   38 1  
    40   18   39 1  
    41   20   40 1  
    42   20   41 1  
    43   22   42 1  
    44   23   43 1  
    45   25   44 1  
    46   26   45 1  
@<TRIPOS>SUBSTRUCTURE
     1 21N         1

