### 
### Created by X-TOOL on Mon Sep 10 21:13:06 2018
### 

@<TRIPOS>MOLECULE
3ms7_ligand
   42    43     1     0     0
SMALL
GAST_HUCK


@<TRIPOS>ATOM
      1 C1         19.2880   15.0630   56.0290 C.3       1 22S         0.1785
      2 N1         18.8250   13.7930   55.4700 N.am      1 22S        -0.2524
      3 S1         18.1290   12.8390   57.8680 S.2       1 22S        -0.2042
      4 CL1        15.8410    8.4530   52.4250 Cl        1 22S        -0.0771
      5 C2         20.7150   15.4200   55.5570 C.3       1 22S         0.1330
      6 N2         17.8770   11.6780   55.5420 N.2       1 22S        -0.1033
      7 O2         21.7140   14.5490   56.1200 O.3       1 22S        -0.3842
      8 C3         21.0330   16.8970   55.8930 C.3       1 22S         0.1140
      9 N3         17.9680   11.5900   54.3030 N.2       1 22S        -0.1643
     10 O3         16.2430   17.4800   55.2520 O.3       1 22S        -0.3924
     11 C4         19.9380   17.8380   55.3710 C.3       1 22S         0.1119
     12 O4         20.1350   19.1730   55.8480 O.3       1 22S        -0.3865
     13 C5         18.5630   17.3680   55.8280 C.3       1 22S         0.1130
     14 O5         18.3760   16.0000   55.4540 O.3       1 22S        -0.3416
     15 C6         17.4710   18.2090   55.1750 C.3       1 22S         0.0730
     16 O6         22.2920   17.3170   55.3480 O.3       1 22S        -0.3864
     17 C7         18.2840   12.7840   56.1760 C.2       1 22S         0.1993
     18 C8         17.5810   10.5640   53.6870 C.3       1 22S         0.0972
     19 C9         17.7050   10.4870   52.2070 C.ar      1 22S        -0.0055
     20 C10        16.9470    9.5440   51.5130 C.ar      1 22S         0.0430
     21 C11        17.0420    9.4390   50.1230 C.ar      1 22S        -0.0545
     22 C12        17.8970   10.3030   49.4330 C.ar      1 22S        -0.0682
     23 C13        18.6600   11.2540   50.1220 C.ar      1 22S        -0.0683
     24 C14        18.5600   11.3530   51.5130 C.ar      1 22S        -0.0579
     25 H1         19.2411   15.0586   57.1280 H         1 22S         0.0925
     26 H2         18.9183   13.6645   54.4827 H         1 22S         0.2021
     27 H3         20.7464   15.3026   54.4637 H         1 22S         0.0670
     28 H4         22.5717   14.8059   55.8026 H         1 22S         0.2101
     29 H5         21.0810   16.9900   56.9880 H         1 22S         0.0648
     30 H6         15.5486   17.9882   54.8496 H         1 22S         0.2095
     31 H7         19.9721   17.8402   54.2715 H         1 22S         0.0647
     32 H8         20.9785   19.4931   55.5506 H         1 22S         0.2100
     33 H9         18.4924   17.4635   56.9216 H         1 22S         0.0647
     34 H10        17.3700   19.1667   55.7066 H         1 22S         0.0584
     35 H11        17.7264   18.3991   54.1221 H         1 22S         0.0584
     36 H12        22.2544   17.2770   54.3997 H         1 22S         0.2100
     37 H13        16.5138   10.4377   53.9219 H         1 22S         0.0697
     38 H14        18.1495    9.7160   54.0965 H         1 22S         0.0697
     39 H15        16.4605    8.6976   49.5870 H         1 22S         0.0605
     40 H16        17.9703   10.2363   48.3535 H         1 22S         0.0559
     41 H17        19.3272   11.9124   49.5776 H         1 22S         0.0601
     42 H18        19.1399   12.0945   52.0506 H         1 22S         0.0557
@<TRIPOS>BOND
     1    2    1 1  
     2    1    5 1  
     3    1   14 1  
     4   17    2 am 
     5   17    3 2  
     6   20    4 1  
     7    5    7 1  
     8    5    8 1  
     9    9    6 2  
    10    6   17 1  
    11    8   11 1  
    12    8   16 1  
    13   18    9 1  
    14   15   10 1  
    15   11   12 1  
    16   13   11 1  
    17   14   13 1  
    18   13   15 1  
    19   19   18 1  
    20   19   20 ar 
    21   19   24 ar 
    22   20   21 ar 
    23   21   22 ar 
    24   22   23 ar 
    25   23   24 ar 
    26    1   25 1  
    27    2   26 1  
    28    5   27 1  
    29    7   28 1  
    30    8   29 1  
    31   10   30 1  
    32   11   31 1  
    33   12   32 1  
    34   13   33 1  
    35   15   34 1  
    36   15   35 1  
    37   16   36 1  
    38   18   37 1  
    39   18   38 1  
    40   21   39 1  
    41   22   40 1  
    42   23   41 1  
    43   24   42 1  
@<TRIPOS>SUBSTRUCTURE
     1 22S         1

