### 
### Created by X-TOOL on Mon Sep 10 21:13:03 2018
### 

@<TRIPOS>MOLECULE
3ms9_ligand
   20    20     1     0     0
SMALL
GAST_HUCK


@<TRIPOS>ATOM
      1 CL1         0.7270   59.3390   30.6650 Cl        1 MS9        -0.0699
      2 C2         -1.0090   59.5870   30.6490 C.ar      1 MS9         0.0339
      3 C3         -1.5350   60.7680   31.1300 C.ar      1 MS9        -0.0242
      4 C5         -2.9460   61.0210   31.1330 C.ar      1 MS9         0.0586
      5 C6         -3.8140   59.9850   30.6730 C.ar      1 MS9         0.0787
      6 C7         -3.2540   58.7330   30.2470 C.ar      1 MS9        -0.0516
      7 C9         -1.8400   58.5370   30.1770 C.ar      1 MS9        -0.0551
      8 C11        -5.3180   60.1280   30.7220 C.2       1 MS9         0.2543
      9 O12        -5.7870   61.2060   31.1880 O.2       1 MS9        -0.3649
     10 O13        -6.0540   59.0040   30.3850 O.3       1 MS9        -0.2831
     11 C14        -7.4530   59.3670   30.3020 C.3       1 MS9         0.0643
     12 N18        -3.3820   62.2270   31.6190 N.pl3     1 MS9        -0.3323
     13 H1         -0.8629   61.5256   31.5164 H         1 MS9         0.0533
     14 H2         -3.9171   57.9204   29.9731 H         1 MS9         0.0637
     15 H3         -1.4180   57.6214   29.7787 H         1 MS9         0.0525
     16 H4         -8.0466   58.4803   30.0346 H         1 MS9         0.0575
     17 H5         -7.5856   60.1425   29.5332 H         1 MS9         0.0575
     18 H6         -7.7898   59.7539   31.2751 H         1 MS9         0.0575
     19 H7         -2.7005   62.9317   31.9350 H         1 MS9         0.1746
     20 H8         -4.3910   62.4281   31.6680 H         1 MS9         0.1746
@<TRIPOS>BOND
     1    1    2 1  
     2    2    3 ar 
     3    2    7 ar 
     4    3    4 ar 
     5    4    5 ar 
     6    4   12 1  
     7    5    6 ar 
     8    5    8 1  
     9    6    7 ar 
    10    8    9 2  
    11    8   10 1  
    12   10   11 1  
    13    3   13 1  
    14    6   14 1  
    15    7   15 1  
    16   11   16 1  
    17   11   17 1  
    18   11   18 1  
    19   12   19 1  
    20   12   20 1  
@<TRIPOS>SUBSTRUCTURE
     1 MS9         1

