### 
### Created by X-TOOL on Mon Sep 10 21:13:06 2018
### 

@<TRIPOS>MOLECULE
3msc_ligand
   44    45     1     0     0
SMALL
GAST_HUCK


@<TRIPOS>ATOM
      1 C1         33.7100   22.9610   27.8900 C.3       1 24S         0.1785
      2 C2         34.0320   23.1690   26.4020 C.3       1 24S         0.1330
      3 O2         34.2440   24.5650   26.1430 O.3       1 24S        -0.3842
      4 C3         32.9080   22.5740   25.5240 C.3       1 24S         0.1140
      5 O3         33.2130   22.6300   24.1190 O.3       1 24S        -0.3864
      6 C4         32.6290   21.1200   25.9320 C.3       1 24S         0.1119
      7 O4         31.4910   20.6370   25.2130 O.3       1 24S        -0.3865
      8 C5         32.4190   20.9830   27.4570 C.3       1 24S         0.1130
      9 O5         33.5250   21.5590   28.1530 O.3       1 24S        -0.3416
     10 C6         32.2470   19.5420   27.9380 C.3       1 24S         0.0730
     11 O6         33.2500   18.6960   27.3600 O.3       1 24S        -0.3924
     12 NAL        34.8640   23.3790   28.6770 N.am      1 24S        -0.2524
     13 CAM        34.7490   24.0220   29.8450 C.2       1 24S         0.1993
     14 NAN        35.8930   24.3300   30.4740 N.2       1 24S        -0.1032
     15 SAO        33.2160   24.4450   30.4870 S.2       1 24S        -0.2042
     16 NAP        35.8980   24.9380   31.5600 N.2       1 24S        -0.1630
     17 CAQ        36.9940   25.2090   32.1240 C.3       1 24S         0.1023
     18 CAR        37.0710   25.9160   33.4310 C.ar      1 24S         0.0243
     19 CAS        36.0060   25.9480   34.3540 C.ar      1 24S         0.2028
     20 CAT        36.1740   26.6110   35.5780 C.ar      1 24S        -0.0252
     21 CAU        37.3780   27.2410   35.8900 C.ar      1 24S        -0.0605
     22 CAV        38.4340   27.1970   34.9760 C.ar      1 24S        -0.0631
     23 CAW        38.2810   26.5360   33.7560 C.ar      1 24S        -0.0498
     24 NAX        34.7540   25.3350   34.1070 N.2       1 24S         0.3099
     25 OAY        34.6280   24.1240   34.2130 O.2       1 24S         0.1745
     26 OAZ        33.7750   26.0010   33.7950 O.2       1 24S         0.1745
     27 H1         32.8132   23.5326   28.1710 H         1 24S         0.0925
     28 H2         34.9641   22.6334   26.1688 H         1 24S         0.0670
     29 H3         34.4427   24.6885   25.2222 H         1 24S         0.2101
     30 H4         31.9967   23.1651   25.6971 H         1 24S         0.0648
     31 H5         33.3380   23.5352   23.8590 H         1 24S         0.2100
     32 H6         33.5010   20.5100   25.6537 H         1 24S         0.0647
     33 H7         30.7360   21.1758   25.4183 H         1 24S         0.2100
     34 H8         31.5067   21.5388   27.7191 H         1 24S         0.0647
     35 H9         31.2521   19.1780   27.6420 H         1 24S         0.0584
     36 H10        32.3369   19.5131   29.0339 H         1 24S         0.0584
     37 H11        34.1106   19.0065   27.6160 H         1 24S         0.2095
     38 H12        35.7796   23.1768   28.3295 H         1 24S         0.2021
     39 H13        37.5598   25.8257   31.4102 H         1 24S         0.0713
     40 H14        37.5092   24.2476   32.2668 H         1 24S         0.0713
     41 H15        35.3575   26.6340   36.2907 H         1 24S         0.0674
     42 H16        37.4940   27.7608   36.8341 H         1 24S         0.0575
     43 H17        39.3756   27.6780   35.2152 H         1 24S         0.0643
     44 H18        39.1072   26.5032   33.0550 H         1 24S         0.0572
@<TRIPOS>BOND
     1    1    2 1  
     2    1    9 1  
     3    1   12 1  
     4    2    3 1  
     5    2    4 1  
     6    4    5 1  
     7    4    6 1  
     8    6    7 1  
     9    6    8 1  
    10    8    9 1  
    11    8   10 1  
    12   10   11 1  
    13   12   13 am 
    14   13   14 1  
    15   13   15 2  
    16   14   16 2  
    17   16   17 1  
    18   17   18 1  
    19   18   19 ar 
    20   18   23 ar 
    21   19   20 ar 
    22   19   24 1  
    23   20   21 ar 
    24   21   22 ar 
    25   22   23 ar 
    26   24   25 2  
    27   24   26 2  
    28    1   27 1  
    29    2   28 1  
    30    3   29 1  
    31    4   30 1  
    32    5   31 1  
    33    6   32 1  
    34    7   33 1  
    35    8   34 1  
    36   10   35 1  
    37   10   36 1  
    38   11   37 1  
    39   12   38 1  
    40   17   39 1  
    41   17   40 1  
    42   20   41 1  
    43   21   42 1  
    44   22   43 1  
    45   23   44 1  
@<TRIPOS>SUBSTRUCTURE
     1 24S         1

