### 
### Created by X-TOOL on Mon Sep 10 21:13:02 2018
### 

@<TRIPOS>MOLECULE
3msj_ligand
   27    28     1     0     0
SMALL
GAST_HUCK


@<TRIPOS>ATOM
      1 C1        -15.6340  -89.6560   14.0260 C.ar      1 EV3         0.0207
      2 C2        -15.8830  -90.8130   14.7710 C.ar      1 EV3        -0.0648
      3 C3        -16.2310  -89.4610   12.7880 C.ar      1 EV3        -0.0554
      4 C4        -16.7300  -91.8010   14.2700 C.ar      1 EV3        -0.0440
      5 C5        -17.0620  -90.4490   12.3160 C.ar      1 EV3         0.0121
      6 C6        -17.3080  -91.5930   13.0300 C.ar      1 EV3         0.0782
      7 N7        -17.7180  -90.4790   11.1580 N.2       1 EV3        -0.3136
      8 C8        -18.3760  -91.6460   11.1740 C.2       1 EV3         0.2132
      9 N9        -18.1390  -92.3430   12.3060 N.pl3     1 EV3        -0.2161
     10 N10       -19.2000  -92.0490   10.1220 N.pl3     1 EV3        -0.2885
     11 C11       -18.6910  -93.6610   12.6910 C.3       1 EV3         0.0598
     12 C12       -20.1930  -93.5820   12.9780 C.3       1 EV3        -0.0033
     13 C13       -20.9330  -94.8750   12.6780 C.3       1 EV3         0.0466
     14 O14       -20.4630  -95.9300   13.4960 O.3       1 EV3        -0.3949
     15 CL15      -14.5810  -88.4500   14.6420 Cl        1 EV3        -0.0825
     16 H1        -15.4162  -90.9422   15.7408 H         1 EV3         0.0519
     17 H2        -16.0481  -88.5604   12.2131 H         1 EV3         0.0523
     18 H3        -16.9296  -92.7045   14.8347 H         1 EV3         0.0534
     19 H4        -19.3161  -91.4428    9.2974 H         1 EV3         0.1860
     20 H5        -19.6920  -92.9526   10.1703 H         1 EV3         0.1860
     21 H6        -18.1732  -94.0145   13.5948 H         1 EV3         0.0598
     22 H7        -18.5217  -94.3726   11.8694 H         1 EV3         0.0598
     23 H8        -20.6247  -92.7815   12.3593 H         1 EV3         0.0313
     24 H9        -20.3326  -93.3390   14.0417 H         1 EV3         0.0313
     25 H10       -20.7775  -95.1418   11.6223 H         1 EV3         0.0558
     26 H11       -22.0069  -94.7264   12.8644 H         1 EV3         0.0558
     27 H12       -20.9398  -96.7254   13.2901 H         1 EV3         0.2094
@<TRIPOS>BOND
     1    1    2 ar 
     2    1    3 ar 
     3    1   15 1  
     4    2    4 ar 
     5    3    5 ar 
     6    4    6 ar 
     7    5    6 ar 
     8    5    7 1  
     9    6    9 1  
    10    7    8 2  
    11    8    9 1  
    12    8   10 1  
    13    9   11 1  
    14   11   12 1  
    15   12   13 1  
    16   13   14 1  
    17    2   16 1  
    18    3   17 1  
    19    4   18 1  
    20   10   19 1  
    21   10   20 1  
    22   11   21 1  
    23   11   22 1  
    24   12   23 1  
    25   12   24 1  
    26   13   25 1  
    27   13   26 1  
    28   14   27 1  
@<TRIPOS>SUBSTRUCTURE
     1 EV3         1

