### 
### Created by X-TOOL on Mon Sep 10 21:13:04 2018
### 

@<TRIPOS>MOLECULE
3msk_ligand
   49    51     1     0     0
SMALL
GAST_HUCK


@<TRIPOS>ATOM
      1 C1         16.4360  -40.4020   10.7990 C.ar      1 EV4        -0.0440
      2 C2         16.1270  -40.0880    9.4680 C.ar      1 EV4         0.0782
      3 C3         16.2950  -38.6630    8.9940 C.ar      1 EV4         0.0121
      4 C4         16.7320  -37.6900    9.8770 C.ar      1 EV4        -0.0554
      5 C5         17.0050  -38.0750   11.2060 C.ar      1 EV4         0.0207
      6 C6         16.8850  -39.3950   11.6600 C.ar      1 EV4        -0.0648
      7 CL7        17.5870  -36.8000   12.3120 Cl        1 EV4        -0.0825
      8 N8         15.6600  -40.8290    8.4290 N.pl3     1 EV4        -0.2160
      9 C9         15.5780  -39.9150    7.4020 C.2       1 EV4         0.2132
     10 N10        15.9450  -38.6290    7.6980 N.2       1 EV4        -0.3136
     11 N11        15.1920  -40.2020    6.1240 N.pl3     1 EV4        -0.2885
     12 C12        15.3910  -42.2880    8.4970 C.3       1 EV4         0.0598
     13 C13        16.5360  -43.0620    7.8420 C.3       1 EV4        -0.0096
     14 C14        17.8880  -42.3610    7.8490 C.3       1 EV4         0.0398
     15 C15        18.5540  -42.6200    9.2120 C.2       1 EV4         0.1785
     16 O16        18.2180  -43.6410    9.8190 O.2       1 EV4        -0.3969
     17 N17        19.4970  -41.7650    9.7100 N.am      1 EV4        -0.2732
     18 C18        20.1760  -41.9210   11.0060 C.3       1 EV4         0.0229
     19 C19        19.8440  -40.5630    8.9470 C.3       1 EV4         0.0447
     20 C20        21.0020  -39.8530    9.6330 C.3       1 EV4        -0.0297
     21 C21        21.1580  -38.5200    8.9190 C.3       1 EV4        -0.0510
     22 C22        21.2570  -38.6860    7.4070 C.3       1 EV4        -0.0529
     23 C23        20.2680  -39.6870    6.7830 C.3       1 EV4        -0.0510
     24 C24        20.3040  -40.9910    7.5620 C.3       1 EV4        -0.0297
     25 H1         16.3277  -41.4188   11.1587 H         1 EV4         0.0534
     26 H2         16.8605  -36.6626    9.5562 H         1 EV4         0.0523
     27 H3         17.1417  -39.6375   12.6849 H         1 EV4         0.0519
     28 H4         15.1588  -39.4547    5.4159 H         1 EV4         0.1860
     29 H5         14.9340  -41.1658    5.8681 H         1 EV4         0.1860
     30 H6         14.4521  -42.5103    7.9689 H         1 EV4         0.0598
     31 H7         15.3006  -42.5931    9.5500 H         1 EV4         0.0598
     32 H8         16.2596  -43.2550    6.7950 H         1 EV4         0.0315
     33 H9         16.6471  -44.0182    8.3742 H         1 EV4         0.0315
     34 H10        17.7482  -41.2799    7.7019 H         1 EV4         0.0503
     35 H11        18.5201  -42.7621    7.0430 H         1 EV4         0.0503
     36 H12        19.8402  -42.8520   11.4861 H         1 EV4         0.0486
     37 H13        19.9316  -41.0659   11.6533 H         1 EV4         0.0486
     38 H14        21.2637  -41.9619   10.8475 H         1 EV4         0.0486
     39 H15        18.9744  -39.8933    8.8740 H         1 EV4         0.0558
     40 H16        21.9234  -40.4466    9.5399 H         1 EV4         0.0287
     41 H17        20.7753  -39.6923   10.6973 H         1 EV4         0.0287
     42 H18        22.0725  -38.0283    9.2822 H         1 EV4         0.0266
     43 H19        20.2864  -37.8900    9.1500 H         1 EV4         0.0266
     44 H20        22.2764  -39.0243    7.1694 H         1 EV4         0.0265
     45 H21        21.0800  -37.7031    6.9460 H         1 EV4         0.0265
     46 H22        20.5506  -39.8774    5.7371 H         1 EV4         0.0266
     47 H23        19.2517  -39.2677    6.8177 H         1 EV4         0.0266
     48 H24        19.6176  -41.7324    7.1271 H         1 EV4         0.0287
     49 H25        21.3217  -41.4072    7.5926 H         1 EV4         0.0287
@<TRIPOS>BOND
     1    1    2 ar 
     2    1    6 ar 
     3    2    3 ar 
     4    2    8 1  
     5    3    4 ar 
     6    3   10 1  
     7    4    5 ar 
     8    5    6 ar 
     9    5    7 1  
    10    8    9 1  
    11    8   12 1  
    12    9   10 2  
    13    9   11 1  
    14   12   13 1  
    15   13   14 1  
    16   14   15 1  
    17   15   16 2  
    18   15   17 am 
    19   17   18 1  
    20   17   19 1  
    21   19   20 1  
    22   19   24 1  
    23   20   21 1  
    24   21   22 1  
    25   22   23 1  
    26   23   24 1  
    27    1   25 1  
    28    4   26 1  
    29    6   27 1  
    30   11   28 1  
    31   11   29 1  
    32   12   30 1  
    33   12   31 1  
    34   13   32 1  
    35   13   33 1  
    36   14   34 1  
    37   14   35 1  
    38   18   36 1  
    39   18   37 1  
    40   18   38 1  
    41   19   39 1  
    42   20   40 1  
    43   20   41 1  
    44   21   42 1  
    45   21   43 1  
    46   22   44 1  
    47   22   45 1  
    48   23   46 1  
    49   23   47 1  
    50   24   48 1  
    51   24   49 1  
@<TRIPOS>SUBSTRUCTURE
     1 EV4         1

