### 
### Created by X-TOOL on Mon Sep 10 21:13:04 2018
### 

@<TRIPOS>MOLECULE
3msl_ligand
   52    54     1     0     0
SMALL
GAST_HUCK


@<TRIPOS>ATOM
      1 C1         16.1240  -39.8010    9.4860 C.ar      1 EV5         0.0787
      2 C2         16.3290  -40.1780   10.8120 C.ar      1 EV5        -0.0440
      3 C3         16.7120  -39.2160   11.7480 C.ar      1 EV5        -0.0648
      4 C4         16.8960  -37.8790   11.3850 C.ar      1 EV5         0.0207
      5 C5         16.7030  -37.4520   10.0710 C.ar      1 EV5        -0.0554
      6 C6         16.3210  -38.3730    9.1020 C.ar      1 EV5         0.0121
      7 N7         16.0640  -38.2780    7.7840 N.2       1 EV5        -0.3136
      8 C8         15.7430  -39.5300    7.4130 C.2       1 EV5         0.2136
      9 N9         15.7630  -40.4650    8.3790 N.pl3     1 EV5        -0.2109
     10 N10        15.4230  -39.7900    6.1210 N.pl3     1 EV5        -0.2885
     11 CL11       17.3890  -36.6830   12.6280 Cl        1 EV5        -0.0825
     12 C12        15.4640  -41.9290    8.3070 C.3       1 EV5         0.0849
     13 C13        14.0700  -42.1990    7.7390 C.3       1 EV5        -0.0244
     14 C14        12.9790  -41.6580    8.6390 C.3       1 EV5        -0.0625
     15 C15        16.5270  -42.6560    7.4810 C.3       1 EV5         0.0663
     16 C16        17.9150  -42.3890    8.0250 C.2       1 EV5         0.1788
     17 N17        18.7410  -41.7300    7.2110 N.am      1 EV5        -0.2866
     18 O18        18.2320  -42.7680    9.1430 O.2       1 EV5        -0.3970
     19 C19        20.1270  -41.3260    7.4290 C.3       1 EV5         0.0337
     20 C20        20.0900  -39.9460    8.0830 C.3       1 EV5        -0.0208
     21 C21        19.5460  -38.9000    7.1070 C.3       1 EV5        -0.0484
     22 C22        19.5480  -37.5000    7.7230 C.3       1 EV5        -0.0527
     23 C23        20.9360  -37.1020    8.2270 C.3       1 EV5        -0.0530
     24 C24        21.5370  -38.1630    9.1510 C.3       1 EV5        -0.0527
     25 C25        21.5040  -39.5570    8.5210 C.3       1 EV5        -0.0484
     26 H1         16.1921  -41.2100   11.1140 H         1 EV5         0.0534
     27 H2         16.8701  -39.5123   12.7787 H         1 EV5         0.0519
     28 H3         16.8496  -36.4108    9.8076 H         1 EV5         0.0523
     29 H4         15.4258  -39.0293    5.4266 H         1 EV5         0.1860
     30 H5         15.1771  -40.7482    5.8341 H         1 EV5         0.1860
     31 H6         15.4942  -42.3293    9.3311 H         1 EV5         0.0658
     32 H7         13.9347  -43.2852    7.6297 H         1 EV5         0.0292
     33 H8         13.9885  -41.7183    6.7530 H         1 EV5         0.0292
     34 H9         11.9963  -41.8733    8.1940 H         1 EV5         0.0231
     35 H10        13.1009  -40.5704    8.7500 H         1 EV5         0.0231
     36 H11        13.0472  -42.1373    9.6267 H         1 EV5         0.0231
     37 H12        16.4754  -42.3051    6.4398 H         1 EV5         0.0531
     38 H13        16.3301  -43.7377    7.5136 H         1 EV5         0.0531
     39 H14        18.3556  -41.4761    6.3239 H         1 EV5         0.1851
     40 H15        20.6616  -41.2752    6.4690 H         1 EV5         0.0522
     41 H16        20.6308  -42.0451    8.0917 H         1 EV5         0.0522
     42 H17        19.4353  -39.9850    8.9660 H         1 EV5         0.0320
     43 H18        18.5147  -39.1685    6.8343 H         1 EV5         0.0269
     44 H19        20.1742  -38.8935    6.2040 H         1 EV5         0.0269
     45 H20        18.8440  -37.4820    8.5680 H         1 EV5         0.0265
     46 H21        19.2249  -36.7755    6.9610 H         1 EV5         0.0265
     47 H22        20.8547  -36.1546    8.7800 H         1 EV5         0.0265
     48 H23        21.6021  -36.9659    7.3623 H         1 EV5         0.0265
     49 H24        20.9627  -38.1836   10.0890 H         1 EV5         0.0265
     50 H25        22.5819  -37.8954    9.3666 H         1 EV5         0.0265
     51 H26        22.1651  -39.5667    7.6419 H         1 EV5         0.0269
     52 H27        21.8634  -40.2901    9.2582 H         1 EV5         0.0269
@<TRIPOS>BOND
     1    1    2 ar 
     2    1    6 ar 
     3    1    9 1  
     4    2    3 ar 
     5    3    4 ar 
     6    4    5 ar 
     7    4   11 1  
     8    5    6 ar 
     9    6    7 1  
    10    7    8 2  
    11    8    9 1  
    12    8   10 1  
    13    9   12 1  
    14   12   13 1  
    15   12   15 1  
    16   13   14 1  
    17   15   16 1  
    18   16   17 am 
    19   16   18 2  
    20   17   19 1  
    21   19   20 1  
    22   20   21 1  
    23   20   25 1  
    24   21   22 1  
    25   22   23 1  
    26   23   24 1  
    27   24   25 1  
    28    2   26 1  
    29    3   27 1  
    30    5   28 1  
    31   10   29 1  
    32   10   30 1  
    33   12   31 1  
    34   13   32 1  
    35   13   33 1  
    36   14   34 1  
    37   14   35 1  
    38   14   36 1  
    39   15   37 1  
    40   15   38 1  
    41   17   39 1  
    42   19   40 1  
    43   19   41 1  
    44   20   42 1  
    45   21   43 1  
    46   21   44 1  
    47   22   45 1  
    48   22   46 1  
    49   23   47 1  
    50   23   48 1  
    51   24   49 1  
    52   24   50 1  
    53   25   51 1  
    54   25   52 1  
@<TRIPOS>SUBSTRUCTURE
     1 EV5         1

