### 
### Created by X-TOOL on Mon Sep 10 21:13:06 2018
### 

@<TRIPOS>MOLECULE
3mt7_ligand
   42    43     1     0     0
SMALL
GAST_HUCK


@<TRIPOS>ATOM
      1 C1         19.4060   15.1210   56.1550 C.3       1 16O         0.1785
      2 N1         18.9420   13.8410   55.6620 N.am      1 16O        -0.2524
      3 S1         18.5840   13.0230   58.1690 S.2       1 16O        -0.2042
      4 BR1        17.2930    9.4990   48.2620 Br        1 16O        -0.0561
      5 C2         20.7350   15.4720   55.4670 C.3       1 16O         0.1330
      6 N2         18.1020   11.7540   55.9480 N.2       1 16O        -0.1033
      7 O2         21.7650   14.5700   55.9010 O.3       1 16O        -0.3842
      8 C3         21.0660   16.9480   55.7510 C.3       1 16O         0.1140
      9 N3         18.0700   11.6460   54.7170 N.2       1 16O        -0.1639
     10 O3         22.2310   17.3610   55.0310 O.3       1 16O        -0.3864
     11 C4         19.8820   17.8420   55.3630 C.3       1 16O         0.1119
     12 O4         20.1450   19.2230   55.6380 O.3       1 16O        -0.3865
     13 C5         18.6490   17.3850   56.1350 C.3       1 16O         0.1130
     14 O5         18.3920   16.0370   55.7370 O.3       1 16O        -0.3416
     15 C6         17.3940   18.2320   55.9030 C.3       1 16O         0.0730
     16 O6         17.1900   18.4360   54.5000 O.3       1 16O        -0.3924
     17 C7         18.5370   12.8740   56.4810 C.2       1 16O         0.1993
     18 C8         17.6520   10.5710   54.2470 C.3       1 16O         0.0979
     19 C9         17.5800   10.3450   52.8000 C.ar      1 16O        -0.0167
     20 C10        16.7510    9.3290   52.3420 C.ar      1 16O        -0.0556
     21 C11        16.6760    9.0840   50.9810 C.ar      1 16O        -0.0589
     22 C12        17.4220    9.8570   50.1050 C.ar      1 16O         0.0056
     23 C13        18.2520   10.8890   50.5560 C.ar      1 16O        -0.0589
     24 C14        18.3320   11.1300   51.9180 C.ar      1 16O        -0.0556
     25 H1         19.5248   15.1184   57.2486 H         1 16O         0.0925
     26 H2         18.9255   13.6789   54.6754 H         1 16O         0.2021
     27 H3         20.6143   15.3507   54.3804 H         1 16O         0.0670
     28 H4         21.8710   14.6415   56.8423 H         1 16O         0.2101
     29 H5         21.2588   17.0618   56.8280 H         1 16O         0.0648
     30 H6         22.0795   17.2565   54.0990 H         1 16O         0.2100
     31 H7         19.6937   17.7305   54.2850 H         1 16O         0.0647
     32 H8         20.9059   19.5039   55.1435 H         1 16O         0.2100
     33 H9         18.8817   17.4130   57.2097 H         1 16O         0.0647
     34 H10        17.5161   19.2066   56.3983 H         1 16O         0.0584
     35 H11        16.5213   17.7126   56.3257 H         1 16O         0.0584
     36 H12        16.4100   18.9619   54.3677 H         1 16O         0.2095
     37 H13        16.6303   10.4397   54.6329 H         1 16O         0.0702
     38 H14        18.3015    9.7813   54.6526 H         1 16O         0.0702
     39 H15        16.1709    8.7362   53.0400 H         1 16O         0.0564
     40 H16        16.0382    8.2930   50.6033 H         1 16O         0.0626
     41 H17        18.8209   11.4879   49.8541 H         1 16O         0.0626
     42 H18        18.9711   11.9192   52.2972 H         1 16O         0.0564
@<TRIPOS>BOND
     1    2    1 1  
     2    1    5 1  
     3    1   14 1  
     4   17    2 am 
     5   17    3 2  
     6   22    4 1  
     7    5    7 1  
     8    5    8 1  
     9    9    6 2  
    10    6   17 1  
    11    8   10 1  
    12    8   11 1  
    13   18    9 1  
    14   11   12 1  
    15   13   11 1  
    16   14   13 1  
    17   13   15 1  
    18   15   16 1  
    19   19   18 1  
    20   20   19 ar 
    21   19   24 ar 
    22   21   20 ar 
    23   21   22 ar 
    24   22   23 ar 
    25   23   24 ar 
    26    1   25 1  
    27    2   26 1  
    28    5   27 1  
    29    7   28 1  
    30    8   29 1  
    31   10   30 1  
    32   11   31 1  
    33   12   32 1  
    34   13   33 1  
    35   15   34 1  
    36   15   35 1  
    37   16   36 1  
    38   18   37 1  
    39   18   38 1  
    40   20   39 1  
    41   21   40 1  
    42   23   41 1  
    43   24   42 1  
@<TRIPOS>SUBSTRUCTURE
     1 16O         1

