### 
### Created by X-TOOL on Mon Sep 10 21:13:06 2018
### 

@<TRIPOS>MOLECULE
3mt8_ligand
   42    43     1     0     0
SMALL
GAST_HUCK


@<TRIPOS>ATOM
      1 C1         19.2280   15.2390   56.0780 C.3       1 17T         0.1777
      2 N1         18.7520   13.9380   55.5770 N.pl3     1 17T        -0.2472
      3 S1         18.3770   13.0950   58.1280 S.3       1 17T        -0.0434
      4 CL1        17.3450    9.7220   48.2320 Cl        1 17T        -0.0684
      5 C2         20.5900   15.5880   55.4290 C.3       1 17T         0.1323
      6 N2         17.9410   11.7950   55.8330 N.2       1 17T        -0.2466
      7 O2         21.6030   14.6850   55.8860 O.3       1 17T        -0.3843
      8 C3         20.9820   17.0450   55.7320 C.3       1 17T         0.1139
      9 N3         17.9190   11.6680   54.6080 N.2       1 17T        -0.2688
     10 O3         22.1570   17.4110   54.9960 O.3       1 17T        -0.3864
     11 C4         19.8270   17.9890   55.3710 C.3       1 17T         0.1119
     12 O4         20.1660   19.3410   55.7000 O.3       1 17T        -0.3865
     13 C5         18.5500   17.5660   56.1170 C.3       1 17T         0.1129
     14 O5         18.2130   16.2090   55.7120 O.3       1 17T        -0.3422
     15 C6         17.3400   18.4770   55.8600 C.3       1 17T         0.0730
     16 O6         16.9610   18.3970   54.4830 O.3       1 17T        -0.3924
     17 C7         18.3570   12.9380   56.3760 C.2       1 17T         0.1837
     18 C8         17.5070   10.5430   54.0620 C.2       1 17T         0.0204
     19 C9         17.4810   10.3770   52.6820 C.ar      1 17T        -0.0035
     20 C10        16.6920    9.3610   52.1450 C.ar      1 17T        -0.0498
     21 C11        16.6600    9.1660   50.7700 C.ar      1 17T        -0.0451
     22 C12        17.4090    9.9870   49.9350 C.ar      1 17T         0.0426
     23 C13        18.2000   11.0100   50.4620 C.ar      1 17T        -0.0451
     24 C14        18.2350   11.2020   51.8410 C.ar      1 17T        -0.0498
     25 H1         19.3432   15.2078   57.1715 H         1 17T         0.0915
     26 H2         18.7213   13.7894   54.5582 H         1 17T         0.1995
     27 H3         18.0450   12.2393   58.5447 H         1 17T         0.1387
     28 H4         20.4929   15.4769   54.3390 H         1 17T         0.0669
     29 H5         22.4323   14.9099   55.4808 H         1 17T         0.2101
     30 H6         21.1941   17.1376   56.8074 H         1 17T         0.0648
     31 H7         21.9866   17.3234   54.0655 H         1 17T         0.2100
     32 H8         19.6428   17.9247   54.2884 H         1 17T         0.0647
     33 H9         20.9407   19.5992   55.2145 H         1 17T         0.2100
     34 H10        18.7631   17.5794   57.1961 H         1 17T         0.0647
     35 H11        17.6052   19.5157   56.1066 H         1 17T         0.0584
     36 H12        16.4984   18.1539   56.4903 H         1 17T         0.0584
     37 H13        16.2128   18.9615   54.3284 H         1 17T         0.2095
     38 H14        17.1801    9.7264   54.7041 H         1 17T         0.0897
     39 H15        16.1054    8.7252   52.7982 H         1 17T         0.0643
     40 H16        16.0514    8.3742   50.3485 H         1 17T         0.0628
     41 H17        18.7804   11.6477   49.8050 H         1 17T         0.0628
     42 H18        18.8469   11.9912   52.2627 H         1 17T         0.0643
@<TRIPOS>BOND
     1    2    1 1  
     2    1    5 1  
     3    1   14 1  
     4   17    2 1  
     5   17    3 1  
     6   22    4 1  
     7    5    7 1  
     8    5    8 1  
     9    9    6 1  
    10    6   17 2  
    11    8   10 1  
    12    8   11 1  
    13   18    9 2  
    14   11   12 1  
    15   13   11 1  
    16   14   13 1  
    17   13   15 1  
    18   15   16 1  
    19   19   18 1  
    20   20   19 ar 
    21   19   24 ar 
    22   21   20 ar 
    23   21   22 ar 
    24   22   23 ar 
    25   23   24 ar 
    26    1   25 1  
    27    2   26 1  
    28    3   27 1  
    29    5   28 1  
    30    7   29 1  
    31    8   30 1  
    32   10   31 1  
    33   11   32 1  
    34   12   33 1  
    35   13   34 1  
    36   15   35 1  
    37   15   36 1  
    38   16   37 1  
    39   18   38 1  
    40   20   39 1  
    41   21   40 1  
    42   23   41 1  
    43   24   42 1  
@<TRIPOS>SUBSTRUCTURE
     1 17T         1

