### 
### Created by X-TOOL on Mon Sep 10 21:13:05 2018
### 

@<TRIPOS>MOLECULE
3mt9_ligand
   44    45     1     0     0
SMALL
GAST_HUCK


@<TRIPOS>ATOM
      1 C1         19.3190   15.2560   56.1900 C.3       1 18O         0.1785
      2 N1         18.8600   13.9520   55.7230 N.am      1 18O        -0.2524
      3 S1         18.6050   13.0120   58.2190 S.2       1 18O        -0.2042
      4 C2         20.6560   15.5480   55.4780 C.3       1 18O         0.1330
      5 N2         18.1110   11.7920   55.9720 N.2       1 18O        -0.1032
      6 O2         21.6800   14.6140   55.8580 O.3       1 18O        -0.3842
      7 C3         21.0790   16.9990   55.7390 C.3       1 18O         0.1140
      8 N3         18.0460   11.6980   54.7370 N.2       1 18O        -0.1633
      9 O3         22.2580   17.3340   55.0000 O.3       1 18O        -0.3864
     10 C4         19.9550   17.9390   55.2980 C.3       1 18O         0.1119
     11 N4         17.3780   10.2120   48.5600 N.2       1 18O         0.3095
     12 O4         20.2590   19.3020   55.6000 O.3       1 18O        -0.3865
     13 C5         18.6350   17.5950   55.9710 C.3       1 18O         0.1130
     14 O5         18.3220   16.2070   55.7830 O.3       1 18O        -0.3416
     15 C6         17.5510   18.4470   55.3250 C.3       1 18O         0.0730
     16 O6         16.2890   18.0220   55.8330 O.3       1 18O        -0.3924
     17 C7         18.5230   12.9310   56.5250 C.2       1 18O         0.1993
     18 O7         17.5460   11.1880   47.8500 O.2       1 18O         0.1751
     19 C8         17.6660   10.6290   54.2010 C.3       1 18O         0.0993
     20 O8         17.0900    9.1390   48.0510 O.2       1 18O         0.1751
     21 C9         17.5960   10.5330   52.7300 C.ar      1 18O        -0.0136
     22 C10        18.2750   11.4590   51.9300 C.ar      1 18O        -0.0499
     23 C11        18.2120   11.3610   50.5450 C.ar      1 18O        -0.0252
     24 C12        17.4710   10.3280   49.9610 C.ar      1 18O         0.1925
     25 C13        16.7950    9.4050   50.7650 C.ar      1 18O        -0.0252
     26 C14        16.8520    9.5060   52.1530 C.ar      1 18O        -0.0499
     27 H1         19.4493   15.2694   57.2822 H         1 18O         0.0925
     28 H2         18.7919   13.8095   54.7355 H         1 18O         0.2021
     29 H3         20.4927   15.4349   54.3961 H         1 18O         0.0670
     30 H4         22.4854   14.8254   55.4007 H         1 18O         0.2101
     31 H5         21.2729   17.1305   56.8138 H         1 18O         0.0648
     32 H6         22.4974   18.2356   55.1795 H         1 18O         0.2100
     33 H7         19.8338   17.8364   54.2095 H         1 18O         0.0647
     34 H8         21.0560   19.5550   55.1490 H         1 18O         0.2100
     35 H9         18.6965   17.8150   57.0470 H         1 18O         0.0647
     36 H10        17.5760   18.3164   54.2331 H         1 18O         0.0584
     37 H11        17.7139   19.5066   55.5714 H         1 18O         0.0584
     38 H12        16.1554   17.1059   55.6199 H         1 18O         0.2095
     39 H13        16.6551   10.4226   54.5825 H         1 18O         0.0709
     40 H14        18.3539    9.8403   54.5397 H         1 18O         0.0709
     41 H15        18.8506   12.2535   52.3910 H         1 18O         0.0574
     42 H16        18.7329   12.0793   49.9223 H         1 18O         0.0676
     43 H17        16.2235    8.6066   50.3056 H         1 18O         0.0676
     44 H18        16.3238    8.7941   52.7769 H         1 18O         0.0574
@<TRIPOS>BOND
     1    2    1 1  
     2    1    4 1  
     3    1   14 1  
     4   17    2 am 
     5   17    3 2  
     6    4    6 1  
     7    4    7 1  
     8    8    5 2  
     9    5   17 1  
    10    7    9 1  
    11    7   10 1  
    12   19    8 1  
    13   10   12 1  
    14   13   10 1  
    15   11   18 2  
    16   11   20 2  
    17   24   11 1  
    18   14   13 1  
    19   13   15 1  
    20   15   16 1  
    21   21   19 1  
    22   22   21 ar 
    23   21   26 ar 
    24   23   22 ar 
    25   23   24 ar 
    26   24   25 ar 
    27   25   26 ar 
    28    1   27 1  
    29    2   28 1  
    30    4   29 1  
    31    6   30 1  
    32    7   31 1  
    33    9   32 1  
    34   10   33 1  
    35   12   34 1  
    36   13   35 1  
    37   15   36 1  
    38   15   37 1  
    39   16   38 1  
    40   19   39 1  
    41   19   40 1  
    42   22   41 1  
    43   23   42 1  
    44   25   43 1  
    45   26   44 1  
@<TRIPOS>SUBSTRUCTURE
     1 18O         1

