### 
### Created by X-TOOL on Mon Sep 10 21:13:06 2018
### 

@<TRIPOS>MOLECULE
3mta_ligand
   42    43     1     0     0
SMALL
GAST_HUCK


@<TRIPOS>ATOM
      1 C1         19.1760   15.2700   56.0100 C.3       1 22O         0.1777
      2 N1         18.7250   13.9240   55.5660 N.pl3     1 22O        -0.2472
      3 S1         18.2710   13.2110   58.1530 S.3       1 22O        -0.0434
      4 BR1        19.2410   11.6750   49.5480 Br        1 22O        -0.0493
      5 C2         20.6180   15.6350   55.5780 C.3       1 22O         0.1323
      6 N2         17.9100   11.7850   55.9480 N.2       1 22O        -0.2466
      7 O2         21.5760   14.8180   56.2640 O.3       1 22O        -0.3843
      8 C3         20.9080   17.1290   55.8340 C.3       1 22O         0.1139
      9 N3         17.9090   11.5470   54.7430 N.2       1 22O        -0.2687
     10 O3         22.1620   17.5200   55.2590 O.3       1 22O        -0.3864
     11 C4         19.7760   17.9960   55.2650 C.3       1 22O         0.1119
     12 O4         20.0150   19.3700   55.5560 O.3       1 22O        -0.3865
     13 C5         18.4400   17.5620   55.8820 C.3       1 22O         0.1129
     14 O5         18.2120   16.2000   55.4350 O.3       1 22O        -0.3422
     15 C6         17.2250   18.4740   55.5830 C.3       1 22O         0.0730
     16 O6         17.2160   18.9050   54.2160 O.3       1 22O        -0.3924
     17 C7         18.3100   12.9690   56.4140 C.2       1 22O         0.1837
     18 C8         17.5100   10.3680   54.3150 C.2       1 22O         0.0211
     19 C9         17.5090   10.0800   52.9570 C.ar      1 22O        -0.0005
     20 C10        16.7860    8.9910   52.4720 C.ar      1 22O        -0.0475
     21 C11        16.7960    8.7010   51.1090 C.ar      1 22O        -0.0564
     22 C12        17.5270    9.5000   50.2350 C.ar      1 22O        -0.0503
     23 C13        18.2470   10.5850   50.7240 C.ar      1 22O         0.0158
     24 C14        18.2440   10.8760   52.0810 C.ar      1 22O        -0.0403
     25 H1         19.1298   15.3190   57.1079 H         1 22O         0.0915
     26 H2         18.7313   13.7139   54.5577 H         1 22O         0.1995
     27 H3         17.9293   12.3746   58.5999 H         1 22O         0.1387
     28 H4         20.7117   15.4453   54.4986 H         1 22O         0.0669
     29 H5         22.4520   15.0574   55.9853 H         1 22O         0.2101
     30 H6         20.9597   17.2899   56.9209 H         1 22O         0.0648
     31 H7         22.1389   17.3717   54.3209 H         1 22O         0.2100
     32 H8         19.7322   17.8615   54.1741 H         1 22O         0.0647
     33 H9         20.8386   19.6368   55.1647 H         1 22O         0.2100
     34 H10        18.5648   17.5545   56.9749 H         1 22O         0.0647
     35 H11        17.2720   19.3578   56.2362 H         1 22O         0.0584
     36 H12        16.2997   17.9155   55.7878 H         1 22O         0.0584
     37 H13        17.1707   18.1462   53.6462 H         1 22O         0.2095
     38 H14        17.1793    9.6153   55.0292 H         1 22O         0.0899
     39 H15        16.2166    8.3705   53.1545 H         1 22O         0.0666
     40 H16        16.2352    7.8543   50.7301 H         1 22O         0.0629
     41 H17        17.5353    9.2770   49.1742 H         1 22O         0.0659
     42 H18        18.8113   11.7193   52.4579 H         1 22O         0.0672
@<TRIPOS>BOND
     1    2    1 1  
     2    1    5 1  
     3    1   14 1  
     4   17    2 1  
     5   17    3 1  
     6   23    4 1  
     7    5    7 1  
     8    5    8 1  
     9    9    6 1  
    10    6   17 2  
    11    8   10 1  
    12    8   11 1  
    13   18    9 2  
    14   11   12 1  
    15   13   11 1  
    16   14   13 1  
    17   13   15 1  
    18   15   16 1  
    19   19   18 1  
    20   20   19 ar 
    21   19   24 ar 
    22   21   20 ar 
    23   22   21 ar 
    24   22   23 ar 
    25   23   24 ar 
    26    1   25 1  
    27    2   26 1  
    28    3   27 1  
    29    5   28 1  
    30    7   29 1  
    31    8   30 1  
    32   10   31 1  
    33   11   32 1  
    34   12   33 1  
    35   13   34 1  
    36   15   35 1  
    37   15   36 1  
    38   16   37 1  
    39   18   38 1  
    40   20   39 1  
    41   21   40 1  
    42   22   41 1  
    43   24   42 1  
@<TRIPOS>SUBSTRUCTURE
     1 22O         1

