### 
### Created by X-TOOL on Mon Sep 10 21:13:06 2018
### 

@<TRIPOS>MOLECULE
3mtb_ligand
   42    43     1     0     0
SMALL
GAST_HUCK


@<TRIPOS>ATOM
      1 C1         19.2530   15.1380   56.0450 C.3       1 23V         0.1785
      2 N1         18.8210   13.8340   55.5510 N.am      1 23V        -0.2524
      3 S1         18.2320   13.0110   58.0260 S.2       1 23V        -0.2042
      4 CL1        19.2830   11.6320   49.3320 Cl        1 23V        -0.0725
      5 C2         20.6610   15.4900   55.5110 C.3       1 23V         0.1330
      6 N2         17.9490   11.7030   55.7790 N.2       1 23V        -0.1034
      7 O2         21.6710   14.6010   56.0220 O.3       1 23V        -0.3842
      8 C3         21.0010   16.9500   55.8590 C.3       1 23V         0.1140
      9 N3         18.0010   11.5210   54.5460 N.2       1 23V        -0.1645
     10 O3         16.2880   17.5560   55.1190 O.3       1 23V        -0.3924
     11 C4         19.8890   17.8900   55.3770 C.3       1 23V         0.1119
     12 O4         20.1100   19.2220   55.8410 O.3       1 23V        -0.3865
     13 C5         18.5410   17.4320   55.9170 C.3       1 23V         0.1130
     14 O5         18.3020   16.0770   55.5140 O.3       1 23V        -0.3416
     15 C6         17.4350   18.3490   55.4090 C.3       1 23V         0.0730
     16 O6         22.2470   17.3650   55.2830 O.3       1 23V        -0.3864
     17 C7         18.3420   12.8520   56.3330 C.2       1 23V         0.1993
     18 C8         17.6200   10.4170   54.0820 C.3       1 23V         0.0966
     19 C9         17.6510   10.1090   52.6340 C.ar      1 23V        -0.0191
     20 C10        18.3660   10.9200   51.7720 C.ar      1 23V        -0.0446
     21 C11        18.3770   10.5820   50.4250 C.ar      1 23V         0.0338
     22 C12        17.7060    9.4760   49.9050 C.ar      1 23V        -0.0548
     23 C13        16.9920    8.6650   50.7690 C.ar      1 23V        -0.0680
     24 C14        16.9670    8.9930   52.1290 C.ar      1 23V        -0.0583
     25 H1         19.2539   15.1558   57.1448 H         1 23V         0.0925
     26 H2         18.8857   13.6606   54.5683 H         1 23V         0.2021
     27 H3         20.6450   15.3898   54.4157 H         1 23V         0.0670
     28 H4         22.5178   14.8506   55.6712 H         1 23V         0.2101
     29 H5         21.0810   17.0306   56.9531 H         1 23V         0.0648
     30 H6         16.5082   16.9138   54.4545 H         1 23V         0.2095
     31 H7         19.8676   17.8836   54.2772 H         1 23V         0.0647
     32 H8         20.9424   19.5378   55.5092 H         1 23V         0.2100
     33 H9         18.5611   17.4780   57.0158 H         1 23V         0.0647
     34 H10        17.1864   19.0929   56.1802 H         1 23V         0.0584
     35 H11        17.7701   18.8643   54.4968 H         1 23V         0.0584
     36 H12        22.4394   18.2548   55.5546 H         1 23V         0.2100
     37 H13        16.5728   10.2983   54.3971 H         1 23V         0.0695
     38 H14        18.2392    9.6503   54.5706 H         1 23V         0.0695
     39 H15        18.9001   11.7905   52.1355 H         1 23V         0.0562
     40 H16        17.7430    9.2558   48.8442 H         1 23V         0.0565
     41 H17        16.4630    7.7937   50.4001 H         1 23V         0.0599
     42 H18        16.4034    8.3673   52.8116 H         1 23V         0.0559
@<TRIPOS>BOND
     1    2    1 1  
     2    1    5 1  
     3    1   14 1  
     4   17    2 am 
     5   17    3 2  
     6   21    4 1  
     7    5    7 1  
     8    5    8 1  
     9    9    6 2  
    10    6   17 1  
    11    8   11 1  
    12    8   16 1  
    13   18    9 1  
    14   15   10 1  
    15   11   12 1  
    16   13   11 1  
    17   14   13 1  
    18   13   15 1  
    19   19   18 1  
    20   20   19 ar 
    21   19   24 ar 
    22   20   21 ar 
    23   21   22 ar 
    24   22   23 ar 
    25   23   24 ar 
    26    1   25 1  
    27    2   26 1  
    28    5   27 1  
    29    7   28 1  
    30    8   29 1  
    31   10   30 1  
    32   11   31 1  
    33   12   32 1  
    34   13   33 1  
    35   15   34 1  
    36   15   35 1  
    37   16   36 1  
    38   18   37 1  
    39   18   38 1  
    40   20   39 1  
    41   22   40 1  
    42   23   41 1  
    43   24   42 1  
@<TRIPOS>SUBSTRUCTURE
     1 23V         1

