### 
### Created by X-TOOL on Mon Sep 10 21:13:06 2018
### 

@<TRIPOS>MOLECULE
3mtd_ligand
   43    44     1     0     0
SMALL
GAST_HUCK


@<TRIPOS>ATOM
      1 C1         33.5170   22.8360   27.8140 C.3       1 25E         0.1785
      2 C2         33.8630   23.1060   26.3480 C.3       1 25E         0.1330
      3 O2         34.0290   24.5190   26.1150 O.3       1 25E        -0.3842
      4 C3         32.7270   22.5220   25.4910 C.3       1 25E         0.1140
      5 O3         33.0140   22.6670   24.0900 O.3       1 25E        -0.3864
      6 C4         32.4440   21.0480   25.8400 C.3       1 25E         0.1119
      7 O4         31.2320   20.6480   25.2040 O.3       1 25E        -0.3865
      8 C5         32.3130   20.8190   27.3620 C.3       1 25E         0.1130
      9 O5         33.4230   21.4160   28.0350 O.3       1 25E        -0.3416
     10 C6         32.2080   19.3500   27.7930 C.3       1 25E         0.0730
     11 O6         33.2490   18.5370   27.2150 O.3       1 25E        -0.3924
     12 NAL        34.5970   23.2930   28.6730 N.am      1 25E        -0.2524
     13 CAM        34.3730   24.0010   29.7900 C.2       1 25E         0.1993
     14 NAN        35.4520   24.3210   30.5150 N.2       1 25E        -0.1036
     15 SAO        32.7890   24.4750   30.2480 S.2       1 25E        -0.2042
     16 NAP        36.5770   23.9310   30.1040 N.2       1 25E        -0.1663
     17 CAQ        37.6710   24.1590   30.6880 C.3       1 25E         0.0917
     18 CAR        37.8420   24.9290   31.9580 C.ar      1 25E        -0.0303
     19 CAS        36.7480   25.3140   32.7460 C.ar      1 25E        -0.0669
     20 CAT        36.9470   26.0330   33.9260 C.ar      1 25E        -0.0398
     21 CAU        38.2450   26.3650   34.3230 C.ar      1 25E         0.0805
     22 CAV        39.3420   25.9860   33.5450 C.ar      1 25E        -0.0398
     23 CAW        39.1360   25.2650   32.3680 C.ar      1 25E        -0.0669
     24 OAX        38.4490   27.0620   35.4750 O.3       1 25E        -0.3376
     25 H1         32.5728   23.3363   28.0751 H         1 25E         0.0925
     26 H2         34.8048   22.5967   26.0958 H         1 25E         0.0670
     27 H3         34.2429   24.6651   25.2010 H         1 25E         0.2101
     28 H4         31.8154   23.0975   25.7096 H         1 25E         0.0648
     29 H5         33.1113   23.5888   23.8816 H         1 25E         0.2100
     30 H6         33.2734   20.4319   25.4625 H         1 25E         0.0647
     31 H7         30.5186   21.1945   25.5122 H         1 25E         0.2100
     32 H8         31.3928   21.3247   27.6897 H         1 25E         0.0647
     33 H9         31.2321   18.9559   27.4732 H         1 25E         0.0584
     34 H10        32.2839   19.2961   28.8890 H         1 25E         0.0584
     35 H11        34.0963   18.8662   27.4909 H         1 25E         0.2095
     36 H12        35.5395   23.0719   28.4225 H         1 25E         0.2021
     37 H13        38.2908   24.6839   29.9461 H         1 25E         0.0674
     38 H14        38.1025   23.1677   30.8908 H         1 25E         0.0674
     39 H15        35.7424   25.0520   32.4373 H         1 25E         0.0531
     40 H16        36.0989   26.3322   34.5312 H         1 25E         0.0525
     41 H17        40.3469   26.2504   33.8538 H         1 25E         0.0525
     42 H18        39.9859   24.9630   31.7668 H         1 25E         0.0531
     43 H19        38.8888   27.8800   35.2752 H         1 25E         0.2458
@<TRIPOS>BOND
     1    1    2 1  
     2    1    9 1  
     3    1   12 1  
     4    2    3 1  
     5    2    4 1  
     6    4    5 1  
     7    4    6 1  
     8    6    7 1  
     9    6    8 1  
    10    8    9 1  
    11    8   10 1  
    12   10   11 1  
    13   12   13 am 
    14   13   14 1  
    15   13   15 2  
    16   14   16 2  
    17   16   17 1  
    18   17   18 1  
    19   18   19 ar 
    20   18   23 ar 
    21   19   20 ar 
    22   20   21 ar 
    23   21   22 ar 
    24   21   24 1  
    25   22   23 ar 
    26    1   25 1  
    27    2   26 1  
    28    3   27 1  
    29    4   28 1  
    30    5   29 1  
    31    6   30 1  
    32    7   31 1  
    33    8   32 1  
    34   10   33 1  
    35   10   34 1  
    36   11   35 1  
    37   12   36 1  
    38   17   37 1  
    39   17   38 1  
    40   19   39 1  
    41   20   40 1  
    42   22   41 1  
    43   23   42 1  
    44   24   43 1  
@<TRIPOS>SUBSTRUCTURE
     1 25E         1

