### 
### Created by X-TOOL on Mon Sep 10 21:13:07 2018
### 

@<TRIPOS>MOLECULE
3muz_ligand
   33    33     1     0     0
SMALL
GAST_HUCK


@<TRIPOS>ATOM
      1 C1         14.7350   27.5490   75.7920 C.3       1 IPT         0.1332
      2 C2         13.4070   27.4730   76.5790 C.3       1 IPT         0.1189
      3 O2         13.5070   26.4620   77.5770 O.3       1 IPT        -0.3857
      4 C3         12.2680   27.1460   75.6090 C.3       1 IPT         0.1126
      5 O3         11.0330   27.0700   76.3030 O.3       1 IPT        -0.3865
      6 C4         12.1940   28.2410   74.5400 C.3       1 IPT         0.1118
      7 O4         11.8580   29.5080   75.1420 O.3       1 IPT        -0.3865
      8 C5         13.5690   28.2990   73.8160 C.3       1 IPT         0.1115
      9 O5         14.6440   28.5660   74.7570 O.3       1 IPT        -0.3553
     10 C6         13.5530   29.3980   72.7380 C.3       1 IPT         0.0730
     11 O6         12.4340   29.2140   71.8720 O.3       1 IPT        -0.3924
     12 S1         16.1090   27.9480   76.9120 S.3       1 IPT        -0.1243
     13 C1'        17.5260   27.8860   75.7630 C.3       1 IPT         0.0021
     14 C2'        17.6510   29.1890   74.9720 C.3       1 IPT        -0.0535
     15 C3'        18.8120   27.6660   76.5770 C.3       1 IPT        -0.0535
     16 H1         14.9271   26.5734   75.3217 H         1 IPT         0.0740
     17 H2         13.2090   28.4418   77.0609 H         1 IPT         0.0655
     18 H3         12.6910   26.4147   78.0612 H         1 IPT         0.2100
     19 H4         12.4696   26.1782   75.1266 H         1 IPT         0.0647
     20 H5         10.8540   27.9041   76.7209 H         1 IPT         0.2100
     21 H6         11.4140   27.9827   73.8087 H         1 IPT         0.0647
     22 H7         11.8158   30.1762   74.4681 H         1 IPT         0.2100
     23 H8         13.7534   27.3277   73.3339 H         1 IPT         0.0646
     24 H9         14.4813   29.3456   72.1502 H         1 IPT         0.0584
     25 H10        13.4808   30.3829   73.2225 H         1 IPT         0.0584
     26 H11        12.4962   28.3640   71.4523 H         1 IPT         0.2095
     27 H12        17.3862   27.0506   75.0612 H         1 IPT         0.0407
     28 H13        18.5112   29.1226   74.2896 H         1 IPT         0.0240
     29 H14        17.7991   30.0278   75.6681 H         1 IPT         0.0240
     30 H15        16.7327   29.3538   74.3893 H         1 IPT         0.0240
     31 H16        19.6748   27.6266   75.8958 H         1 IPT         0.0240
     32 H17        18.7381   26.7182   77.1303 H         1 IPT         0.0240
     33 H18        18.9430   28.4958   77.2870 H         1 IPT         0.0240
@<TRIPOS>BOND
     1    1    2 1  
     2    1    9 1  
     3    1   12 1  
     4    2    3 1  
     5    2    4 1  
     6    4    5 1  
     7    4    6 1  
     8    6    7 1  
     9    6    8 1  
    10    8    9 1  
    11    8   10 1  
    12   10   11 1  
    13   12   13 1  
    14   13   14 1  
    15   13   15 1  
    16    1   16 1  
    17    2   17 1  
    18    3   18 1  
    19    4   19 1  
    20    5   20 1  
    21    6   21 1  
    22    7   22 1  
    23    8   23 1  
    24   10   24 1  
    25   10   25 1  
    26   11   26 1  
    27   13   27 1  
    28   14   28 1  
    29   14   29 1  
    30   14   30 1  
    31   15   31 1  
    32   15   32 1  
    33   15   33 1  
@<TRIPOS>SUBSTRUCTURE
     1 IPT         1

