### 
### Created by X-TOOL on Mon Sep 10 21:13:06 2018
### 

@<TRIPOS>MOLECULE
3mv0_ligand
   22    22     1     0     0
SMALL
GAST_HUCK


@<TRIPOS>ATOM
      1 C1        -10.8460  -27.5770  -26.2650 C.2       1 149         0.2660
      2 C2         -9.8730  -28.6300  -25.7000 C.3       1 149         0.1832
      3 C3         -8.9990  -29.2240  -26.8200 C.3       1 149         0.1280
      4 C4         -9.8750  -29.6480  -28.0020 C.3       1 149         0.1183
      5 C5        -10.4740  -28.3680  -28.6400 C.3       1 149         0.1389
      6 C6        -11.5660  -28.7440  -29.6480 C.3       1 149         0.0774
      7 O1        -11.4030  -26.8140  -25.5150 O.2       1 149        -0.3674
      8 O2         -9.0230  -28.0130  -24.7230 O.3       1 149        -0.3674
      9 O3         -8.2970  -30.3570  -26.3100 O.3       1 149        -0.3840
     10 O4        -10.9390  -30.5040  -27.5440 O.3       1 149        -0.3860
     11 O5        -11.0860  -27.4840  -27.6220 O.3       1 149        -0.2665
     12 O6        -10.9720  -29.3830  -30.7770 O.3       1 149        -0.3920
     13 H1        -10.4510  -29.4371  -25.2262 H         1 149         0.0881
     14 H2         -8.2759  -28.4673  -27.1584 H         1 149         0.0673
     15 H3         -9.2655  -30.1852  -28.7436 H         1 149         0.0652
     16 H4         -9.6705  -27.8221  -29.1560 H         1 149         0.0700
     17 H5        -12.0912  -27.8348  -29.9757 H         1 149         0.0587
     18 H6        -12.2825  -29.4304  -29.1733 H         1 149         0.0587
     19 H7         -8.5170  -27.3229  -25.1357 H         1 149         0.2136
     20 H8         -7.7552  -30.0889  -25.5771 H         1 149         0.2102
     21 H9        -11.4888  -30.7455  -28.2802 H         1 149         0.2100
     22 H10       -10.3535  -28.7895  -31.1863 H         1 149         0.2095
@<TRIPOS>BOND
     1    1    2 1  
     2    1    7 2  
     3    1   11 1  
     4    2    3 1  
     5    2    8 1  
     6    3    4 1  
     7    3    9 1  
     8    4    5 1  
     9    4   10 1  
    10    5    6 1  
    11    5   11 1  
    12    6   12 1  
    13    2   13 1  
    14    3   14 1  
    15    4   15 1  
    16    5   16 1  
    17    6   17 1  
    18    6   18 1  
    19    8   19 1  
    20    9   20 1  
    21   10   21 1  
    22   12   22 1  
@<TRIPOS>SUBSTRUCTURE
     1 149         1

