### 
### Created by X-TOOL on Mon Sep 10 21:13:03 2018
### 

@<TRIPOS>MOLECULE
3mv5_ligand
   32    34     1     0     0
SMALL
GAST_HUCK


@<TRIPOS>ATOM
      1 C1          7.7030    2.9450   19.0800 C.3       1 XFE        -0.0012
      2 C2          8.3500    4.1420   18.4140 C.3       1 XFE         0.0130
      3 C3          7.1770    4.8100   17.6990 C.3       1 XFE         0.0385
      4 N4          6.3720    3.6650   17.2890 N.pl3     1 XFE        -0.2820
      5 C5          6.6440    2.4790   18.0890 C.3       1 XFE         0.0758
      6 C6          5.0950    3.9220   16.7430 C.ar      1 XFE         0.1215
      7 N7          4.8810    5.2460   16.5710 N.ar      1 XFE        -0.2735
      8 C8          3.7070    5.7080   16.0980 C.ar      1 XFE         0.0493
      9 N9          2.6930    4.8490   15.7390 N.ar      1 XFE        -0.2785
     10 C10         4.0540    3.0000   16.3770 C.ar      1 XFE         0.0491
     11 C11         2.8290    3.5150   15.8680 C.ar      1 XFE         0.1320
     12 N12         1.9170    2.5540   15.5790 N.pl3     1 XFE        -0.2756
     13 C13         2.4280    1.3250   15.8460 C.2       1 XFE         0.0199
     14 C14         3.7330    1.5320   16.3170 C.2       1 XFE        -0.0399
     15 C15         4.5770    0.3460   16.7110 C.3       1 XFE        -0.0472
     16 N16         7.0470    3.3570   20.3150 N.4       1 XFE         0.2223
     17 H1          8.4404    2.1544   19.2828 H         1 XFE         0.0871
     18 H2          9.1225    3.8266   17.6973 H         1 XFE         0.0341
     19 H3          8.7953    4.8171   19.1596 H         1 XFE         0.0341
     20 H4          7.5184    5.3893   16.8285 H         1 XFE         0.0531
     21 H5          6.6170    5.4674   18.3803 H         1 XFE         0.0531
     22 H6          5.7371    2.1434   18.6133 H         1 XFE         0.0585
     23 H7          7.0278    1.6619   17.4605 H         1 XFE         0.0585
     24 H8          3.5581    6.7771   15.9982 H         1 XFE         0.0974
     25 H9          0.9719    2.7312   15.2098 H         1 XFE         0.2269
     26 H10         1.9244    0.3677   15.7195 H         1 XFE         0.0786
     27 H11         5.5624    0.6948   17.0536 H         1 XFE         0.0320
     28 H12         4.7045   -0.3178   15.8432 H         1 XFE         0.0320
     29 H13         4.0799   -0.2040   17.5236 H         1 XFE         0.0320
     30 H14         7.7412    3.6671   20.9769 H         1 XFE         0.1997
     31 H15         6.5387    2.5772   20.7018 H         1 XFE         0.1997
     32 H16         6.4077    4.1116   20.1203 H         1 XFE         0.1997
@<TRIPOS>BOND
     1    1    2 1  
     2    1    5 1  
     3    1   16 1  
     4    2    3 1  
     5    3    4 1  
     6    4    5 1  
     7    4    6 1  
     8    6    7 ar 
     9    6   10 ar 
    10    7    8 ar 
    11    8    9 ar 
    12    9   11 ar 
    13   10   11 ar 
    14   10   14 1  
    15   11   12 1  
    16   12   13 1  
    17   13   14 2  
    18   14   15 1  
    19    1   17 1  
    20    2   18 1  
    21    2   19 1  
    22    3   20 1  
    23    3   21 1  
    24    5   22 1  
    25    5   23 1  
    26    8   24 1  
    27   12   25 1  
    28   13   26 1  
    29   15   27 1  
    30   15   28 1  
    31   15   29 1  
    32   16   30 1  
    33   16   31 1  
    34   16   32 1  
@<TRIPOS>SUBSTRUCTURE
     1 XFE         1

