### 
### Created by X-TOOL on Mon Sep 10 21:13:02 2018
### 

@<TRIPOS>MOLECULE
3mvh_ligand
   52    55     1     0     0
SMALL
GAST_HUCK


@<TRIPOS>ATOM
      1 C1         16.3290   -0.7580   29.3170 C.3       1 WFE        -0.0605
      2 C2         15.3980   -1.3020   28.2480 C.3       1 WFE        -0.0379
      3 C3         14.6320   -2.4920   28.7780 C.2       1 WFE        -0.0371
      4 C4         13.3260   -2.4040   29.2320 C.2       1 WFE         0.0201
      5 N5         12.9200   -3.6380   29.5790 N.pl3     1 WFE        -0.2756
      6 C6         13.9460   -4.5060   29.4260 C.ar      1 WFE         0.1320
      7 N7         13.8940   -5.8380   29.7230 N.ar      1 WFE        -0.2785
      8 C8         14.9940   -6.5990   29.5520 C.ar      1 WFE         0.0493
      9 N9         16.0980   -6.0270   29.0160 N.ar      1 WFE        -0.2735
     10 C10        16.1680   -4.7240   28.6610 C.ar      1 WFE         0.1215
     11 N11        17.3910   -4.4220   28.1630 N.pl3     1 WFE        -0.2816
     12 C12        18.4990   -5.4200   28.0240 C.3       1 WFE         0.0389
     13 C13        19.5030   -4.7300   27.0680 C.3       1 WFE         0.0178
     14 C14        18.6180   -3.7680   26.3580 C.3       1 WFE         0.0299
     15 N15        17.9770   -4.7660   25.5010 N.4       1 WFE         0.2259
     16 C16        19.2290   -2.7400   25.3980 C.3       1 WFE         0.0777
     17 N17        19.7190   -1.5480   26.0970 N.am      1 WFE        -0.2817
     18 C18        20.9200   -1.4910   26.5970 C.2       1 WFE         0.2014
     19 O19        21.6830   -2.4370   26.4770 O.2       1 WFE        -0.3888
     20 C20        21.4250   -0.2890   27.3100 C.ar      1 WFE         0.0791
     21 C21        21.0200    1.0060   26.9730 C.ar      1 WFE        -0.0453
     22 C22        21.5380    2.0900   27.6850 C.ar      1 WFE        -0.0263
     23 C23        22.4440    1.8360   28.7080 C.ar      1 WFE         0.1358
     24 F24        22.9750    2.8300   29.4040 F         1 WFE        -0.1805
     25 C25        22.8680    0.5560   29.0210 C.ar      1 WFE         0.0113
     26 C26        22.3600   -0.5100   28.3070 C.ar      1 WFE         0.1517
     27 F27        22.7360   -1.7570   28.6280 F         1 WFE        -0.1784
     28 C28        17.8110   -3.1990   27.5850 C.3       1 WFE         0.0805
     29 C29        15.0450   -3.8740   28.9040 C.ar      1 WFE         0.0493
     30 H1         16.8796    0.1068   28.9182 H         1 WFE         0.0244
     31 H2         17.0420   -1.5408   29.6152 H         1 WFE         0.0244
     32 H3         15.7400   -0.4458   30.1920 H         1 WFE         0.0244
     33 H4         15.9900   -1.6112   27.3739 H         1 WFE         0.0352
     34 H5         14.6880   -0.5162   27.9507 H         1 WFE         0.0352
     35 H6         12.7317   -1.4938   29.2966 H         1 WFE         0.0786
     36 H7         11.9759   -3.8837   29.9094 H         1 WFE         0.2269
     37 H8         14.9944   -7.6448   29.8371 H         1 WFE         0.0974
     38 H9         18.1273   -6.3597   27.5895 H         1 WFE         0.0531
     39 H10        18.9650   -5.6259   28.9989 H         1 WFE         0.0531
     40 H11        19.9552   -5.4507   26.3708 H         1 WFE         0.0345
     41 H12        20.2970   -4.2108   27.6248 H         1 WFE         0.0345
     42 H13        17.3031   -4.3130   24.9038 H         1 WFE         0.2001
     43 H14        17.5107   -5.4515   26.0743 H         1 WFE         0.2001
     44 H15        18.6757   -5.2210   24.9345 H         1 WFE         0.2001
     45 H16        18.4612   -2.4338   24.6723 H         1 WFE         0.0579
     46 H17        20.0700   -3.2088   24.8662 H         1 WFE         0.0579
     47 H18        19.1144   -0.7572   26.1924 H         1 WFE         0.1844
     48 H19        20.3119    1.1669   26.1681 H         1 WFE         0.0649
     49 H20        21.2408    3.1046   27.4457 H         1 WFE         0.0583
     50 H21        23.5881    0.3935   29.8148 H         1 WFE         0.0602
     51 H22        18.4513   -2.6196   28.2664 H         1 WFE         0.0589
     52 H23        16.9595   -2.5797   27.2667 H         1 WFE         0.0589
@<TRIPOS>BOND
     1    1    2 1  
     2    2    3 1  
     3    3    4 2  
     4    3   29 1  
     5    4    5 1  
     6    5    6 1  
     7    6    7 ar 
     8    6   29 ar 
     9    7    8 ar 
    10    8    9 ar 
    11    9   10 ar 
    12   10   11 1  
    13   10   29 ar 
    14   11   12 1  
    15   11   28 1  
    16   12   13 1  
    17   13   14 1  
    18   14   15 1  
    19   14   16 1  
    20   14   28 1  
    21   16   17 1  
    22   17   18 am 
    23   18   19 2  
    24   18   20 1  
    25   20   21 ar 
    26   20   26 ar 
    27   21   22 ar 
    28   22   23 ar 
    29   23   24 1  
    30   23   25 ar 
    31   25   26 ar 
    32   26   27 1  
    33    1   30 1  
    34    1   31 1  
    35    1   32 1  
    36    2   33 1  
    37    2   34 1  
    38    4   35 1  
    39    5   36 1  
    40    8   37 1  
    41   12   38 1  
    42   12   39 1  
    43   13   40 1  
    44   13   41 1  
    45   15   42 1  
    46   15   43 1  
    47   15   44 1  
    48   16   45 1  
    49   16   46 1  
    50   17   47 1  
    51   21   48 1  
    52   22   49 1  
    53   25   50 1  
    54   28   51 1  
    55   28   52 1  
@<TRIPOS>SUBSTRUCTURE
     1 WFE         1

