### 
### Created by X-TOOL on Mon Sep 10 21:13:04 2018
### 

@<TRIPOS>MOLECULE
3mvj_ligand
   32    34     1     0     0
SMALL
GAST_HUCK


@<TRIPOS>ATOM
      1 C1         15.9820   14.2380   14.3730 C.3       1 XFE        -0.0012
      2 C2         16.6720   13.5410   15.5420 C.3       1 XFE         0.0130
      3 C3         18.1660   13.8180   15.4410 C.3       1 XFE         0.0385
      4 N4         18.2760   14.9270   14.4630 N.pl3     1 XFE        -0.2820
      5 C5         16.9630   15.3250   13.9210 C.3       1 XFE         0.0758
      6 C6         19.3080   15.8820   14.7100 C.ar      1 XFE         0.1215
      7 N7         20.1990   15.5920   15.6890 N.ar      1 XFE        -0.2735
      8 C8         21.2470   16.3890   16.0300 C.ar      1 XFE         0.0493
      9 N9         21.4860   17.5680   15.4410 N.ar      1 XFE        -0.2785
     10 C10        19.5440   17.1070   14.0420 C.ar      1 XFE         0.0491
     11 C11        20.6430   17.9380   14.4290 C.ar      1 XFE         0.1320
     12 N12        20.6570   19.0510   13.6620 N.pl3     1 XFE        -0.2756
     13 C13        19.6320   19.0330   12.7630 C.2       1 XFE         0.0199
     14 C14        18.9360   17.8850   12.9640 C.2       1 XFE        -0.0399
     15 C15        17.7390   17.5150   12.1420 C.3       1 XFE        -0.0472
     16 N16        14.7000   14.8250   14.7820 N.4       1 XFE         0.2223
     17 H1         15.8041   13.5226   13.5566 H         1 XFE         0.0871
     18 H2         16.4892   12.4575   15.4909 H         1 XFE         0.0341
     19 H3         16.2832   13.9341   16.4929 H         1 XFE         0.0341
     20 H4         18.7024   12.9279   15.0805 H         1 XFE         0.0531
     21 H5         18.5718   14.1201   16.4178 H         1 XFE         0.0531
     22 H6         16.6628   16.3039   14.3229 H         1 XFE         0.0585
     23 H7         17.0006   15.3753   12.8228 H         1 XFE         0.0585
     24 H8         21.9184   16.0554   16.8129 H         1 XFE         0.0974
     25 H9         21.3484   19.8099   13.7454 H         1 XFE         0.2269
     26 H10        19.4122   19.7986   12.0204 H         1 XFE         0.0786
     27 H11        17.3433   16.5477   12.4852 H         1 XFE         0.0320
     28 H12        18.0304   17.4373   11.0842 H         1 XFE         0.0320
     29 H13        16.9646   18.2882   12.2532 H         1 XFE         0.0320
     30 H14        14.0729   14.0920   15.0744 H         1 XFE         0.1997
     31 H15        14.2953   15.3232   14.0048 H         1 XFE         0.1997
     32 H16        14.8515   15.4628   15.5477 H         1 XFE         0.1997
@<TRIPOS>BOND
     1    1    2 1  
     2    1    5 1  
     3    1   16 1  
     4    2    3 1  
     5    3    4 1  
     6    4    5 1  
     7    4    6 1  
     8    6    7 ar 
     9    6   10 ar 
    10    7    8 ar 
    11    8    9 ar 
    12    9   11 ar 
    13   10   11 ar 
    14   10   14 1  
    15   11   12 1  
    16   12   13 1  
    17   13   14 2  
    18   14   15 1  
    19    1   17 1  
    20    2   18 1  
    21    2   19 1  
    22    3   20 1  
    23    3   21 1  
    24    5   22 1  
    25    5   23 1  
    26    8   24 1  
    27   12   25 1  
    28   13   26 1  
    29   15   27 1  
    30   15   28 1  
    31   15   29 1  
    32   16   30 1  
    33   16   31 1  
    34   16   32 1  
@<TRIPOS>SUBSTRUCTURE
     1 XFE         1

