### 
### Created by X-TOOL on Mon Sep 10 21:13:04 2018
### 

@<TRIPOS>MOLECULE
3mvl_ligand
   56    59     1     0     0
SMALL
GAST_HUCK


@<TRIPOS>ATOM
      1 N1         -1.7750   -1.9400   37.3310 N.pl3     1 38P        -0.1649
      2 N2         -1.7500   -0.6890   37.5150 N.2       1 38P        -0.1689
      3 C3         -2.2500    0.1800   36.5750 C.2       1 38P         0.0753
      4 N4         -2.8010   -0.2780   35.3960 N.2       1 38P        -0.2776
      5 C5         -2.8770   -1.6300   35.0990 C.2       1 38P         0.1674
      6 C6         -2.3250   -2.5670   36.1360 C.2       1 38P         0.1543
      7 C7         -2.2020   -3.9020   36.2480 C.2       1 38P        -0.0207
      8 C8         -1.5450   -4.1660   37.5710 C.2       1 38P         0.0428
      9 C9         -1.2990   -2.9960   38.2000 C.2       1 38P         0.0714
     10 C10        -1.1700   -5.4880   38.2030 C.2       1 38P         0.1805
     11 O11        -0.9900   -6.4920   37.5130 O.2       1 38P        -0.3989
     12 N12        -1.0470   -5.4900   39.5610 N.am      1 38P        -0.2908
     13 C13         0.0070   -6.2580   40.2330 C.3       1 38P         0.0296
     14 C14        -0.2600   -6.3140   41.7390 C.3       1 38P        -0.0357
     15 C15        -1.4400   -7.2210   42.0870 C.3       1 38P        -0.0635
     16 C16        -2.6070   -5.0050   35.3010 C.3       1 38P        -0.0434
     17 N17        -3.4470   -1.9540   33.8950 N.pl3     1 38P        -0.2480
     18 C18        -3.6210   -1.0130   32.9090 C.ar      1 38P         0.0752
     19 C19        -4.9180   -0.4780   32.5950 C.ar      1 38P        -0.0158
     20 C20        -5.0170    0.4910   31.5610 C.ar      1 38P        -0.0632
     21 C21        -3.8650    0.9270   30.8470 C.ar      1 38P        -0.0596
     22 C22        -2.5750    0.4000   31.1540 C.ar      1 38P         0.0337
     23 C23        -2.4820   -0.5610   32.1800 C.ar      1 38P        -0.0240
     24 C24        -1.3060    0.7900   30.4660 C.2       1 38P         0.1976
     25 O25        -0.2550    0.1860   30.7050 O.2       1 38P        -0.3878
     26 N26        -1.3260    1.8300   29.5650 N.am      1 38P        -0.2842
     27 C27        -0.5850    1.6810   28.3360 C.3       1 38P         0.0415
     28 C28         0.0980    3.0220   28.4990 C.3       1 38P        -0.0279
     29 C29        -0.7810    2.7040   27.3370 C.3       1 38P        -0.0279
     30 C30        -6.1570   -0.9250   33.3370 C.3       1 38P        -0.0309
     31 H          -2.2104    1.2526   36.7648 H         1 38P         0.1036
     32 H          -0.8310   -2.8707   39.1764 H         1 38P         0.0911
     33 H          -1.7022   -4.9456   40.1220 H         1 38P         0.1836
     34 H           0.9680   -5.7743   40.0583 H         1 38P         0.0518
     35 H           0.0192   -7.2724   39.8344 H         1 38P         0.0518
     36 H          -0.4979   -5.3056   42.0775 H         1 38P         0.0282
     37 H           0.6293   -6.7155   42.2249 H         1 38P         0.0282
     38 H          -2.3399   -6.8479   41.5982 H         1 38P         0.0230
     39 H          -1.2317   -8.2341   41.7431 H         1 38P         0.0230
     40 H          -1.5869   -7.2256   43.1670 H         1 38P         0.0230
     41 H          -3.6830   -4.9606   35.1324 H         1 38P         0.0341
     42 H          -2.0839   -4.8786   34.3531 H         1 38P         0.0341
     43 H          -2.3456   -5.9697   35.7359 H         1 38P         0.0341
     44 H          -3.7483   -2.9140   33.7276 H         1 38P         0.2186
     45 H          -5.9922    0.9081   31.3098 H         1 38P         0.0539
     46 H          -3.9696    1.6712   30.0575 H         1 38P         0.0559
     47 H          -1.5036   -0.9741   32.4255 H         1 38P         0.0568
     48 H          -1.8503    2.6828   29.7607 H         1 38P         0.1846
     49 H          -0.4602    0.6113   28.1676 H         1 38P         0.0555
     50 H           1.0798    3.4420   28.7177 H         1 38P         0.0288
     51 H           0.2505    3.8000   29.2470 H         1 38P         0.0288
     52 H          -1.6214    3.1663   26.8193 H         1 38P         0.0288
     53 H          -0.7311    2.7819   26.2509 H         1 38P         0.0288
     54 H          -6.2912   -1.9985   33.2039 H         1 38P         0.0380
     55 H          -6.0446   -0.7003   34.3977 H         1 38P         0.0380
     56 H          -7.0254   -0.3974   32.9425 H         1 38P         0.0380
@<TRIPOS>BOND
     1    1    2 1  
     2    1    6 1  
     3    1    9 1  
     4    2    3 2  
     5    3    4 1  
     6    4    5 2  
     7    5    6 1  
     8    5   17 1  
     9    6    7 2  
    10    7    8 1  
    11    7   16 1  
    12    8    9 2  
    13    8   10 1  
    14   10   11 2  
    15   10   12 am 
    16   12   13 1  
    17   13   14 1  
    18   14   15 1  
    19   17   18 1  
    20   18   19 ar 
    21   18   23 ar 
    22   19   20 ar 
    23   19   30 1  
    24   20   21 ar 
    25   21   22 ar 
    26   22   23 ar 
    27   22   24 1  
    28   24   25 2  
    29   24   26 am 
    30   26   27 1  
    31   27   28 1  
    32   27   29 1  
    33   28   29 1  
    34    3   31 1  
    35    9   32 1  
    36   12   33 1  
    37   13   34 1  
    38   13   35 1  
    39   14   36 1  
    40   14   37 1  
    41   15   38 1  
    42   15   39 1  
    43   15   40 1  
    44   16   41 1  
    45   16   42 1  
    46   16   43 1  
    47   17   44 1  
    48   20   45 1  
    49   21   46 1  
    50   23   47 1  
    51   26   48 1  
    52   27   49 1  
    53   28   50 1  
    54   28   51 1  
    55   29   52 1  
    56   29   53 1  
    57   30   54 1  
    58   30   55 1  
    59   30   56 1  
@<TRIPOS>SUBSTRUCTURE
     1 38P         1

