### 
### Created by X-TOOL on Mon Sep 10 21:13:03 2018
### 

@<TRIPOS>MOLECULE
3mvm_ligand
   55    58     1     0     0
SMALL
GAST_HUCK


@<TRIPOS>ATOM
      1 N1         -2.3400    5.8340   36.1510 N.pl3     1 39P        -0.1649
      2 N2         -2.2860    4.4170   35.8610 N.2       1 39P        -0.1689
      3 C3         -2.5880    3.4830   36.7760 C.2       1 39P         0.0753
      4 N4         -2.9720    3.8850   38.0660 N.2       1 39P        -0.2776
      5 C5         -3.0360    5.1870   38.3770 C.2       1 39P         0.1674
      6 C6         -2.7050    6.2700   37.3810 C.2       1 39P         0.1543
      7 C7         -2.6790    7.6480   37.4090 C.2       1 39P        -0.0207
      8 C8         -2.2610    8.0400   36.0660 C.2       1 39P         0.0428
      9 C9         -2.0760    6.8980   35.3690 C.2       1 39P         0.0714
     10 C10        -2.0680    9.4300   35.5420 C.2       1 39P         0.1805
     11 O11        -2.4650   10.4040   36.2250 O.2       1 39P        -0.3989
     12 N12        -1.4580    9.5220   34.3260 N.am      1 39P        -0.2908
     13 C13        -1.1510   10.7410   33.5530 C.3       1 39P         0.0296
     14 C14        -2.3630   11.0320   32.6680 C.3       1 39P        -0.0357
     15 C15        -2.2770   10.1430   31.4460 C.3       1 39P        -0.0635
     16 C16        -3.0070    8.5880   38.5580 C.3       1 39P        -0.0434
     17 N17        -3.4060    5.5170   39.6110 N.pl3     1 39P        -0.2480
     18 C18        -3.7680    4.5120   40.4930 C.ar      1 39P         0.0752
     19 C19        -5.1570    4.0860   40.6630 C.ar      1 39P        -0.0158
     20 C20        -5.4340    3.0580   41.5830 C.ar      1 39P        -0.0632
     21 C21        -4.3800    2.4770   42.3030 C.ar      1 39P        -0.0592
     22 C22        -3.0310    2.9150   42.1140 C.ar      1 39P         0.0388
     23 C23        -2.7390    3.9180   41.2230 C.ar      1 39P        -0.0236
     24 C24        -1.9020    2.3420   42.8410 C.2       1 39P         0.2211
     25 O25        -0.7960    2.9320   42.7280 O.2       1 39P        -0.3783
     26 N26        -2.1080    1.2310   43.5810 N.am      1 39P        -0.2334
     27 C27        -1.2100    0.7670   44.4850 C.2       1 39P         0.1274
     28 N28        -0.2490    1.4480   45.1150 N.2       1 39P        -0.1522
     29 O29         0.4170    0.5310   45.9500 O.3       1 39P        -0.1930
     30 C30        -0.1550   -0.6930   45.8090 C.2       1 39P         0.1105
     31 C31        -1.1290   -0.6170   44.9520 C.2       1 39P        -0.0076
     32 C32        -6.3200    4.6970   39.8960 C.3       1 39P        -0.0309
     33 H          -2.5359    2.4245   36.5211 H         1 39P         0.1036
     34 H          -1.7597    6.8454   34.3272 H         1 39P         0.0911
     35 H          -1.1795    8.6392   33.8977 H         1 39P         0.1836
     36 H          -0.2579   10.5955   32.9453 H         1 39P         0.0518
     37 H          -0.9531   11.5794   34.2208 H         1 39P         0.0518
     38 H          -2.3678   12.0805   32.3703 H         1 39P         0.0282
     39 H          -3.2844   10.8312   33.2147 H         1 39P         0.0282
     40 H          -1.3557   10.3591   30.9051 H         1 39P         0.0230
     41 H          -2.2806    9.0984   31.7572 H         1 39P         0.0230
     42 H          -3.1330   10.3335   30.7987 H         1 39P         0.0230
     43 H          -4.0386    8.4294   38.8724 H         1 39P         0.0341
     44 H          -2.3362    8.3867   39.3933 H         1 39P         0.0341
     45 H          -2.8805    9.6195   38.2293 H         1 39P         0.0341
     46 H          -3.4230    6.4941   39.9032 H         1 39P         0.2186
     47 H          -6.4580    2.7165   41.7346 H         1 39P         0.0539
     48 H          -4.5914    1.6806   43.0166 H         1 39P         0.0559
     49 H          -1.7091    4.2480   41.0871 H         1 39P         0.0568
     50 H          -2.9798    0.7170   43.4539 H         1 39P         0.2200
     51 H           0.1545   -1.5974   46.3327 H         1 39P         0.1106
     52 H          -1.7718   -1.4390   44.6369 H         1 39P         0.0359
     53 H          -6.3780    5.7632   40.1152 H         1 39P         0.0380
     54 H          -6.1644    4.5525   38.8269 H         1 39P         0.0380
     55 H          -7.2480    4.2116   40.1983 H         1 39P         0.0380
@<TRIPOS>BOND
     1    1    2 1  
     2    1    6 1  
     3    1    9 1  
     4    2    3 2  
     5    3    4 1  
     6    4    5 2  
     7    5    6 1  
     8    5   17 1  
     9    6    7 2  
    10    7    8 1  
    11    7   16 1  
    12    8    9 2  
    13    8   10 1  
    14   10   11 2  
    15   10   12 am 
    16   12   13 1  
    17   13   14 1  
    18   14   15 1  
    19   17   18 1  
    20   18   19 ar 
    21   18   23 ar 
    22   19   20 ar 
    23   19   32 1  
    24   20   21 ar 
    25   21   22 ar 
    26   22   23 ar 
    27   22   24 1  
    28   24   25 2  
    29   24   26 am 
    30   26   27 1  
    31   27   28 2  
    32   27   31 1  
    33   28   29 1  
    34   29   30 1  
    35   30   31 2  
    36    3   33 1  
    37    9   34 1  
    38   12   35 1  
    39   13   36 1  
    40   13   37 1  
    41   14   38 1  
    42   14   39 1  
    43   15   40 1  
    44   15   41 1  
    45   15   42 1  
    46   16   43 1  
    47   16   44 1  
    48   16   45 1  
    49   17   46 1  
    50   20   47 1  
    51   21   48 1  
    52   23   49 1  
    53   26   50 1  
    54   30   51 1  
    55   31   52 1  
    56   32   53 1  
    57   32   54 1  
    58   32   55 1  
@<TRIPOS>SUBSTRUCTURE
     1 39P         1

