### 
### Created by X-TOOL on Mon Sep 10 21:13:08 2018
### 

@<TRIPOS>MOLECULE
3mw1_ligand
   54    58     1     0     0
SMALL
GAST_HUCK


@<TRIPOS>ATOM
      1 CAA        15.9660   12.2870   30.7970 C.ar      1 MIH         0.1527
      2 CAB        16.7490   13.0010   29.8890 C.ar      1 MIH        -0.0116
      3 CAC        18.1390   12.9890   29.9890 C.ar      1 MIH        -0.0329
      4 CAD        18.7230   12.2390   30.9930 C.ar      1 MIH         0.0586
      5 CAE        17.9260   11.5500   31.8870 C.ar      1 MIH         0.1670
      6 CAF        16.5560   11.5610   31.7990 C.ar      1 MIH         0.0266
      7 FAG        14.6320   12.2730   30.7310 F         1 MIH        -0.1668
      8 FAH        18.4770   10.8320   32.8670 F         1 MIH        -0.1670
      9 CAI        20.1800   12.1580   31.2270 C.ar      1 MIH         0.0484
     10 CAJ        20.9030   10.9760   31.0510 C.ar      1 MIH         0.0640
     11 CAK        22.2700   10.9710   31.3360 C.ar      1 MIH         0.1212
     12 NAL        22.8780   12.0950   31.7890 N.ar      1 MIH        -0.2412
     13 CAM        22.1980   13.2450   31.9960 C.ar      1 MIH         0.0751
     14 CAN        20.8320   13.2940   31.7140 C.ar      1 MIH         0.0160
     15 CAO        20.3310    9.7920   30.5930 C.ar      1 MIH         0.0095
     16 CAP        21.1240    8.6580   30.4360 C.ar      1 MIH         0.0681
     17 NAQ        22.4300    8.6820   30.7070 N.ar      1 MIH        -0.1910
     18 CAR        23.0270    9.8120   31.1420 C.ar      1 MIH         0.1388
     19 CAS        24.4740    9.8390   31.5080 C.ar      1 MIH         0.0699
     20 CAT        25.4640   10.4260   30.7560 C.ar      1 MIH         0.0759
     21 CAU        26.7810   10.4150   31.1860 C.ar      1 MIH        -0.0275
     22 CAV        27.1140    9.8230   32.3970 C.ar      1 MIH        -0.0426
     23 CAW        26.1210    9.2430   33.1680 C.ar      1 MIH        -0.0275
     24 CAX        24.8050    9.2590   32.7270 C.ar      1 MIH         0.0759
     25 CLAY       23.5270    8.5040   33.7500 Cl        1 MIH        -0.0528
     26 CLAZ       25.0630   11.1930   29.2060 Cl        1 MIH        -0.0528
     27 OBA        23.1690    7.4810   30.5010 O.3       1 MIH        -0.2549
     28 CBB        22.9270   14.4410   32.4690 C.3       1 MIH         0.0303
     29 CBC        24.2770   14.0460   33.0750 C.3       1 MIH         0.0049
     30 CBD        25.1710   15.2600   33.3220 C.3       1 MIH        -0.0310
     31 NBE        25.2570   16.0940   32.1370 N.4       1 MIH         0.2273
     32 CBF        24.0520   16.4890   31.4340 C.3       1 MIH        -0.0310
     33 CBG        23.1100   15.3110   31.2290 C.3       1 MIH         0.0049
     34 H          16.2693   13.5730   29.0947 H         1 MIH         0.0642
     35 H          18.7524   13.5585   29.2908 H         1 MIH         0.0717
     36 H          15.9491   11.0032   32.5122 H         1 MIH         0.0643
     37 H          20.2746   14.2170   31.8734 H         1 MIH         0.0868
     38 H          19.2673    9.7529   30.3584 H         1 MIH         0.1027
     39 H          20.6684    7.7322   30.0846 H         1 MIH         0.0947
     40 H          27.5573   10.8720   30.5724 H         1 MIH         0.0681
     41 H          28.1492    9.8149   32.7381 H         1 MIH         0.0771
     42 H          26.3722    8.7746   34.1196 H         1 MIH         0.0681
     43 H          23.8516    7.6354   29.8439 H         1 MIH         0.2759
     44 H          22.3859   14.9698   33.2536 H         1 MIH         0.0532
     45 H          24.7856   13.3856   32.3727 H         1 MIH         0.0349
     46 H          24.0913   13.5592   34.0324 H         1 MIH         0.0349
     47 H          26.1717   14.9108   33.5766 H         1 MIH         0.0816
     48 H          24.7436   15.8491   34.1334 H         1 MIH         0.0816
     49 H          25.7685   15.5245   31.4629 H         1 MIH         0.2013
     50 H          25.6536   16.9716   32.4730 H         1 MIH         0.2013
     51 H          24.3359   16.8767   30.4557 H         1 MIH         0.0816
     52 H          23.5367   17.2417   32.0306 H         1 MIH         0.0816
     53 H          22.1323   15.7191   30.9727 H         1 MIH         0.0349
     54 H          23.5439   14.6809   30.4526 H         1 MIH         0.0349
@<TRIPOS>BOND
     1    1    2 ar 
     2    1    6 ar 
     3    1    7 1  
     4    2    3 ar 
     5    3    4 ar 
     6    4    5 ar 
     7    4    9 1  
     8    5    6 ar 
     9    5    8 1  
    10    9   10 ar 
    11    9   14 ar 
    12   10   11 ar 
    13   10   15 ar 
    14   11   12 ar 
    15   11   18 ar 
    16   12   13 ar 
    17   13   14 ar 
    18   13   28 1  
    19   15   16 ar 
    20   16   17 ar 
    21   17   18 ar 
    22   17   27 1  
    23   18   19 1  
    24   19   20 ar 
    25   19   24 ar 
    26   20   21 ar 
    27   20   26 1  
    28   21   22 ar 
    29   22   23 ar 
    30   23   24 ar 
    31   24   25 1  
    32   28   29 1  
    33   28   33 1  
    34   29   30 1  
    35   30   31 1  
    36   31   32 1  
    37   32   33 1  
    38    2   34 1  
    39    3   35 1  
    40    6   36 1  
    41   14   37 1  
    42   15   38 1  
    43   16   39 1  
    44   21   40 1  
    45   22   41 1  
    46   23   42 1  
    47   27   43 1  
    48   28   44 1  
    49   29   45 1  
    50   29   46 1  
    51   30   47 1  
    52   30   48 1  
    53   31   49 1  
    54   31   50 1  
    55   32   51 1  
    56   32   52 1  
    57   33   53 1  
    58   33   54 1  
@<TRIPOS>SUBSTRUCTURE
     1 MIH         1

