### 
### Created by X-TOOL on Mon Sep 10 21:13:02 2018
### 

@<TRIPOS>MOLECULE
3mwe_ligand
   14    13     1     0     0
SMALL
GAST_HUCK


@<TRIPOS>ATOM
      1 O1         28.8650   28.4560   19.2880 O.co2     1 TLA        -0.5662
      2 O11        27.4130   30.0710   19.5900 O.co2     1 TLA        -0.5662
      3 C1         28.2830   29.2830   20.0280 C.2       1 TLA         0.0677
      4 C2         28.7010   29.3230   21.5100 C.3       1 TLA         0.1445
      5 O2         29.8430   28.5890   21.8740 O.3       1 TLA        -0.3733
      6 C3         27.5680   29.0470   22.5190 C.3       1 TLA         0.1445
      7 O3         26.9250   30.0940   23.2040 O.3       1 TLA        -0.3733
      8 C4         26.6240   28.0550   21.9710 C.2       1 TLA         0.0677
      9 O4         25.6600   28.4760   21.3010 O.co2     1 TLA        -0.5662
     10 O41        26.8580   26.8440   22.2180 O.co2     1 TLA        -0.5662
     11 H1         28.9805   30.3744   21.6728 H         1 TLA         0.0809
     12 H2         29.7054   27.6709   21.6728 H         1 TLA         0.2126
     13 H3         28.0866   28.5165   23.3311 H         1 TLA         0.0809
     14 H4         26.5193   30.6799   22.5758 H         1 TLA         0.2126
@<TRIPOS>BOND
     1    1    3 ar 
     2    3    2 ar 
     3    3    4 1  
     4    4    5 1  
     5    4    6 1  
     6    6    7 1  
     7    6    8 1  
     8    8    9 ar 
     9    8   10 ar 
    10    4   11 1  
    11    5   12 1  
    12    6   13 1  
    13    7   14 1  
@<TRIPOS>SUBSTRUCTURE
     1 TLA         1

