### 
### Created by X-TOOL on Mon Sep 10 21:13:03 2018
### 

@<TRIPOS>MOLECULE
3mwu_ligand
   53    57     1     0     0
SMALL
GAST_HUCK


@<TRIPOS>ATOM
      1 N1         27.5020    6.5250    6.6360 N.ar      1 BK3        -0.2661
      2 C2         27.5800    5.9020    5.4530 C.ar      1 BK3         0.0558
      3 N3         26.9970    6.3600    4.3700 N.ar      1 BK3        -0.2691
      4 C4         26.2910    7.5130    4.4150 C.ar      1 BK3         0.1581
      5 C5         26.1750    8.2180    5.5980 C.ar      1 BK3         0.0863
      6 C6         26.8030    7.6770    6.7410 C.ar      1 BK3         0.1272
      7 NAA        26.7600    8.2540    7.9370 N.pl3     1 BK3        -0.3122
      8 NBB        25.6070    8.1890    3.5090 N.pl3     1 BK3        -0.1941
      9 NAR        25.0830    9.2300    3.9670 N.2       1 BK3        -0.2106
     10 NAS        21.6760    6.2380    0.7530 N.4       1 BK3         0.2270
     11 CAB        24.5690   15.3970    7.9190 C.ar      1 BK3        -0.0629
     12 CAC        23.6320   14.4160    7.5440 C.ar      1 BK3        -0.0625
     13 CAD        28.1600   12.3080    6.8320 C.ar      1 BK3        -0.0704
     14 CAE        27.2250   11.3380    6.4420 C.ar      1 BK3        -0.0589
     15 CAG        25.9290   15.0880    7.8290 C.ar      1 BK3        -0.0569
     16 CAH        27.7150   13.5450    7.2960 C.ar      1 BK3        -0.0629
     17 CAI        24.0770   13.1710    7.0960 C.ar      1 BK3        -0.0547
     18 CAJ        22.8730    5.6400    0.1730 C.3       1 BK3        -0.0333
     19 CAK        21.8120    6.4060    2.2220 C.3       1 BK3        -0.0333
     20 CAL        24.0360    6.6490    0.3690 C.3       1 BK3        -0.0071
     21 CAM        23.0550    7.2520    2.5730 C.3       1 BK3        -0.0071
     22 CAN        24.8570   10.4650    6.1340 C.3       1 BK3         0.0257
     23 CAO        25.5050    7.7660    2.1160 C.3       1 BK3         0.0695
     24 CAU        25.8520   11.5850    6.5310 C.ar      1 BK3        -0.0212
     25 CAV        25.3700    9.3260    5.2670 C.2       1 BK3         0.0551
     26 CAW        26.3660   13.8190    7.3870 C.ar      1 BK3        -0.0240
     27 CAX        25.4340   12.8490    7.0020 C.ar      1 BK3        -0.0105
     28 CBA        24.3350    6.7750    1.8730 C.3       1 BK3        -0.0036
     29 H1         28.1483    4.9812    5.3873 H         1 BK3         0.1029
     30 H2         26.2396    9.1334    8.0661 H         1 BK3         0.1845
     31 H3         27.2471    7.8219    8.7351 H         1 BK3         0.1845
     32 H4         20.8861    5.6413    0.5629 H         1 BK3         0.2013
     33 H5         21.5238    7.1413    0.3323 H         1 BK3         0.2013
     34 H6         24.2433   16.3697    8.2695 H         1 BK3         0.0616
     35 H7         22.5702   14.6261    7.6028 H         1 BK3         0.0601
     36 H8         29.2217   12.0972    6.7730 H         1 BK3         0.0595
     37 H9         27.5723   10.3825    6.0659 H         1 BK3         0.0534
     38 H10        26.6632   15.8367    8.1037 H         1 BK3         0.0609
     39 H11        28.4365   14.2994    7.5883 H         1 BK3         0.0544
     40 H12        23.3429   12.4263    6.8104 H         1 BK3         0.0628
     41 H13        22.7168    5.4497   -0.8991 H         1 BK3         0.0814
     42 H14        23.1059    4.6938    0.6833 H         1 BK3         0.0814
     43 H15        21.9086    5.4149    2.6894 H         1 BK3         0.0814
     44 H16        20.9141    6.9088    2.6106 H         1 BK3         0.0814
     45 H17        23.7457    7.6306   -0.0337 H         1 BK3         0.0320
     46 H18        24.9318    6.2873   -0.1569 H         1 BK3         0.0320
     47 H19        23.2138    7.2038    3.6604 H         1 BK3         0.0320
     48 H20        22.8629    8.2936    2.2762 H         1 BK3         0.0320
     49 H21        24.0283   10.9419    5.5901 H         1 BK3         0.0596
     50 H22        24.4766   10.0206    7.0656 H         1 BK3         0.0596
     51 H23        26.4465    7.2758    1.8276 H         1 BK3         0.0618
     52 H24        25.3478    8.6560    1.4889 H         1 BK3         0.0618
     53 H25        24.6193    5.7897    2.2708 H         1 BK3         0.0331
@<TRIPOS>BOND
     1    2    1 ar 
     2    6    1 ar 
     3    3    2 ar 
     4    4    3 ar 
     5    4    5 ar 
     6    8    4 1  
     7    5    6 ar 
     8   25    5 1  
     9    6    7 1  
    10    8    9 1  
    11   23    8 1  
    12    9   25 2  
    13   18   10 1  
    14   19   10 1  
    15   11   12 ar 
    16   15   11 ar 
    17   12   17 ar 
    18   14   13 ar 
    19   13   16 ar 
    20   24   14 ar 
    21   26   15 ar 
    22   16   26 ar 
    23   17   27 ar 
    24   20   18 1  
    25   21   19 1  
    26   28   20 1  
    27   28   21 1  
    28   22   24 1  
    29   25   22 1  
    30   23   28 1  
    31   24   27 ar 
    32   26   27 ar 
    33    2   29 1  
    34    7   30 1  
    35    7   31 1  
    36   10   32 1  
    37   10   33 1  
    38   11   34 1  
    39   12   35 1  
    40   13   36 1  
    41   14   37 1  
    42   15   38 1  
    43   16   39 1  
    44   17   40 1  
    45   18   41 1  
    46   18   42 1  
    47   19   43 1  
    48   19   44 1  
    49   20   45 1  
    50   20   46 1  
    51   21   47 1  
    52   21   48 1  
    53   22   49 1  
    54   22   50 1  
    55   23   51 1  
    56   23   52 1  
    57   28   53 1  
@<TRIPOS>SUBSTRUCTURE
     1 BK3         1

