### 
### Created by X-TOOL on Mon Sep 10 21:13:04 2018
### 

@<TRIPOS>MOLECULE
3mww_ligand
   63    67     1     0     0
SMALL
GAST_HUCK


@<TRIPOS>ATOM
      1 C1        -24.1970  -17.1140  -30.7020 C.ar      1 BIW        -0.0068
      2 C2        -25.5640  -16.6820  -30.6390 C.ar      1 BIW        -0.0314
      3 C3        -25.9310  -15.5560  -29.8260 C.ar      1 BIW         0.0662
      4 C4        -24.9300  -14.8660  -29.0860 C.ar      1 BIW        -0.0208
      5 C5        -23.5600  -15.3020  -29.1520 C.ar      1 BIW        -0.0735
      6 C6        -23.1990  -16.4180  -29.9560 C.ar      1 BIW        -0.0674
      7 N7        -27.1650  -14.9330  -29.5890 N.pl3     1 BIW        -0.2522
      8 C8        -26.9680  -13.8530  -28.6980 C.2       1 BIW         0.0498
      9 C9        -25.5910  -13.7850  -28.3720 C.2       1 BIW        -0.0380
     10 C10       -24.9180  -12.7520  -27.4310 C.3       1 BIW        -0.0245
     11 C11       -24.4190  -13.3960  -26.1080 C.3       1 BIW        -0.0459
     12 C12       -23.6980  -12.3820  -25.1970 C.3       1 BIW        -0.0517
     13 C13       -22.5450  -11.6570  -25.9200 C.3       1 BIW        -0.0528
     14 C14       -22.9880  -11.0190  -27.2470 C.3       1 BIW        -0.0517
     15 C15       -23.7540  -11.9990  -28.1580 C.3       1 BIW        -0.0459
     16 C16       -27.9990  -12.9520  -28.1970 C.2       1 BIW        -0.0021
     17 C17       -28.8590  -12.1300  -28.9630 C.2       1 BIW        -0.0571
     18 C18       -29.6600  -11.4590  -28.0620 C.2       1 BIW         0.0791
     19 O19       -29.3420  -11.8210  -26.7830 O.3       1 BIW        -0.2678
     20 C20       -28.3300  -12.7310  -26.8730 C.2       1 BIW         0.0895
     21 C21       -23.8070  -18.3030  -31.5620 C.2       1 BIW         0.0546
     22 O22       -22.5830  -18.6480  -31.5900 O.co2     1 BIW        -0.5633
     23 O23       -24.7220  -18.9000  -32.2150 O.co2     1 BIW        -0.5633
     24 C24       -28.4550  -15.3630  -30.1920 C.3       1 BIW         0.1368
     25 C25       -28.7160  -14.6990  -31.5660 C.2       1 BIW         0.2070
     26 O26       -27.7790  -14.2250  -32.2290 O.2       1 BIW        -0.3940
     27 N27       -30.0690  -14.6360  -32.0500 N.am      1 BIW        -0.2709
     28 C28       -31.2100  -15.2150  -31.2750 C.3       1 BIW         0.0357
     29 C29       -32.4180  -14.2520  -31.1930 C.3       1 BIW        -0.0180
     30 C30       -32.7500  -13.5820  -32.5500 C.3       1 BIW         0.0154
     31 C31       -31.5090  -12.9780  -33.2360 C.3       1 BIW        -0.0180
     32 C32       -30.3530  -13.9900  -33.3570 C.3       1 BIW         0.0357
     33 C33       -33.8470  -12.4940  -32.3930 C.2       1 BIW         0.0380
     34 O34       -33.7240  -11.6300  -31.4640 O.co2     1 BIW        -0.5687
     35 O35       -34.8150  -12.5090  -33.2140 O.co2     1 BIW        -0.5687
     36 H         -26.3271  -17.2105  -31.2104 H         1 BIW         0.0571
     37 H         -22.7950  -14.7740  -28.5827 H         1 BIW         0.0531
     38 H         -22.1593  -16.7421  -30.0026 H         1 BIW         0.0533
     39 H         -25.6841  -12.0240  -27.1643 H         1 BIW         0.0385
     40 H         -23.7106  -14.1844  -26.3625 H         1 BIW         0.0282
     41 H         -25.2870  -13.7762  -25.5693 H         1 BIW         0.0282
     42 H         -23.2762  -12.9278  -24.3530 H         1 BIW         0.0267
     43 H         -24.4252  -11.6320  -24.8860 H         1 BIW         0.0267
     44 H         -21.7730  -12.3935  -26.1430 H         1 BIW         0.0265
     45 H         -22.1879  -10.8603  -25.2674 H         1 BIW         0.0265
     46 H         -22.0914  -10.7014  -27.7793 H         1 BIW         0.0267
     47 H         -23.6571  -10.1914  -27.0114 H         1 BIW         0.0267
     48 H         -24.1964  -11.4160  -28.9658 H         1 BIW         0.0282
     49 H         -23.0426  -12.7505  -28.5005 H         1 BIW         0.0282
     50 H         -28.8838  -12.0439  -30.0493 H         1 BIW         0.0329
     51 H         -30.4358  -10.7424  -28.3317 H         1 BIW         0.0967
     52 H         -27.8505  -13.2151  -26.0222 H         1 BIW         0.0978
     53 H         -29.2578  -15.0667  -29.5168 H         1 BIW         0.0834
     54 H         -28.4138  -16.4419  -30.3417 H         1 BIW         0.0834
     55 H         -30.8638  -15.4082  -30.2596 H         1 BIW         0.0523
     56 H         -31.5365  -16.1222  -31.7834 H         1 BIW         0.0523
     57 H         -32.1661  -13.4623  -30.4852 H         1 BIW         0.0305
     58 H         -33.2874  -14.8346  -30.8884 H         1 BIW         0.0305
     59 H         -33.1277  -14.3782  -33.1915 H         1 BIW         0.0467
     60 H         -31.1624  -12.1413  -32.6295 H         1 BIW         0.0305
     61 H         -31.7956  -12.6718  -34.2421 H         1 BIW         0.0305
     62 H         -30.6380  -14.7612  -34.0727 H         1 BIW         0.0523
     63 H         -29.4589  -13.4605  -33.6860 H         1 BIW         0.0523
@<TRIPOS>BOND
     1    1    2 ar 
     2    1    6 ar 
     3    1   21 1  
     4    2    3 ar 
     5    3    4 ar 
     6    3    7 1  
     7    4    5 ar 
     8    4    9 1  
     9    5    6 ar 
    10    7    8 1  
    11    7   24 1  
    12    8    9 2  
    13    8   16 1  
    14    9   10 1  
    15   10   11 1  
    16   10   15 1  
    17   11   12 1  
    18   12   13 1  
    19   13   14 1  
    20   14   15 1  
    21   16   17 1  
    22   16   20 2  
    23   17   18 2  
    24   18   19 1  
    25   19   20 1  
    26   21   22 ar 
    27   21   23 ar 
    28   24   25 1  
    29   25   26 2  
    30   25   27 am 
    31   27   28 1  
    32   27   32 1  
    33   28   29 1  
    34   29   30 1  
    35   30   31 1  
    36   30   33 1  
    37   31   32 1  
    38   33   34 ar 
    39   33   35 ar 
    40    2   36 1  
    41    5   37 1  
    42    6   38 1  
    43   10   39 1  
    44   11   40 1  
    45   11   41 1  
    46   12   42 1  
    47   12   43 1  
    48   13   44 1  
    49   13   45 1  
    50   14   46 1  
    51   14   47 1  
    52   15   48 1  
    53   15   49 1  
    54   17   50 1  
    55   18   51 1  
    56   20   52 1  
    57   24   53 1  
    58   24   54 1  
    59   28   55 1  
    60   28   56 1  
    61   29   57 1  
    62   29   58 1  
    63   30   59 1  
    64   31   60 1  
    65   31   61 1  
    66   32   62 1  
    67   32   63 1  
@<TRIPOS>SUBSTRUCTURE
     1 BIW         1

