### 
### Created by X-TOOL on Mon Sep 10 21:13:02 2018
### 

@<TRIPOS>MOLECULE
3mxd_ligand
   79    83     1     0     0
SMALL
GAST_HUCK


@<TRIPOS>ATOM
      1 C2         15.5940   34.6280   17.5780 C.ar      1 K53         0.1233
      2 C3         16.5830   35.2700   16.8930 C.ar      1 K53         0.1250
      3 C4         17.3850   34.5920   15.9820 C.ar      1 K53        -0.0149
      4 C5         17.1880   33.2200   15.7690 C.ar      1 K53         0.0885
      5 C6         16.1670   32.5700   16.4850 C.ar      1 K53        -0.0554
      6 C7         15.3590   33.2750   17.4000 C.ar      1 K53        -0.0395
      7 S8         18.1320   32.3950   14.7330 S.o2      1 K53         0.0633
      8 O9         17.4070   31.3060   14.1440 O.2       1 K53        -0.1517
      9 O10        18.6610   33.2660   13.7250 O.2       1 K53        -0.1517
     10 N11        19.4170   31.7280   15.4680 N.am      1 K53        -0.2326
     11 C12        20.1590   32.6990   16.3170 C.3       1 K53         0.0319
     12 C13        21.6660   32.4110   16.2990 C.3       1 K53        -0.0296
     13 C14        22.2490   32.3900   14.8830 C.3       1 K53        -0.0612
     14 C15        22.4090   33.4180   17.1830 C.3       1 K53        -0.0612
     15 C16        19.1040   30.4620   16.1770 C.3       1 K53         0.0578
     16 C17        20.0240   29.3670   15.6180 C.3       1 K53         0.0968
     17 C18        15.6290   36.8020   18.2740 C.3       1 K53         0.1868
     18 O18        19.9740   28.2150   16.4760 O.3       1 K53        -0.3877
     19 C19        19.6900   28.9930   14.1710 C.3       1 K53         0.0789
     20 O19        14.9790   35.5160   18.4070 O.3       1 K53        -0.2910
     21 N20        20.7970   28.2280   13.6030 N.am      1 K53        -0.2769
     22 C21        21.5540   28.6340   12.5730 C.2       1 K53         0.2129
     23 O22        21.4530   29.7310   12.0450 O.2       1 K53        -0.3937
     24 N24        22.5400   26.1590   10.2400 N.am      1 K53        -0.1924
     25 C25        22.6210   27.5950   10.5190 C.3       1 K53         0.1032
     26 C26        22.3000   25.4650   11.3380 C.2       1 K53         0.3527
     27 O27        22.2060   24.2530   11.4270 O.2       1 K53        -0.3679
     28 O28        22.2200   26.3240   12.4740 O.3       1 K53        -0.2322
     29 C29        22.5720   27.6530   12.0490 C.3       1 K53         0.2011
     30 O29        16.6050   36.5940   17.2460 O.3       1 K53        -0.2909
     31 C32        18.3640   28.2290   14.0370 C.3       1 K53         0.0064
     32 C33        18.5270   26.6040   12.1230 C.ar      1 K53        -0.0603
     33 C34        18.3850   26.2740   10.7870 C.ar      1 K53        -0.0686
     34 C35        17.8680   27.2090    9.9000 C.ar      1 K53        -0.0687
     35 C36        17.5120   28.4750   10.3520 C.ar      1 K53        -0.0686
     36 C37        17.6540   28.8020   11.6920 C.ar      1 K53        -0.0603
     37 C38        18.1630   27.8690   12.5830 C.ar      1 K53        -0.0408
     38 C40        23.2920   24.4370    6.5160 C.ar      1 K53        -0.0863
     39 C41        24.2980   24.5140    7.4800 C.ar      1 K53        -0.0464
     40 C42        24.0320   25.1000    8.7180 C.ar      1 K53         0.1091
     41 C43        22.7680   25.5820    8.9870 C.ar      1 K53         0.1011
     42 C44        21.7590   25.5100    8.0270 C.ar      1 K53        -0.0491
     43 C45        22.0150   24.9310    6.7950 C.ar      1 K53        -0.0869
     44 O46        25.0070   25.1830    9.6750 O.3       1 K53        -0.3394
     45 H1         18.1592   35.1216   15.4387 H         1 K53         0.0528
     46 H2         15.9987   31.5103   16.3309 H         1 K53         0.0514
     47 H3         14.5732   32.7705   17.9506 H         1 K53         0.0509
     48 H4         19.7918   32.6256   17.3513 H         1 K53         0.0480
     49 H5         19.9833   33.7161   15.9367 H         1 K53         0.0480
     50 H6         21.8159   31.4100   16.7298 H         1 K53         0.0311
     51 H7         23.3275   32.1798   14.9336 H         1 K53         0.0233
     52 H8         22.0881   33.3679   14.4056 H         1 K53         0.0233
     53 H9         21.7503   31.6072   14.2927 H         1 K53         0.0233
     54 H10        21.9712   33.4130   18.1921 H         1 K53         0.0233
     55 H11        22.3177   34.4245   16.7488 H         1 K53         0.0233
     56 H12        23.4715   33.1395   17.2429 H         1 K53         0.0233
     57 H13        18.0521   30.1888   16.0070 H         1 K53         0.0504
     58 H14        19.2814   30.5842   17.2557 H         1 K53         0.0504
     59 H15        21.0529   29.7559   15.6284 H         1 K53         0.0634
     60 H16        16.1120   37.0952   19.2178 H         1 K53         0.0973
     61 H17        14.9065   37.5760   17.9759 H         1 K53         0.0973
     62 H18        20.2633   28.4579   17.3477 H         1 K53         0.2100
     63 H19        19.5901   29.9268   13.5983 H         1 K53         0.0605
     64 H20        21.0051   27.3390   14.0108 H         1 K53         0.1858
     65 H21        21.7697   28.1324   10.0757 H         1 K53         0.0637
     66 H22        23.5614   28.0193   10.1374 H         1 K53         0.0637
     67 H23        23.5630   27.9286   12.4388 H         1 K53         0.0919
     68 H24        17.5337   28.8636   14.3803 H         1 K53         0.0449
     69 H25        18.4006   27.3127   14.6445 H         1 K53         0.0449
     70 H26        18.9245   25.8731   12.8179 H         1 K53         0.0557
     71 H27        18.6757   25.2910   10.4346 H         1 K53         0.0599
     72 H28        17.7418   26.9518    8.8545 H         1 K53         0.0559
     73 H29        17.1225   29.2081    9.6550 H         1 K53         0.0599
     74 H30        17.3672   29.7867   12.0431 H         1 K53         0.0557
     75 H31        23.5014   23.9933    5.5494 H         1 K53         0.0459
     76 H32        25.2848   24.1191    7.2673 H         1 K53         0.0494
     77 H33        20.7742   25.9072    8.2450 H         1 K53         0.0466
     78 H34        21.2292   24.8615    6.0515 H         1 K53         0.0484
     79 H35        25.8132   24.8107    9.3373 H         1 K53         0.2433
@<TRIPOS>BOND
     1    2    1 ar 
     2    6    1 ar 
     3    1   20 1  
     4    3    2 ar 
     5    2   30 1  
     6    4    3 ar 
     7    4    5 ar 
     8    7    4 1  
     9    5    6 ar 
    10    7    8 2  
    11    7    9 2  
    12   10    7 am 
    13   10   11 1  
    14   15   10 1  
    15   11   12 1  
    16   12   13 1  
    17   12   14 1  
    18   16   15 1  
    19   16   18 1  
    20   19   16 1  
    21   20   17 1  
    22   30   17 1  
    23   21   19 1  
    24   19   31 1  
    25   22   21 am 
    26   22   23 2  
    27   29   22 1  
    28   24   25 1  
    29   24   26 am 
    30   41   24 1  
    31   25   29 1  
    32   26   27 2  
    33   26   28 1  
    34   28   29 1  
    35   31   37 1  
    36   32   33 ar 
    37   37   32 ar 
    38   33   34 ar 
    39   35   34 ar 
    40   36   35 ar 
    41   37   36 ar 
    42   39   38 ar 
    43   38   43 ar 
    44   40   39 ar 
    45   40   41 ar 
    46   40   44 1  
    47   41   42 ar 
    48   42   43 ar 
    49    3   45 1  
    50    5   46 1  
    51    6   47 1  
    52   11   48 1  
    53   11   49 1  
    54   12   50 1  
    55   13   51 1  
    56   13   52 1  
    57   13   53 1  
    58   14   54 1  
    59   14   55 1  
    60   14   56 1  
    61   15   57 1  
    62   15   58 1  
    63   16   59 1  
    64   17   60 1  
    65   17   61 1  
    66   18   62 1  
    67   19   63 1  
    68   21   64 1  
    69   25   65 1  
    70   25   66 1  
    71   29   67 1  
    72   31   68 1  
    73   31   69 1  
    74   32   70 1  
    75   33   71 1  
    76   34   72 1  
    77   35   73 1  
    78   36   74 1  
    79   38   75 1  
    80   39   76 1  
    81   42   77 1  
    82   43   78 1  
    83   44   79 1  
@<TRIPOS>SUBSTRUCTURE
     1 K53         1

