### 
### Created by X-TOOL on Mon Sep 10 21:13:02 2018
### 

@<TRIPOS>MOLECULE
3mxe_ligand
   80    84     1     0     0
SMALL
GAST_HUCK


@<TRIPOS>ATOM
      1 C1         15.4900   36.7590   18.3470 C.2       1 K54         0.0809
      2 F1         24.5430   26.4890    8.9970 F         1 K54        -0.2425
      3 N1         15.0300   35.4960   18.4290 N.2       1 K54        -0.2931
      4 S1         16.7830   37.0200   17.2270 S.3       1 K54         0.0026
      5 C2         15.6650   34.6520   17.5710 C.ar      1 K54         0.0375
      6 F2         24.7220   24.6580   10.1020 F         1 K54        -0.2425
      7 C3         16.6410   35.3450   16.8590 C.ar      1 K54         0.0595
      8 F3         25.4930   24.8100    8.0680 F         1 K54        -0.2425
      9 C4         17.4290   34.6350   15.9200 C.ar      1 K54        -0.0206
     10 C5         17.2520   33.2410   15.6790 C.ar      1 K54         0.1007
     11 C6         16.2550   32.5910   16.3990 C.ar      1 K54        -0.0433
     12 C7         15.4800   33.2920   17.3330 C.ar      1 K54        -0.0517
     13 S8         18.1460   32.3670   14.6230 S.o2      1 K54         0.0679
     14 O9         17.3900   31.2780   14.0620 O.2       1 K54        -0.1506
     15 O10        18.6560   33.2300   13.6080 O.2       1 K54        -0.1506
     16 N11        19.4470   31.7200   15.3430 N.am      1 K54        -0.2317
     17 C12        20.2360   32.7120   16.1070 C.3       1 K54         0.0320
     18 C13        21.7200   32.3390   16.1580 C.3       1 K54        -0.0296
     19 C14        22.3410   32.3060   14.7600 C.3       1 K54        -0.0612
     20 C15        22.4860   33.3390   17.0230 C.3       1 K54        -0.0612
     21 C16        19.1710   30.4610   16.0820 C.3       1 K54         0.0579
     22 C17        20.0280   29.3320   15.4910 C.3       1 K54         0.0968
     23 O18        19.9190   28.1470   16.2920 O.3       1 K54        -0.3877
     24 C19        19.6380   29.0260   14.0520 C.3       1 K54         0.0789
     25 N20        20.6420   28.1690   13.4270 N.am      1 K54        -0.2769
     26 C21        21.3630   28.5920   12.3780 C.2       1 K54         0.2133
     27 O22        21.3250   29.7190   11.9120 O.2       1 K54        -0.3937
     28 N24        22.2050   26.0160   10.0570 N.am      1 K54        -0.1619
     29 C25        21.8990   27.4400   10.2560 C.3       1 K54         0.1182
     30 C26        22.1730   25.3430   11.2870 C.2       1 K54         0.3759
     31 O27        22.1900   24.1320   11.4400 O.2       1 K54        -0.3570
     32 O28        22.1560   26.3150   12.3560 O.3       1 K54        -0.2276
     33 C29        22.2830   27.6100   11.7430 C.3       1 K54         0.2051
     34 C32        18.3250   28.2290   13.9150 C.3       1 K54         0.0064
     35 C33        18.2740   26.5180   12.0560 C.ar      1 K54        -0.0603
     36 C34        18.0720   26.1710   10.7220 C.ar      1 K54        -0.0686
     37 C35        17.6910   27.1260    9.7910 C.ar      1 K54        -0.0687
     38 C36        17.5070   28.4410   10.2000 C.ar      1 K54        -0.0686
     39 C37        17.7050   28.7940   11.5380 C.ar      1 K54        -0.0603
     40 C38        18.0880   27.8380   12.4660 C.ar      1 K54        -0.0408
     41 C40        21.8720   23.6040    6.6570 C.ar      1 K54        -0.0475
     42 C41        23.1140   23.9600    7.1760 C.ar      1 K54        -0.0456
     43 C42        23.2020   24.7720    8.3130 C.ar      1 K54         0.0627
     44 C43        22.0380   25.2160    8.9140 C.ar      1 K54         0.1159
     45 C44        20.7920   24.8620    8.4020 C.ar      1 K54        -0.0060
     46 C45        20.7020   24.0540    7.2620 C.ar      1 K54        -0.0465
     47 C46        24.5260   25.1750    8.8910 C.3       1 K54         0.3554
     48 H1         15.0740   37.5661   18.9483 H         1 K54         0.1260
     49 H2         18.1922   35.1696   15.3661 H         1 K54         0.0592
     50 H3         16.0761   31.5343   16.2365 H         1 K54         0.0580
     51 H4         14.7143   32.7604   17.8863 H         1 K54         0.0584
     52 H5         19.8459   32.7626   17.1343 H         1 K54         0.0480
     53 H6         20.1324   33.6960   15.6265 H         1 K54         0.0480
     54 H7         21.8110   31.3384   16.6058 H         1 K54         0.0311
     55 H8         23.4043   32.0352   14.8375 H         1 K54         0.0233
     56 H9         22.2483   33.2981   14.2941 H         1 K54         0.0233
     57 H10        21.8169   31.5609   14.1434 H         1 K54         0.0233
     58 H11        22.0438   33.3671   18.0298 H         1 K54         0.0233
     59 H12        22.4259   34.3388   16.5682 H         1 K54         0.0233
     60 H13        23.5396   33.0310   17.0938 H         1 K54         0.0233
     61 H14        18.1059   30.2036   15.9858 H         1 K54         0.0504
     62 H15        19.4213   30.5954   17.1447 H         1 K54         0.0504
     63 H16        21.0777   29.6607   15.4990 H         1 K54         0.0634
     64 H17        20.2188   28.3336   17.1739 H         1 K54         0.2100
     65 H18        19.5517   29.9766   13.5054 H         1 K54         0.0605
     66 H19        20.7949   27.2491   13.7881 H         1 K54         0.1858
     67 H20        20.8334   27.6533   10.0856 H         1 K54         0.0681
     68 H21        22.5102   28.0810    9.6037 H         1 K54         0.0681
     69 H22        23.3195   27.9676   11.8315 H         1 K54         0.0923
     70 H23        17.4867   28.8498   14.2640 H         1 K54         0.0449
     71 H24        18.3882   27.3190   14.5297 H         1 K54         0.0449
     72 H25        18.5751   25.7636   12.7738 H         1 K54         0.0557
     73 H26        18.2142   25.1432   10.4081 H         1 K54         0.0599
     74 H27        17.5383   26.8490    8.7542 H         1 K54         0.0559
     75 H28        17.2093   29.1948    9.4801 H         1 K54         0.0599
     76 H29        17.5582   29.8212   11.8517 H         1 K54         0.0557
     77 H30        21.8159   22.9731    5.7773 H         1 K54         0.0599
     78 H31        24.0193   23.6059    6.6962 H         1 K54         0.0772
     79 H32        19.8888   25.2132    8.8878 H         1 K54         0.0599
     80 H33        19.7342   23.7826    6.8561 H         1 K54         0.0798
@<TRIPOS>BOND
     1    3    1 2  
     2    4    1 1  
     3   47    2 1  
     4    5    3 1  
     5    7    4 1  
     6    7    5 ar 
     7   12    5 ar 
     8   47    6 1  
     9    9    7 ar 
    10   47    8 1  
    11   10    9 ar 
    12   10   11 ar 
    13   13   10 1  
    14   11   12 ar 
    15   13   14 2  
    16   13   15 2  
    17   16   13 am 
    18   16   17 1  
    19   21   16 1  
    20   17   18 1  
    21   18   19 1  
    22   18   20 1  
    23   22   21 1  
    24   22   23 1  
    25   24   22 1  
    26   25   24 1  
    27   24   34 1  
    28   26   25 am 
    29   26   27 2  
    30   33   26 1  
    31   28   29 1  
    32   28   30 am 
    33   44   28 1  
    34   29   33 1  
    35   30   31 2  
    36   30   32 1  
    37   32   33 1  
    38   34   40 1  
    39   35   36 ar 
    40   40   35 ar 
    41   36   37 ar 
    42   38   37 ar 
    43   39   38 ar 
    44   40   39 ar 
    45   42   41 ar 
    46   41   46 ar 
    47   43   42 ar 
    48   43   44 ar 
    49   43   47 1  
    50   44   45 ar 
    51   45   46 ar 
    52    1   48 1  
    53    9   49 1  
    54   11   50 1  
    55   12   51 1  
    56   17   52 1  
    57   17   53 1  
    58   18   54 1  
    59   19   55 1  
    60   19   56 1  
    61   19   57 1  
    62   20   58 1  
    63   20   59 1  
    64   20   60 1  
    65   21   61 1  
    66   21   62 1  
    67   22   63 1  
    68   23   64 1  
    69   24   65 1  
    70   25   66 1  
    71   29   67 1  
    72   29   68 1  
    73   33   69 1  
    74   34   70 1  
    75   34   71 1  
    76   35   72 1  
    77   36   73 1  
    78   37   74 1  
    79   38   75 1  
    80   39   76 1  
    81   41   77 1  
    82   42   78 1  
    83   45   79 1  
    84   46   80 1  
@<TRIPOS>SUBSTRUCTURE
     1 K54         1

