### 
### Created by X-TOOL on Mon Sep 10 21:13:02 2018
### 

@<TRIPOS>MOLECULE
3mxf_ligand
   56    59     1     0     0
SMALL
GAST_HUCK


@<TRIPOS>ATOM
      1 CAA        29.8990   18.9620    1.7240 C.3       1 JQ1         0.0171
      2 CAB        25.2040   15.1160    1.3930 C.3       1 JQ1        -0.0308
      3 CAC        25.6820   14.9300   -1.6940 C.3       1 JQ1        -0.0507
      4 CAD        29.2330   13.1180   -5.4650 C.3       1 JQ1        -0.0319
      5 CAE        30.6490   11.1240   -4.6870 C.3       1 JQ1        -0.0319
      6 CAF        28.5430   11.7420   -3.5100 C.3       1 JQ1        -0.0319
      7 OAG        32.1090   13.8640   -4.7140 O.2       1 JQ1        -0.3702
      8 CLAH       24.8240   18.4760   -6.7700 Cl        1 JQ1        -0.0647
      9 CAI        25.5320   17.9640   -4.2190 C.ar      1 JQ1        -0.0406
     10 CAJ        27.0320   17.1100   -5.8680 C.ar      1 JQ1        -0.0406
     11 CAK        26.3510   17.4470   -3.2100 C.ar      1 JQ1        -0.0437
     12 CAL        27.8570   16.6090   -4.8670 C.ar      1 JQ1        -0.0437
     13 CAM        31.8980   14.9640   -2.5760 C.3       1 JQ1         0.0747
     14 NAN        29.6620   16.0420   -2.8280 N.2       1 JQ1        -0.3432
     15 NAO        31.8170   18.1280    0.2830 N.2       1 JQ1        -0.2795
     16 NAP        32.0440   17.2500   -0.6250 N.2       1 JQ1        -0.2784
     17 OAQ        30.4000   13.2470   -3.3840 O.3       1 JQ1        -0.2709
     18 SAR        27.8100   16.3310    1.4560 S.3       1 JQ1         0.0060
     19 CAS        31.4750   13.9720   -3.6650 C.2       1 JQ1         0.2376
     20 CAT        28.3750   16.2200   -2.4890 C.2       1 JQ1         0.0263
     21 CAU        25.8800   17.8220   -5.5420 C.ar      1 JQ1         0.0470
     22 CAV        30.5340   18.0500    0.6710 C.2       1 JQ1         0.1468
     23 CAW        27.5220   16.7650   -3.5120 C.ar      1 JQ1         0.0078
     24 CAX        26.4600   15.6250    0.6460 C.2       1 JQ1         0.0043
     25 CAY        26.6960   15.5570   -0.7220 C.2       1 JQ1        -0.0580
     26 CAZ        30.8940   16.5810   -0.8330 C.2       1 JQ1         0.1631
     27 CBA        27.9310   16.1250   -1.1370 C.2       1 JQ1         0.0320
     28 CBB        28.6600   16.6020   -0.0300 C.2       1 JQ1         0.1844
     29 CBC        30.6460   15.4630   -1.8660 C.3       1 JQ1         0.1007
     30 NBD        29.9320   17.0880   -0.0610 N.pl3     1 JQ1        -0.1470
     31 CBE        29.7310   12.3020   -4.2990 C.3       1 JQ1         0.0899
     32 H          30.4257   18.8432    2.6709 H         1 JQ1         0.0469
     33 H          29.9696   19.9988    1.3950 H         1 JQ1         0.0469
     34 H          28.8511   18.6910    1.8532 H         1 JQ1         0.0469
     35 H          24.3231   15.6353    1.0157 H         1 JQ1         0.0365
     36 H          25.0940   14.0442    1.2278 H         1 JQ1         0.0365
     37 H          25.3133   15.3112    2.4598 H         1 JQ1         0.0365
     38 H          25.5174   13.8872   -1.4226 H         1 JQ1         0.0315
     39 H          24.7398   15.4750   -1.6357 H         1 JQ1         0.0315
     40 H          26.0727   14.9850   -2.7101 H         1 JQ1         0.0315
     41 H          28.5352   13.8744   -5.1058 H         1 JQ1         0.0261
     42 H          30.0775   13.6038   -5.9539 H         1 JQ1         0.0261
     43 H          28.7276   12.4636   -6.1753 H         1 JQ1         0.0261
     44 H          31.5395   11.5077   -5.1848 H         1 JQ1         0.0261
     45 H          30.9395   10.5801   -3.7882 H         1 JQ1         0.0261
     46 H          30.1141   10.4550   -5.3611 H         1 JQ1         0.0261
     47 H          28.9079   11.2395   -2.6142 H         1 JQ1         0.0261
     48 H          27.8800   12.5590   -3.2254 H         1 JQ1         0.0261
     49 H          27.9989   11.0305   -4.1311 H         1 JQ1         0.0261
     50 H          24.6109   18.4834   -3.9548 H         1 JQ1         0.0639
     51 H          27.2884   16.9445   -6.9144 H         1 JQ1         0.0639
     52 H          26.0646   17.5820   -2.1670 H         1 JQ1         0.0681
     53 H          28.7757   16.0884   -5.1375 H         1 JQ1         0.0681
     54 H          32.4321   15.8025   -3.0229 H         1 JQ1         0.0556
     55 H          32.5606   14.4740   -1.8626 H         1 JQ1         0.0556
     56 H          30.2773   14.5685   -1.3640 H         1 JQ1         0.0655
@<TRIPOS>BOND
     1   22    1 1  
     2   24    2 1  
     3   25    3 1  
     4   31    4 1  
     5   31    5 1  
     6   31    6 1  
     7   19    7 2  
     8   21    8 1  
     9   11    9 ar 
    10    9   21 ar 
    11   12   10 ar 
    12   10   21 ar 
    13   23   11 ar 
    14   23   12 ar 
    15   13   19 1  
    16   29   13 1  
    17   14   20 2  
    18   29   14 1  
    19   16   15 1  
    20   15   22 2  
    21   26   16 2  
    22   19   17 1  
    23   17   31 1  
    24   24   18 1  
    25   18   28 1  
    26   20   23 1  
    27   20   27 1  
    28   22   30 1  
    29   25   24 2  
    30   27   25 1  
    31   26   29 1  
    32   26   30 1  
    33   27   28 2  
    34   28   30 1  
    35    1   32 1  
    36    1   33 1  
    37    1   34 1  
    38    2   35 1  
    39    2   36 1  
    40    2   37 1  
    41    3   38 1  
    42    3   39 1  
    43    3   40 1  
    44    4   41 1  
    45    4   42 1  
    46    4   43 1  
    47    5   44 1  
    48    5   45 1  
    49    5   46 1  
    50    6   47 1  
    51    6   48 1  
    52    6   49 1  
    53    9   50 1  
    54   10   51 1  
    55   11   52 1  
    56   12   53 1  
    57   13   54 1  
    58   13   55 1  
    59   29   56 1  
@<TRIPOS>SUBSTRUCTURE
     1 JQ1         1

