### 
### Created by X-TOOL on Mon Sep 10 21:13:02 2018
### 

@<TRIPOS>MOLECULE
3my1_ligand
   32    34     1     0     0
SMALL
GAST_HUCK


@<TRIPOS>ATOM
      1 C6         53.1390  -15.9500  -13.3010 C.ar      1 RFZ         0.0896
      2 C5         54.5040  -15.6950  -13.3430 C.ar      1 RFZ        -0.0244
      3 C4         54.9450  -14.3820  -13.4510 C.ar      1 RFZ         0.0417
      4 CL2        56.7040  -14.0230  -13.5060 Cl        1 RFZ        -0.0776
      5 C3         54.0240  -13.3480  -13.5140 C.ar      1 RFZ         0.0396
      6 CL1        54.6140  -11.6690  -13.6530 Cl        1 RFZ        -0.0802
      7 C2         52.6630  -13.5950  -13.4720 C.ar      1 RFZ        -0.0466
      8 C7         52.2270  -14.9030  -13.3670 C.ar      1 RFZ         0.0346
      9 N2         50.9970  -15.4390  -13.3040 N.2       1 RFZ        -0.3056
     10 C1         51.1420  -16.7780  -13.2010 C.2       1 RFZ         0.1085
     11 N1         52.4450  -17.0840  -13.2010 N.pl3     1 RFZ        -0.2069
     12 C1'        52.9990  -18.4530  -13.1050 C.3       1 RFZ         0.1981
     13 O4'        52.0200  -19.3610  -13.6150 O.3       1 RFZ        -0.3373
     14 C4'        51.4640  -20.1770  -12.5790 C.3       1 RFZ         0.1135
     15 C5'        49.9600  -19.9480  -12.5130 C.3       1 RFZ         0.0730
     16 O5'        49.4070  -19.9950  -13.8360 O.3       1 RFZ        -0.3924
     17 C3'        52.1580  -19.7990  -11.2750 C.3       1 RFZ         0.1145
     18 O3'        52.6910  -20.9650  -10.6390 O.3       1 RFZ        -0.3864
     19 C2'        53.2380  -18.7860  -11.6430 C.3       1 RFZ         0.1380
     20 O2'        54.5720  -19.2980  -11.4800 O.3       1 RFZ        -0.3836
     21 H          55.2202  -16.5151  -13.2918 H         1 RFZ         0.0557
     22 H          51.9480  -12.7737  -13.5208 H         1 RFZ         0.0563
     23 H          50.3257  -17.4968  -13.1291 H         1 RFZ         0.1355
     24 H          53.9315  -18.5258  -13.6646 H         1 RFZ         0.0989
     25 H          51.6219  -21.2384  -12.7704 H         1 RFZ         0.0647
     26 H          49.7616  -18.9710  -12.0722 H         1 RFZ         0.0584
     27 H          49.5020  -20.7253  -11.9014 H         1 RFZ         0.0584
     28 H          49.8109  -19.3108  -14.3750 H         1 RFZ         0.2095
     29 H          51.4679  -19.3588  -10.5552 H         1 RFZ         0.0648
     30 H          53.3274  -21.3840  -11.2230 H         1 RFZ         0.2100
     31 H          53.1706  -17.9198  -10.9848 H         1 RFZ         0.0676
     32 H          54.7078  -19.5481  -10.5631 H         1 RFZ         0.2101
@<TRIPOS>BOND
     1    1    2 ar 
     2    1    8 ar 
     3    1   11 1  
     4    2    3 ar 
     5    3    4 1  
     6    3    5 ar 
     7    5    6 1  
     8    5    7 ar 
     9    7    8 ar 
    10    8    9 1  
    11    9   10 2  
    12   10   11 1  
    13   11   12 1  
    14   12   13 1  
    15   12   19 1  
    16   13   14 1  
    17   14   15 1  
    18   14   17 1  
    19   15   16 1  
    20   17   18 1  
    21   17   19 1  
    22   19   20 1  
    23    2   21 1  
    24    7   22 1  
    25   10   23 1  
    26   12   24 1  
    27   14   25 1  
    28   15   26 1  
    29   15   27 1  
    30   16   28 1  
    31   17   29 1  
    32   18   30 1  
    33   19   31 1  
    34   20   32 1  
@<TRIPOS>SUBSTRUCTURE
     1 RFZ         1

