### 
### Created by X-TOOL on Mon Sep 10 21:13:02 2018
### 

@<TRIPOS>MOLECULE
3my5_ligand
   32    34     1     0     0
SMALL
GAST_HUCK


@<TRIPOS>ATOM
      1 C6         -6.3290   21.9070  -23.0760 C.ar      1 RFZ         0.0896
      2 C5         -7.1230   21.0490  -22.3340 C.ar      1 RFZ        -0.0244
      3 C4         -8.4890   21.0500  -22.5670 C.ar      1 RFZ         0.0417
      4 CL2        -9.5410   19.9530  -21.6270 Cl        1 RFZ        -0.0776
      5 C3         -9.0580   21.8860  -23.5180 C.ar      1 RFZ         0.0396
      6 CL1       -10.8360   21.8400  -23.7460 Cl        1 RFZ        -0.0802
      7 C2         -8.2750   22.7500  -24.2710 C.ar      1 RFZ        -0.0466
      8 C7         -6.9030   22.7500  -24.0350 C.ar      1 RFZ         0.0346
      9 N2         -5.9000   23.4620  -24.5890 N.2       1 RFZ        -0.3056
     10 C1         -4.7520   23.0730  -23.9970 C.2       1 RFZ         0.1085
     11 N1         -5.0050   22.1210  -23.0820 N.pl3     1 RFZ        -0.2069
     12 C1'        -3.9470   21.5110  -22.2160 C.3       1 RFZ         0.1981
     13 O4'        -3.8930   20.1210  -22.4400 O.3       1 RFZ        -0.3373
     14 C4'        -3.3590   19.4780  -21.2400 C.3       1 RFZ         0.1135
     15 C5'        -4.2280   18.3030  -20.8660 C.3       1 RFZ         0.0730
     16 O5'        -3.5250   17.3680  -20.0510 O.3       1 RFZ        -0.3924
     17 C3'        -3.2610   20.5780  -20.1760 C.3       1 RFZ         0.1145
     18 O3'        -1.9300   21.0890  -20.1440 O.3       1 RFZ        -0.3864
     19 C2'        -4.2030   21.6470  -20.7210 C.3       1 RFZ         0.1380
     20 O2'        -3.9500   22.9540  -20.2530 O.3       1 RFZ        -0.3836
     21 H1         -6.6869   20.3929  -21.5894 H         1 RFZ         0.0557
     22 H2         -8.7162   23.4017  -25.0165 H         1 RFZ         0.0563
     23 H3         -3.7649   23.4717  -24.2266 H         1 RFZ         0.1355
     24 H4         -2.9824   21.9770  -22.4656 H         1 RFZ         0.0989
     25 H5         -2.3471   19.0977  -21.4435 H         1 RFZ         0.0647
     26 H6         -4.5591   17.7971  -21.7850 H         1 RFZ         0.0584
     27 H7         -5.1052   18.6697  -20.3129 H         1 RFZ         0.0584
     28 H8         -4.0998   16.6432  -19.8347 H         1 RFZ         0.2095
     29 H9         -3.5671   20.2226  -19.1810 H         1 RFZ         0.0648
     30 H10        -1.8694   21.7704  -19.4848 H         1 RFZ         0.2100
     31 H11        -5.2459   21.3948  -20.4787 H         1 RFZ         0.0676
     32 H12        -3.0698   23.2127  -20.4997 H         1 RFZ         0.2101
@<TRIPOS>BOND
     1    1    2 ar 
     2    1    8 ar 
     3    1   11 1  
     4    2    3 ar 
     5    3    4 1  
     6    3    5 ar 
     7    5    6 1  
     8    5    7 ar 
     9    7    8 ar 
    10    8    9 1  
    11    9   10 2  
    12   10   11 1  
    13   11   12 1  
    14   12   13 1  
    15   12   19 1  
    16   13   14 1  
    17   14   15 1  
    18   14   17 1  
    19   15   16 1  
    20   17   18 1  
    21   17   19 1  
    22   19   20 1  
    23    2   21 1  
    24    7   22 1  
    25   10   23 1  
    26   12   24 1  
    27   14   25 1  
    28   15   26 1  
    29   15   27 1  
    30   16   28 1  
    31   17   29 1  
    32   18   30 1  
    33   19   31 1  
    34   20   32 1  
@<TRIPOS>SUBSTRUCTURE
     1 RFZ         1

