### 
### Created by X-TOOL on Mon Sep 10 21:13:05 2018
### 

@<TRIPOS>MOLECULE
3myq_ligand
   41    44     1     0     0
SMALL
GAST_HUCK


@<TRIPOS>ATOM
      1 N1         -2.2320    5.5460   11.5400 N.pl3     1 E27        -0.2280
      2 C2         -1.9320    4.9120   10.3970 C.2       1 E27         0.1919
      3 N3         -0.7730    5.3550    9.8940 N.2       1 E27        -0.3004
      4 C4         -0.3410    6.2780   10.7350 C.ar      1 E27         0.0516
      5 C5          0.8050    7.0570   10.7040 C.ar      1 E27         0.0066
      6 N6          0.9930    7.9250   11.7020 N.ar      1 E27        -0.3136
      7 C7          0.1240    8.0630   12.7130 C.ar      1 E27         0.0327
      8 C8         -1.0370    7.2950   12.7750 C.ar      1 E27         0.0282
      9 C9         -1.2440    6.3940   11.7490 C.ar      1 E27         0.1071
     10 C10         0.3770    8.9840   13.7230 C.ar      1 E27        -0.0471
     11 C11        -0.5220    9.1320   14.7740 C.ar      1 E27        -0.0613
     12 C12        -1.6780    8.3590   14.8250 C.ar      1 E27        -0.0612
     13 C13        -1.9400    7.4340   13.8200 C.ar      1 E27        -0.0503
     14 S14        -2.9730    3.6670    9.6880 S.3       1 E27        -0.0168
     15 C15        -4.3340    3.4550   10.8620 C.3       1 E27         0.0909
     16 C16        -3.9840    2.6700   12.1880 C.2       1 E27         0.1459
     17 O17        -3.1280    1.7230   12.2400 O.2       1 E27        -0.3773
     18 C18        -4.6460    2.9280   13.5660 C.ar      1 E27         0.0355
     19 C19        -4.9210    1.8980   14.4420 C.ar      1 E27        -0.0159
     20 C20        -5.5230    2.1270   15.6300 C.ar      1 E27         0.1276
     21 C21        -5.9370    3.4030   15.9370 C.ar      1 E27         0.0719
     22 C22        -5.7190    4.4710   15.0750 C.ar      1 E27        -0.0401
     23 C23        -5.1000    4.1950   13.9030 C.ar      1 E27        -0.0425
     24 S24        -5.9460    0.8020   16.7410 S.o2      1 E27         0.0674
     25 O25        -7.4330    0.7740   16.7380 O.2       1 E27        -0.1504
     26 CL26       -6.7760    3.8310   17.4050 Cl        1 E27        -0.0643
     27 O27        -5.3100    1.1070   18.0230 O.2       1 E27        -0.1504
     28 N28        -5.3740   -0.5550   16.0470 N.am      1 E27        -0.2609
     29 H1         -3.0622    5.4007   12.1321 H         1 E27         0.2400
     30 H2          1.5239    6.9651    9.8979 H         1 E27         0.0821
     31 H3          1.2766    9.5880   13.6915 H         1 E27         0.0619
     32 H4         -0.3210    9.8535   15.5577 H         1 E27         0.0620
     33 H5         -2.3739    8.4777   15.6476 H         1 E27         0.0612
     34 H6         -2.8387    6.8288   13.8524 H         1 E27         0.0629
     35 H7         -5.1396    2.9088   10.3494 H         1 E27         0.0634
     36 H8         -4.6926    4.4551   11.1469 H         1 E27         0.0634
     37 H9         -4.6485    0.8842   14.1717 H         1 E27         0.0691
     38 H10        -6.0300    5.4779   15.3291 H         1 E27         0.0636
     39 H11        -4.9521    5.0020   13.1945 H         1 E27         0.0671
     40 H12        -5.4977   -1.4383   16.4992 H         1 E27         0.1635
     41 H13        -4.8989   -0.5053   15.1685 H         1 E27         0.1635
@<TRIPOS>BOND
     1    1    2 1  
     2    1    9 1  
     3    2    3 2  
     4    2   14 1  
     5    3    4 1  
     6    4    5 ar 
     7    4    9 ar 
     8    5    6 ar 
     9    6    7 ar 
    10    7    8 ar 
    11    7   10 ar 
    12    8    9 ar 
    13    8   13 ar 
    14   10   11 ar 
    15   11   12 ar 
    16   12   13 ar 
    17   14   15 1  
    18   15   16 1  
    19   16   17 2  
    20   16   18 1  
    21   18   19 ar 
    22   18   23 ar 
    23   19   20 ar 
    24   20   21 ar 
    25   20   24 1  
    26   21   22 ar 
    27   21   26 1  
    28   22   23 ar 
    29   24   25 2  
    30   24   27 2  
    31   24   28 am 
    32    1   29 1  
    33    5   30 1  
    34   10   31 1  
    35   11   32 1  
    36   12   33 1  
    37   13   34 1  
    38   15   35 1  
    39   15   36 1  
    40   19   37 1  
    41   22   38 1  
    42   23   39 1  
    43   28   40 1  
    44   28   41 1  
@<TRIPOS>SUBSTRUCTURE
     1 E27         1

