### 
### Created by X-TOOL on Mon Sep 10 21:13:03 2018
### 

@<TRIPOS>MOLECULE
3mz3_ligand
   45    45     1     0     0
SMALL
GAST_HUCK


@<TRIPOS>ATOM
      1 O23        19.7590   32.5870   18.9310 O.2       1 B3N        -0.3909
      2 C13        20.8380   33.2660   18.9560 C.2       1 B3N         0.1951
      3 C14        21.3220   33.7800   20.2970 C.ar      1 B3N         0.0361
      4 C15        22.6610   34.3240   20.4760 C.ar      1 B3N        -0.0535
      5 C16        23.0510   34.7970   21.7900 C.ar      1 B3N        -0.0381
      6 C17        22.1090   34.7360   22.9450 C.ar      1 B3N         0.0452
      7 N20        22.4520   35.1960   24.2670 N.pl3     1 B3N        -0.3121
      8 C22        23.7470   35.7640   24.6050 C.3       1 B3N         0.0162
      9 C21        21.4870   35.1180   25.3780 C.3       1 B3N         0.0162
     10 C18        20.7790   34.1850   22.7230 C.ar      1 B3N        -0.0381
     11 C19        20.3940   33.7180   21.4350 C.ar      1 B3N        -0.0535
     12 N12        21.5720   33.5420   17.8270 N.am      1 B3N        -0.2881
     13 C10        21.2460   33.1170   16.4530 C.3       1 B3N         0.0301
     14 C9         21.8220   31.7640   16.0580 C.3       1 B3N        -0.0328
     15 C8         21.1670   30.6350   16.8560 C.3       1 B3N        -0.0511
     16 C7         21.7580   29.3030   16.4850 C.3       1 B3N        -0.0509
     17 C6         21.1920   28.1410   17.2280 C.3       1 B3N        -0.0352
     18 C5         21.9060   26.8950   16.7510 C.3       1 B3N         0.0514
     19 C1         21.0460   25.6800   16.9740 C.2       1 B3N         0.2874
     20 O2         20.5570   25.4050   18.0640 O.2       1 B3N        -0.3282
     21 N3         20.8320   24.9080   15.9340 N.2       1 B3N         0.0349
     22 O4         20.1270   23.8880   16.0460 O.2       1 B3N        -0.1733
     23 H          23.3566   34.3746   19.6383 H         1 B3N         0.0636
     24 H          24.0512   35.2048   21.9365 H         1 B3N         0.0530
     25 H          23.6117   36.7824   24.9692 H         1 B3N         0.0480
     26 H          24.2165   35.1588   25.3805 H         1 B3N         0.0480
     27 H          24.3802   35.7751   23.7178 H         1 B3N         0.0480
     28 H          21.8994   34.4964   26.1728 H         1 B3N         0.0480
     29 H          21.2946   36.1200   25.7615 H         1 B3N         0.0480
     30 H          20.5558   34.6801   25.0186 H         1 B3N         0.0480
     31 H          20.0722   34.1299   23.5509 H         1 B3N         0.0530
     32 H          19.3946   33.3077   21.2901 H         1 B3N         0.0636
     33 H          22.4218   34.0923   17.9512 H         1 B3N         0.1840
     34 H          21.6778   33.8569   15.7790 H         1 B3N         0.0519
     35 H          20.1609   33.0316   16.3942 H         1 B3N         0.0519
     36 H          22.8918   31.7649   16.2671 H         1 B3N         0.0285
     37 H          21.6313   31.5989   14.9976 H         1 B3N         0.0285
     38 H          20.1005   30.6201   16.6316 H         1 B3N         0.0266
     39 H          21.3385   30.8111   17.9179 H         1 B3N         0.0266
     40 H          22.8195   29.3483   16.7283 H         1 B3N         0.0267
     41 H          21.5387   29.1417   15.4295 H         1 B3N         0.0267
     42 H          20.1212   28.0582   17.0421 H         1 B3N         0.0290
     43 H          21.3347   28.2718   18.3007 H         1 B3N         0.0290
     44 H          22.8340   26.7810   17.3113 H         1 B3N         0.0512
     45 H          22.1151   26.9914   15.6856 H         1 B3N         0.0512
@<TRIPOS>BOND
     1    1    2 2  
     2    2    3 1  
     3    2   12 am 
     4    3    4 ar 
     5    3   11 ar 
     6    4    5 ar 
     7    5    6 ar 
     8    6    7 1  
     9    6   10 ar 
    10    7    8 1  
    11    7    9 1  
    12   10   11 ar 
    13   12   13 1  
    14   13   14 1  
    15   14   15 1  
    16   15   16 1  
    17   16   17 1  
    18   17   18 1  
    19   18   19 1  
    20   19   20 2  
    21   19   21 1  
    22   21   22 2  
    23    4   23 1  
    24    5   24 1  
    25    8   25 1  
    26    8   26 1  
    27    8   27 1  
    28    9   28 1  
    29    9   29 1  
    30    9   30 1  
    31   10   31 1  
    32   11   32 1  
    33   12   33 1  
    34   13   34 1  
    35   13   35 1  
    36   14   36 1  
    37   14   37 1  
    38   15   38 1  
    39   15   39 1  
    40   16   40 1  
    41   16   41 1  
    42   17   42 1  
    43   17   43 1  
    44   18   44 1  
    45   18   45 1  
@<TRIPOS>SUBSTRUCTURE
     1 B3N         1

