### 
### Created by X-TOOL on Mon Sep 10 21:13:03 2018
### 

@<TRIPOS>MOLECULE
3mz6_ligand
   45    45     1     0     0
SMALL
GAST_HUCK


@<TRIPOS>ATOM
      1 O23        -0.5420   43.6100    0.5860 O.2       1 B3N        -0.3909
      2 C13        -0.4810   43.9260    1.5310 C.2       1 B3N         0.1951
      3 C14        -0.7100   45.4250    1.8120 C.ar      1 B3N         0.0361
      4 C15         0.0780   46.1530    2.7940 C.ar      1 B3N        -0.0535
      5 C16        -0.1540   47.5620    3.0500 C.ar      1 B3N        -0.0381
      6 C17        -1.1880   48.2950    2.3290 C.ar      1 B3N         0.0452
      7 N20        -1.4580   49.7090    2.5660 N.pl3     1 B3N        -0.3121
      8 C22        -2.5690   50.4010    1.9000 C.3       1 B3N         0.0162
      9 C21        -0.6960   50.5200    3.5160 C.3       1 B3N         0.0162
     10 C18        -1.9930   47.5300    1.3460 C.ar      1 B3N        -0.0381
     11 C19        -1.7370   46.1510    1.0900 C.ar      1 B3N        -0.0535
     12 N12        -0.2160   43.0860    2.5730 N.am      1 B3N        -0.2881
     13 C10         0.0460   41.6230    2.5860 C.3       1 B3N         0.0301
     14 C9          0.6310   41.0090    1.2980 C.3       1 B3N        -0.0328
     15 C8          1.7240   39.9730    1.6230 C.3       1 B3N        -0.0511
     16 C7          1.2010   38.6710    2.1950 C.3       1 B3N        -0.0509
     17 C6          1.7440   37.4680    1.4290 C.3       1 B3N        -0.0352
     18 C5          2.3970   36.5090    2.4160 C.3       1 B3N         0.0514
     19 C1          1.8740   35.0690    2.3380 C.2       1 B3N         0.2874
     20 O2          0.7680   34.7760    2.7960 O.2       1 B3N        -0.3282
     21 N3          2.6060   34.1270    1.7680 N.2       1 B3N         0.0349
     22 O4          2.1540   32.9790    1.7120 O.2       1 B3N        -0.1733
     23 H1          0.8533   45.6330    3.3450 H         1 B3N         0.0636
     24 H2          0.4501   48.0774    3.7880 H         1 B3N         0.0530
     25 H3         -2.5901   51.4532    2.2200 H         1 B3N         0.0480
     26 H4         -3.5184   49.9162    2.1713 H         1 B3N         0.0480
     27 H5         -2.4307   50.3521    0.8098 H         1 B3N         0.0480
     28 H6          0.1075   49.9111    3.9560 H         1 B3N         0.0480
     29 H7         -1.3649   50.8760    4.3134 H         1 B3N         0.0480
     30 H8         -0.2576   51.3826    2.9928 H         1 B3N         0.0480
     31 H9         -2.7926   48.0297    0.8111 H         1 B3N         0.0530
     32 H10        -2.3230   45.6337    0.3390 H         1 B3N         0.0636
     33 H11        -0.1946   43.5247    3.4714 H         1 B3N         0.1840
     34 H12        -0.9081   41.1160    2.7925 H         1 B3N         0.0519
     35 H13         0.7539   41.4191    3.4029 H         1 B3N         0.0519
     36 H14         1.0674   41.8107    0.6841 H         1 B3N         0.0285
     37 H15        -0.1761   40.5154    0.7368 H         1 B3N         0.0285
     38 H16         2.4135   40.4183    2.3553 H         1 B3N         0.0266
     39 H17         2.2703   39.7466    0.6955 H         1 B3N         0.0266
     40 H18         0.1028   38.6685    2.1331 H         1 B3N         0.0267
     41 H19         1.5092   38.5934    3.2481 H         1 B3N         0.0267
     42 H20         2.4891   37.8044    0.6930 H         1 B3N         0.0290
     43 H21         0.9194   36.9582    0.9093 H         1 B3N         0.0290
     44 H22         2.2166   36.8862    3.4334 H         1 B3N         0.0512
     45 H23         3.4787   36.4937    2.2170 H         1 B3N         0.0512
@<TRIPOS>BOND
     1    1    2 2  
     2    2    3 1  
     3    2   12 am 
     4    3    4 ar 
     5    3   11 ar 
     6    4    5 ar 
     7    5    6 ar 
     8    6    7 1  
     9    6   10 ar 
    10    7    8 1  
    11    7    9 1  
    12   10   11 ar 
    13   12   13 1  
    14   13   14 1  
    15   14   15 1  
    16   15   16 1  
    17   16   17 1  
    18   17   18 1  
    19   18   19 1  
    20   19   20 2  
    21   19   21 1  
    22   21   22 2  
    23    4   23 1  
    24    5   24 1  
    25    8   25 1  
    26    8   26 1  
    27    8   27 1  
    28    9   28 1  
    29    9   29 1  
    30    9   30 1  
    31   10   31 1  
    32   11   32 1  
    33   12   33 1  
    34   13   34 1  
    35   13   35 1  
    36   14   36 1  
    37   14   37 1  
    38   15   38 1  
    39   15   39 1  
    40   16   40 1  
    41   16   41 1  
    42   17   42 1  
    43   17   43 1  
    44   18   44 1  
    45   18   45 1  
@<TRIPOS>SUBSTRUCTURE
     1 B3N         1

