### 
### Created by X-TOOL on Mon Sep 10 21:13:05 2018
### 

@<TRIPOS>MOLECULE
3mzc_ligand
   36    37     1     0     0
SMALL
GAST_HUCK


@<TRIPOS>ATOM
      1 C1         -5.0690    2.2280   15.7970 C.ar      1 S6I         0.0922
      2 N1         -5.3850   -0.4900   16.1470 N.am      1 S6I        -0.2626
      3 O1         -7.3100    1.1610   16.6550 O.2       1 S6I        -0.1524
      4 S1         -5.8620    0.9760   16.7700 S.o2      1 S6I         0.0590
      5 C2         -5.7650    3.3080   15.3320 C.ar      1 S6I        -0.0492
      6 O2         -5.3530    1.1050   18.1370 O.2       1 S6I        -0.1524
      7 C3         -5.1270    4.2980   14.6120 C.ar      1 S6I        -0.0397
      8 C4         -3.7750    4.1690   14.3490 C.ar      1 S6I         0.0666
      9 C5         -3.0900    3.1030   14.8080 C.ar      1 S6I        -0.0397
     10 C6         -3.7020    2.1450   15.5090 C.ar      1 S6I        -0.0492
     11 N7         -2.9260    5.1230   13.6770 N.am      1 S6I        -0.2196
     12 C8         -3.2450    6.4550   13.3690 C.2       1 S6I         0.2874
     13 O8         -4.3040    6.9340   13.6480 O.2       1 S6I        -0.3904
     14 N9         -2.0960    7.2070   12.9610 N.am      1 S6I        -0.2648
     15 C10        -2.1060    8.5580   12.8950 C.3       1 S6I         0.0429
     16 C11        -2.1230    9.0870   14.2700 C.3       1 S6I        -0.0301
     17 C12        -0.7180    9.1120   14.7700 C.3       1 S6I        -0.0509
     18 C13         0.1500    9.0570   13.5390 C.3       1 S6I        -0.0509
     19 C14        -0.7970    9.0040   12.3390 C.3       1 S6I        -0.0301
     20 H1         -5.7211   -1.3394   16.5539 H         1 S6I         0.1633
     21 H2         -4.7621   -0.5223   15.3654 H         1 S6I         0.1633
     22 H3         -6.8277    3.3881   15.5303 H         1 S6I         0.0596
     23 H4         -5.6767    5.1628   14.2583 H         1 S6I         0.0501
     24 H5         -2.0282    3.0221   14.6055 H         1 S6I         0.0501
     25 H6         -3.1324    1.2919   15.8595 H         1 S6I         0.0596
     26 H7         -2.0190    4.8030   13.4031 H         1 S6I         0.2255
     27 H8         -1.2591    6.7171   12.7170 H         1 S6I         0.1855
     28 H9         -2.9555    8.9243   12.3000 H         1 S6I         0.0553
     29 H10        -2.7366    8.4382   14.9123 H         1 S6I         0.0287
     30 H11        -2.5388   10.1054   14.2734 H         1 S6I         0.0287
     31 H12        -0.5244    8.2427   15.4157 H         1 S6I         0.0266
     32 H13        -0.5272   10.0372   15.3336 H         1 S6I         0.0266
     33 H14         0.7845    8.1588   13.5617 H         1 S6I         0.0266
     34 H15         0.7851    9.9533   13.4820 H         1 S6I         0.0266
     35 H16        -0.8920    9.9983   11.8782 H         1 S6I         0.0287
     36 H17        -0.4311    8.2862   11.5901 H         1 S6I         0.0287
@<TRIPOS>BOND
     1    1    4 1  
     2    1    5 ar 
     3    1   10 ar 
     4    4    2 am 
     5    4    3 2  
     6    4    6 2  
     7    5    7 ar 
     8    7    8 ar 
     9    8    9 ar 
    10    8   11 1  
    11    9   10 ar 
    12   11   12 am 
    13   12   13 2  
    14   12   14 am 
    15   14   15 1  
    16   15   16 1  
    17   15   19 1  
    18   16   17 1  
    19   17   18 1  
    20   18   19 1  
    21    2   20 1  
    22    2   21 1  
    23    5   22 1  
    24    7   23 1  
    25    9   24 1  
    26   10   25 1  
    27   11   26 1  
    28   14   27 1  
    29   15   28 1  
    30   16   29 1  
    31   16   30 1  
    32   17   31 1  
    33   17   32 1  
    34   18   33 1  
    35   18   34 1  
    36   19   35 1  
    37   19   36 1  
@<TRIPOS>SUBSTRUCTURE
     1 S6I         1

