### 
### Created by X-TOOL on Mon Sep 10 21:13:07 2018
### 

@<TRIPOS>MOLECULE
3n0h_ligand
   39    40     1     0     0
SMALL
GAST_HUCK


@<TRIPOS>ATOM
      1 C1         -3.4720  -16.8490    2.7540 C.ar      1 TOP         0.0016
      2 N2         -3.2870  -17.4760    3.9080 N.ar      1 TOP        -0.2822
      3 C3         -2.8880  -18.7560    3.9570 C.ar      1 TOP         0.1638
      4 N4         -2.6720  -19.3000    5.1860 N.pl3     1 TOP        -0.3098
      5 N5         -2.7070  -19.4680    2.8340 N.ar      1 TOP        -0.2486
      6 C6         -2.8840  -18.9080    1.6270 C.ar      1 TOP         0.1161
      7 N7         -2.6670  -19.6170    0.5020 N.pl3     1 TOP        -0.3198
      8 C8         -3.2870  -17.4930    1.5600 C.ar      1 TOP         0.0217
      9 C9         -3.5320  -16.7250    0.2650 C.3       1 TOP         0.0058
     10 C10        -2.2390  -16.0280   -0.2150 C.ar      1 TOP        -0.0614
     11 C11        -1.7110  -16.4250   -1.4560 C.ar      1 TOP        -0.0491
     12 C12        -0.5550  -15.8560   -1.9990 C.ar      1 TOP         0.1051
     13 O13         0.0140  -16.2370   -3.1930 O.3       1 TOP        -0.3297
     14 C14        -0.5820  -17.3170   -3.9080 C.3       1 TOP         0.0563
     15 C15         0.1650  -14.8360   -1.2380 C.ar      1 TOP         0.1396
     16 O16         1.2660  -14.2520   -1.7630 O.3       1 TOP        -0.3340
     17 C17         1.0440  -13.1810   -2.6950 C.3       1 TOP         0.0526
     18 C18        -0.3760  -14.4190    0.0620 C.ar      1 TOP         0.1051
     19 O19         0.2950  -13.4150    0.7240 O.3       1 TOP        -0.3297
     20 C20        -0.3350  -13.0380    1.9590 C.3       1 TOP         0.0563
     21 C21        -1.5600  -15.0430    0.5560 C.ar      1 TOP        -0.0491
     22 H1         -3.7750  -15.8082    2.7562 H         1 TOP         0.0775
     23 H2         -2.8180  -18.7327    6.0332 H         1 TOP         0.1804
     24 H3         -2.3626  -20.2789    5.2687 H         1 TOP         0.1804
     25 H4         -2.8060  -19.1770   -0.4189 H         1 TOP         0.1790
     26 H5         -2.3621  -20.5990    0.5629 H         1 TOP         0.1790
     27 H6         -4.3080  -15.9648    0.4382 H         1 TOP         0.0535
     28 H7         -3.8725  -17.4264   -0.5109 H         1 TOP         0.0535
     29 H8         -2.2201  -17.2027   -2.0137 H         1 TOP         0.0367
     30 H9         -0.0170  -17.4999   -4.8339 H         1 TOP         0.0572
     31 H10        -1.6224  -17.0616   -4.1578 H         1 TOP         0.0572
     32 H11        -0.5664  -18.2228   -3.2841 H         1 TOP         0.0572
     33 H12         2.0120  -12.7940   -3.0462 H         1 TOP         0.0565
     34 H13         0.4844  -12.3739   -2.1996 H         1 TOP         0.0565
     35 H14         0.4658  -13.5552   -3.5527 H         1 TOP         0.0565
     36 H15         0.2463  -12.2359    2.4372 H         1 TOP         0.0572
     37 H16        -0.3784  -13.9090    2.6294 H         1 TOP         0.0572
     38 H17        -1.3552  -12.6803    1.7560 H         1 TOP         0.0572
     39 H18        -1.9468  -14.7638    1.5294 H         1 TOP         0.0367
@<TRIPOS>BOND
     1    1    2 ar 
     2    1    8 ar 
     3    2    3 ar 
     4    3    4 1  
     5    3    5 ar 
     6    5    6 ar 
     7    6    7 1  
     8    6    8 ar 
     9    8    9 1  
    10    9   10 1  
    11   10   11 ar 
    12   10   21 ar 
    13   11   12 ar 
    14   12   13 1  
    15   12   15 ar 
    16   13   14 1  
    17   15   16 1  
    18   15   18 ar 
    19   16   17 1  
    20   18   19 1  
    21   18   21 ar 
    22   19   20 1  
    23    1   22 1  
    24    4   23 1  
    25    4   24 1  
    26    7   25 1  
    27    7   26 1  
    28    9   27 1  
    29    9   28 1  
    30   11   29 1  
    31   14   30 1  
    32   14   31 1  
    33   14   32 1  
    34   17   33 1  
    35   17   34 1  
    36   17   35 1  
    37   20   36 1  
    38   20   37 1  
    39   20   38 1  
    40   21   39 1  
@<TRIPOS>SUBSTRUCTURE
     1 TOP         1

