### 
### Created by X-TOOL on Mon Sep 10 21:13:05 2018
### 

@<TRIPOS>MOLECULE
3n0n_ligand
   33    34     1     0     0
SMALL
GAST_HUCK


@<TRIPOS>ATOM
      1 C1         -5.1560    2.2640   15.7830 C.ar      1 P9B         0.0922
      2 N1         -5.3990   -0.3890   16.0460 N.am      1 P9B        -0.2626
      3 O1         -5.3500    1.0290   18.0300 O.2       1 P9B        -0.1524
      4 S1         -5.8790    0.9470   16.6980 S.o2      1 P9B         0.0590
      5 C2         -3.7120    2.2500   15.4550 C.ar      1 P9B        -0.0491
      6 O2         -7.2950    1.0720   16.6250 O.2       1 P9B        -0.1524
      7 C3         -3.1370    3.2740   14.7980 C.ar      1 P9B        -0.0397
      8 C4         -3.9760    4.3770   14.3520 C.ar      1 P9B         0.0672
      9 C5         -5.3110    4.4310   14.6390 C.ar      1 P9B        -0.0397
     10 C6         -5.9350    3.3190   15.3850 C.ar      1 P9B        -0.0491
     11 N7         -3.3560    5.4560   13.6950 N.am      1 P9B        -0.2148
     12 C8         -4.0350    6.2540   12.7490 C.2       1 P9B         0.3140
     13 O8         -5.1520    5.9930   12.3080 O.2       1 P9B        -0.3815
     14 N9         -3.2990    7.3430   12.2220 N.am      1 P9B        -0.2170
     15 C10        -2.0410    7.7650   12.7340 C.ar      1 P9B         0.1276
     16 C11        -1.9380    8.0970   14.0730 C.ar      1 P9B         0.1769
     17 F11        -2.9420    7.9460   14.9360 F         1 P9B        -0.2003
     18 C12        -0.7460    8.5890   14.5700 C.ar      1 P9B         0.1794
     19 F12        -0.7340    8.8410   15.8680 F         1 P9B        -0.1935
     20 C13         0.3580    8.7780   13.7280 C.ar      1 P9B         0.1784
     21 F13         1.5250    9.2580   14.1640 F         1 P9B        -0.1998
     22 C14         0.2080    8.4570   12.3750 C.ar      1 P9B         0.1794
     23 F14         1.2260    8.6330   11.5510 F         1 P9B        -0.1935
     24 C15        -1.0020    7.9830   11.8820 C.ar      1 P9B         0.1769
     25 F15        -1.1810    7.6720   10.6030 F         1 P9B        -0.2003
     26 H1         -5.7009   -1.2653   16.4214 H         1 P9B         0.1633
     27 H2         -4.7899   -0.3679   15.2532 H         1 P9B         0.1633
     28 H3         -3.1074    1.3998   15.7494 H         1 P9B         0.0596
     29 H4         -2.0704    3.2775   14.6047 H         1 P9B         0.0501
     30 H5         -5.9056    5.2804   14.3227 H         1 P9B         0.0501
     31 H6         -6.9943    3.3373   15.6144 H         1 P9B         0.0596
     32 H7         -2.4010    5.6648   13.9056 H         1 P9B         0.2261
     33 H8         -3.6852    7.8430   11.4469 H         1 P9B         0.2225
@<TRIPOS>BOND
     1    1    4 1  
     2    1    5 ar 
     3    1   10 ar 
     4    4    2 am 
     5    4    3 2  
     6    4    6 2  
     7    5    7 ar 
     8    7    8 ar 
     9    8    9 ar 
    10    8   11 1  
    11    9   10 ar 
    12   11   12 am 
    13   12   13 2  
    14   12   14 am 
    15   14   15 1  
    16   15   16 ar 
    17   15   24 ar 
    18   16   17 1  
    19   16   18 ar 
    20   18   19 1  
    21   18   20 ar 
    22   20   21 1  
    23   20   22 ar 
    24   22   23 1  
    25   22   24 ar 
    26   24   25 1  
    27    2   26 1  
    28    2   27 1  
    29    5   28 1  
    30    7   29 1  
    31    9   30 1  
    32   10   31 1  
    33   11   32 1  
    34   14   33 1  
@<TRIPOS>SUBSTRUCTURE
     1 P9B         1

