### 
### Created by X-TOOL on Mon Sep 10 21:13:04 2018
### 

@<TRIPOS>MOLECULE
3n1v_ligand
   23    24     1     0     0
SMALL
GAST_HUCK


@<TRIPOS>ATOM
      1 CL1        -0.1650   77.9230   28.9120 Cl        1 3N1        -0.0787
      2 C2          1.5040   78.0890   28.5960 C.ar      1 3N1         0.0262
      3 C3          2.3460   76.9620   28.6930 C.ar      1 3N1        -0.0573
      4 C5          3.6950   77.1810   28.4450 C.ar      1 3N1        -0.0298
      5 C6          4.1810   78.4370   28.1120 C.ar      1 3N1         0.0311
      6 S7          5.9200   78.5420   27.8050 S.3       1 3N1        -0.0404
      7 C8          5.9750   76.7620   28.1520 C.2       1 3N1         0.0248
      8 C9          4.8010   76.1820   28.4740 C.2       1 3N1        -0.0483
      9 C10         4.5890   74.7150   28.8210 C.3       1 3N1        -0.0483
     10 C14         7.2460   75.9870   28.0770 C.3       1 3N1         0.0416
     11 C17         7.5280   75.6680   26.6240 C.2       1 3N1         0.0472
     12 O18         8.6580   75.7440   26.1730 O.co2     1 3N1        -0.5662
     13 O19         6.4840   75.3040   25.8640 O.co2     1 3N1        -0.5662
     14 C21         3.3370   79.5540   28.0130 C.ar      1 3N1        -0.0538
     15 C23         1.9810   79.3660   28.2630 C.ar      1 3N1        -0.0603
     16 H1          1.9622   75.9805   28.9467 H         1 3N1         0.0548
     17 H2          3.5251   74.5397   29.0385 H         1 3N1         0.0311
     18 H3          5.1913   74.4564   29.7044 H         1 3N1         0.0311
     19 H4          4.8974   74.0888   27.9708 H         1 3N1         0.0311
     20 H5          7.1456   75.0530   28.6494 H         1 3N1         0.0600
     21 H6          8.0705   76.5849   28.4925 H         1 3N1         0.0600
     22 H7          3.7282   80.5303   27.7506 H         1 3N1         0.0559
     23 H8          1.2954   80.2033   28.2007 H         1 3N1         0.0543
@<TRIPOS>BOND
     1    1    2 1  
     2    2    3 ar 
     3    2   15 ar 
     4    3    4 ar 
     5    4    5 ar 
     6    4    8 1  
     7    5    6 1  
     8    5   14 ar 
     9    6    7 1  
    10    7    8 2  
    11    7   10 1  
    12    8    9 1  
    13   10   11 1  
    14   11   12 ar 
    15   11   13 ar 
    16   14   15 ar 
    17    3   16 1  
    18    9   17 1  
    19    9   18 1  
    20    9   19 1  
    21   10   20 1  
    22   10   21 1  
    23   14   22 1  
    24   15   23 1  
@<TRIPOS>SUBSTRUCTURE
     1 3N1         1

