### 
### Created by X-TOOL on Mon Sep 10 21:13:04 2018
### 

@<TRIPOS>MOLECULE
3n1w_ligand
   20    21     1     0     0
SMALL
GAST_HUCK


@<TRIPOS>ATOM
      1 CL1         1.8190   73.6730   28.3820 Cl        1 3N2        -0.0776
      2 C2          2.1990   75.3580   28.2910 C.ar      1 3N2         0.0304
      3 C3          3.5410   75.7690   28.4230 C.ar      1 3N2        -0.0513
      4 C5          3.7950   77.1350   28.3030 C.ar      1 3N2        -0.0162
      5 C6          2.7840   78.0600   28.0790 C.ar      1 3N2         0.0352
      6 S7          3.2650   79.6710   27.9700 S.3       1 3N2        -0.0521
      7 C8          4.9790   79.1280   28.1970 C.2       1 3N2        -0.0086
      8 C10         5.1240   77.8050   28.3500 C.2       1 3N2        -0.0311
      9 C11         6.4400   77.0470   28.4890 C.3       1 3N2         0.0236
     10 C14         6.7500   76.1200   27.2700 C.2       1 3N2         0.0427
     11 O15         5.9150   75.7910   26.4370 O.co2     1 3N2        -0.5670
     12 O16         8.0070   75.6450   27.1610 O.co2     1 3N2        -0.5670
     13 C18         1.4440   77.6780   27.9430 C.ar      1 3N2        -0.0495
     14 C20         1.1610   76.3010   28.0500 C.ar      1 3N2        -0.0564
     15 H           4.3417   75.0534   28.6099 H         1 3N2         0.0583
     16 H           5.8213   79.8198   28.2081 H         1 3N2         0.0636
     17 H           6.3643   76.4144   29.3734 H         1 3N2         0.0543
     18 H           7.2400   77.7845   28.5543 H         1 3N2         0.0543
     19 H           0.6570   78.4103   27.7630 H         1 3N2         0.0570
     20 H           0.1329   75.9540   27.9467 H         1 3N2         0.0575
@<TRIPOS>BOND
     1    1    2 1  
     2    2    3 ar 
     3    2   14 ar 
     4    3    4 ar 
     5    4    5 ar 
     6    4    8 1  
     7    5    6 1  
     8    5   13 ar 
     9    6    7 1  
    10    7    8 2  
    11    8    9 1  
    12    9   10 1  
    13   10   11 ar 
    14   10   12 ar 
    15   13   14 ar 
    16    3   15 1  
    17    7   16 1  
    18    9   17 1  
    19    9   18 1  
    20   13   19 1  
    21   14   20 1  
@<TRIPOS>SUBSTRUCTURE
     1 3N2         1

