### 
### Created by X-TOOL on Mon Sep 10 21:13:08 2018
### 

@<TRIPOS>MOLECULE
3n23_ligand
   85    90     1     0     0
SMALL
GAST_HUCK


@<TRIPOS>ATOM
      1 C1        -26.3960  -19.0990   74.6690 C.3       1 OBN         0.0683
      2 C2        -27.9050  -19.3420   74.7150 C.3       1 OBN         0.0004
      3 C3        -28.2100  -20.3120   75.8420 C.3       1 OBN         0.0668
      4 C4        -27.4620  -21.6100   75.5740 C.3       1 OBN         0.0032
      5 C5        -25.9510  -21.4110   75.4250 C.3       1 OBN         0.0788
      6 C6        -25.2690  -22.7470   75.1730 C.3       1 OBN        -0.0229
      7 C7        -25.6680  -23.2930   73.8150 C.3       1 OBN        -0.0446
      8 C8        -25.3310  -22.2780   72.7220 C.3       1 OBN        -0.0054
      9 C9        -25.9980  -20.9160   72.9380 C.3       1 OBN         0.0032
     10 C10       -25.6290  -20.3770   74.3270 C.3       1 OBN         0.0540
     11 C11       -25.5570  -20.0460   71.7540 C.3       1 OBN         0.0600
     12 C12       -26.2620  -20.5630   70.5080 C.3       1 OBN        -0.0156
     13 C13       -25.8260  -21.9770   70.1400 C.3       1 OBN         0.0170
     14 C14       -25.5500  -22.9070   71.3430 C.3       1 OBN         0.0777
     15 C15       -26.6650  -23.9430   71.4350 C.3       1 OBN        -0.0201
     16 C16       -27.4940  -23.8500   70.1760 C.3       1 OBN        -0.0318
     17 C17       -27.0150  -22.6260   69.4230 C.3       1 OBN         0.0154
     18 C18       -24.5910  -21.8050   69.2530 C.3       1 OBN        -0.0539
     19 C19       -24.1160  -20.1600   74.2110 C.3       1 OBN         0.0552
     20 C20       -26.7240  -23.1300   68.0570 C.2       1 OBN        -0.0064
     21 C21       -25.7380  -24.2390   67.7120 C.3       1 OBN         0.1204
     22 C22       -27.4020  -22.6550   67.0260 C.2       1 OBN         0.0017
     23 C23       -26.9570  -23.4640   65.9010 C.2       1 OBN         0.2187
     24 C1'       -28.2980  -20.0190   78.2670 C.3       1 OBN         0.1881
     25 C2'       -27.5660  -19.1450   79.2690 C.3       1 OBN         0.1341
     26 C3'       -27.7650  -17.6720   78.9010 C.3       1 OBN         0.1140
     27 C4'       -29.2460  -17.3190   78.7390 C.3       1 OBN         0.1095
     28 C5'       -29.9450  -18.3320   77.8330 C.3       1 OBN         0.0873
     29 C6'       -31.4490  -18.1250   77.8010 C.3       1 OBN        -0.0361
     30 O1        -25.9480  -18.6020   75.9400 O.3       1 OBN        -0.3910
     31 O3        -27.6830  -19.7160   77.0210 O.3       1 OBN        -0.3452
     32 O5        -25.4270  -20.9290   76.6630 O.3       1 OBN        -0.3878
     33 O11       -25.8020  -18.6360   71.8960 O.3       1 OBN        -0.3915
     34 O14       -24.3510  -23.6210   71.0630 O.3       1 OBN        -0.3875
     35 O19       -23.7360  -18.8000   73.9650 O.3       1 OBN        -0.3943
     36 O21       -26.0670  -24.5070   66.3520 O.3       1 OBN        -0.2665
     37 O23       -27.2790  -23.3000   64.7480 O.2       1 OBN        -0.3870
     38 O2'       -28.0640  -19.4390   80.5760 O.3       1 OBN        -0.3841
     39 O3'       -27.1660  -16.8330   79.8910 O.3       1 OBN        -0.3864
     40 O4'       -29.3650  -16.0060   78.1770 O.3       1 OBN        -0.3866
     41 O5'       -29.6880  -19.6740   78.2670 O.3       1 OBN        -0.3431
     42 H         -26.1999  -18.3654   73.8871 H         1 OBN         0.0601
     43 H         -28.2409  -19.7606   73.7663 H         1 OBN         0.0315
     44 H         -28.4258  -18.4001   74.8872 H         1 OBN         0.0315
     45 H         -29.2766  -20.5179   75.9319 H         1 OBN         0.0599
     46 H         -27.8365  -22.0212   74.6366 H         1 OBN         0.0318
     47 H         -27.6273  -22.2701   76.4255 H         1 OBN         0.0318
     48 H         -25.5741  -23.4538   75.9447 H         1 OBN         0.0293
     49 H         -24.1885  -22.6053   75.1964 H         1 OBN         0.0293
     50 H         -26.7410  -23.4846   73.8073 H         1 OBN         0.0270
     51 H         -25.1219  -24.2172   73.6261 H         1 OBN         0.0270
     52 H         -24.2708  -22.0320   72.7813 H         1 OBN         0.0332
     53 H         -27.0875  -20.9490   72.9469 H         1 OBN         0.0337
     54 H         -24.4722  -20.1327   71.6928 H         1 OBN         0.0596
     55 H         -26.0074  -19.9041   69.6778 H         1 OBN         0.0299
     56 H         -27.3332  -20.5813   70.7090 H         1 OBN         0.0299
     57 H         -27.2862  -23.7508   72.3098 H         1 OBN         0.0295
     58 H         -26.2426  -24.9429   71.5346 H         1 OBN         0.0295
     59 H         -28.5539  -23.7659   70.4163 H         1 OBN         0.0301
     60 H         -27.3771  -24.7477   69.5689 H         1 OBN         0.0301
     61 H         -27.7458  -21.8189   69.3729 H         1 OBN         0.0549
     62 H         -24.8582  -21.2269   68.3684 H         1 OBN         0.0238
     63 H         -23.8150  -21.2806   69.8106 H         1 OBN         0.0238
     64 H         -24.2232  -22.7854   68.9504 H         1 OBN         0.0238
     65 H         -23.7702  -20.7497   73.3620 H         1 OBN         0.0564
     66 H         -23.6749  -20.4502   75.1646 H         1 OBN         0.0564
     67 H         -25.8228  -25.1120   68.3592 H         1 OBN         0.0859
     68 H         -24.6961  -23.9544   67.8585 H         1 OBN         0.0859
     69 H         -28.1287  -21.8426   67.0200 H         1 OBN         0.0295
     70 H         -28.2402  -21.0843   78.4904 H         1 OBN         0.0937
     71 H         -26.4948  -19.3462   79.2534 H         1 OBN         0.0671
     72 H         -27.2790  -17.5042   77.9399 H         1 OBN         0.0648
     73 H         -29.7220  -17.3444   79.7193 H         1 OBN         0.0646
     74 H         -29.5404  -18.1754   76.8330 H         1 OBN         0.0621
     75 H         -31.8510  -18.2344   78.8082 H         1 OBN         0.0255
     76 H         -31.6690  -17.1250   77.4273 H         1 OBN         0.0255
     77 H         -31.9028  -18.8675   77.1446 H         1 OBN         0.0255
     78 H         -26.1086  -19.2644   76.6160 H         1 OBN         0.2098
     79 H         -25.8276  -20.0816   76.8705 H         1 OBN         0.2102
     80 H         -25.3564  -18.3125   72.6824 H         1 OBN         0.2098
     81 H         -24.1521  -24.2096   71.7948 H         1 OBN         0.2102
     82 H         -24.1282  -18.5035   73.1404 H         1 OBN         0.2094
     83 H         -29.0033  -19.2439   80.6107 H         1 OBN         0.2101
     84 H         -27.6145  -16.9599   80.7303 H         1 OBN         0.2100
     85 H         -28.9247  -15.3732   78.7491 H         1 OBN         0.2100
@<TRIPOS>BOND
     1    2    1 1  
     2    1   10 1  
     3    1   30 1  
     4    3    2 1  
     5    3    4 1  
     6   31    3 1  
     7    4    5 1  
     8    5    6 1  
     9    5   10 1  
    10    5   32 1  
    11    6    7 1  
    12    7    8 1  
    13    9    8 1  
    14    8   14 1  
    15   10    9 1  
    16    9   11 1  
    17   10   19 1  
    18   11   12 1  
    19   11   33 1  
    20   12   13 1  
    21   14   13 1  
    22   13   17 1  
    23   13   18 1  
    24   14   15 1  
    25   14   34 1  
    26   15   16 1  
    27   17   16 1  
    28   17   20 1  
    29   19   35 1  
    30   20   21 1  
    31   20   22 2  
    32   21   36 1  
    33   22   23 1  
    34   23   36 1  
    35   23   37 2  
    36   24   25 1  
    37   24   31 1  
    38   24   41 1  
    39   25   26 1  
    40   25   38 1  
    41   26   27 1  
    42   26   39 1  
    43   27   28 1  
    44   27   40 1  
    45   28   29 1  
    46   28   41 1  
    47    1   42 1  
    48    2   43 1  
    49    2   44 1  
    50    3   45 1  
    51    4   46 1  
    52    4   47 1  
    53    6   48 1  
    54    6   49 1  
    55    7   50 1  
    56    7   51 1  
    57    8   52 1  
    58    9   53 1  
    59   11   54 1  
    60   12   55 1  
    61   12   56 1  
    62   15   57 1  
    63   15   58 1  
    64   16   59 1  
    65   16   60 1  
    66   17   61 1  
    67   18   62 1  
    68   18   63 1  
    69   18   64 1  
    70   19   65 1  
    71   19   66 1  
    72   21   67 1  
    73   21   68 1  
    74   22   69 1  
    75   24   70 1  
    76   25   71 1  
    77   26   72 1  
    78   27   73 1  
    79   28   74 1  
    80   29   75 1  
    81   29   76 1  
    82   29   77 1  
    83   30   78 1  
    84   32   79 1  
    85   33   80 1  
    86   34   81 1  
    87   35   82 1  
    88   38   83 1  
    89   39   84 1  
    90   40   85 1  
@<TRIPOS>SUBSTRUCTURE
     1 OBN         1

