### 
### Created by X-TOOL on Mon Sep 10 21:13:07 2018
### 

@<TRIPOS>MOLECULE
3n2e_ligand
   46    49     1     0     0
SMALL
GAST_HUCK


@<TRIPOS>ATOM
      1 CAA        42.3670   15.9390    8.3510 C.ar      1 OSA        -0.0376
      2 CAB        41.1260   16.0670    8.9910 C.ar      1 OSA        -0.0537
      3 CAC        41.0720   16.4610   10.3450 C.ar      1 OSA         0.0209
      4 CAD        42.2610   16.6980   11.0500 C.ar      1 OSA        -0.0328
      5 CAE        43.5170   16.5810   10.4210 C.ar      1 OSA        -0.0421
      6 CAF        43.5550   16.2010    9.0690 C.ar      1 OSA         0.0369
      7 NAG        44.7440   16.0810    8.4830 N.pl3     1 OSA        -0.3349
      8 CAH        42.2050   17.0530   12.3930 C.ar      1 OSA        -0.0473
      9 CAI        40.9970   17.1730   13.0390 C.ar      1 OSA         0.0659
     10 CAJ        39.7980   16.9740   12.3530 C.ar      1 OSA         0.1283
     11 CAK        39.8510   16.5980   11.0020 C.ar      1 OSA         0.1367
     12 OAL        38.7240   16.3610   10.2920 O.3       1 OSA        -0.3170
     13 NAM        38.6320   17.0950   13.0210 N.2       1 OSA        -0.1872
     14 NAN        37.6060   16.5870   12.5580 N.2       1 OSA        -0.1930
     15 CAO        36.4180   16.5580   13.1630 C.ar      1 OSA         0.0650
     16 CAP        35.3740   15.8750   12.5510 C.ar      1 OSA        -0.0391
     17 CAQ        34.1230   15.7940   13.1610 C.ar      1 OSA        -0.0509
     18 CAR        33.8890   16.3970   14.3990 C.ar      1 OSA         0.0187
     19 CAS        34.9470   17.0860   14.9980 C.ar      1 OSA        -0.0200
     20 CAT        36.2040   17.1640   14.3980 C.ar      1 OSA        -0.0323
     21 CAU        34.7560   17.6930   16.2160 C.ar      1 OSA        -0.0453
     22 CAV        33.5210   17.6290   16.8600 C.ar      1 OSA         0.0402
     23 CAW        32.4420   16.9580   16.2810 C.ar      1 OSA        -0.0115
     24 CAX        32.6270   16.3290   15.0380 C.ar      1 OSA         0.1032
     25 OAY        31.5650   15.6770   14.4500 O.3       1 OSA        -0.3280
     26 SAZ        33.4180   18.4530   18.4150 S.o2      1 OSA        -0.1659
     27 OBA        32.1130   18.0890   19.1100 O.co2     1 OSA        -0.4799
     28 OBB        34.6070   18.1470   19.3070 O.co2     1 OSA        -0.4799
     29 OBC        33.4860   19.9480   18.1630 O.co2     1 OSA        -0.4799
     30 SBD        41.0880   17.6510   14.6940 S.o2      1 OSA        -0.1638
     31 OBE        42.5320   17.9350   14.9630 O.co2     1 OSA        -0.4797
     32 OBF        40.1350   18.8120   14.8640 O.co2     1 OSA        -0.4797
     33 OBG        40.7200   16.6120   15.7180 O.co2     1 OSA        -0.4797
     34 H          42.4148   15.6387    7.3043 H         1 OSA         0.0550
     35 H          40.2055   15.8627    8.4442 H         1 OSA         0.0643
     36 H          44.4369   16.7806   10.9705 H         1 OSA         0.0454
     37 H          45.5953   16.2634    9.0145 H         1 OSA         0.1738
     38 H          44.8039   15.8066    7.5024 H         1 OSA         0.1738
     39 H          43.1293   17.2384   12.9402 H         1 OSA         0.0498
     40 H          38.2340   15.6440   10.7014 H         1 OSA         0.2578
     41 H          35.5348   15.3978   11.5843 H         1 OSA         0.0614
     42 H          33.3169   15.2530   12.6653 H         1 OSA         0.0632
     43 H          37.0151   17.6971   14.8940 H         1 OSA         0.0647
     44 H          35.5801   18.2311   16.6844 H         1 OSA         0.0520
     45 H          31.4752   16.9228   16.7832 H         1 OSA         0.0526
     46 H          31.8457   15.3013   13.6124 H         1 OSA         0.2514
@<TRIPOS>BOND
     1    1    2 ar 
     2    1    6 ar 
     3    2    3 ar 
     4    3    4 ar 
     5    3   11 ar 
     6    4    5 ar 
     7    4    8 ar 
     8    5    6 ar 
     9    6    7 1  
    10    8    9 ar 
    11    9   10 ar 
    12    9   30 1  
    13   10   11 ar 
    14   10   13 1  
    15   11   12 1  
    16   13   14 2  
    17   14   15 1  
    18   15   16 ar 
    19   15   20 ar 
    20   16   17 ar 
    21   17   18 ar 
    22   18   19 ar 
    23   18   24 ar 
    24   19   20 ar 
    25   19   21 ar 
    26   21   22 ar 
    27   22   23 ar 
    28   22   26 1  
    29   23   24 ar 
    30   24   25 1  
    31   26   27 ar 
    32   26   28 ar 
    33   26   29 ar 
    34   30   31 ar 
    35   30   32 ar 
    36   30   33 ar 
    37    1   34 1  
    38    2   35 1  
    39    5   36 1  
    40    7   37 1  
    41    7   38 1  
    42    8   39 1  
    43   12   40 1  
    44   16   41 1  
    45   17   42 1  
    46   20   43 1  
    47   21   44 1  
    48   23   45 1  
    49   25   46 1  
@<TRIPOS>SUBSTRUCTURE
     1 OSA         1

