### 
### Created by X-TOOL on Mon Sep 10 21:13:05 2018
### 

@<TRIPOS>MOLECULE
3n2p_ligand
   35    36     1     0     0
SMALL
GAST_HUCK


@<TRIPOS>ATOM
      1 C1         -5.4610    2.3780   15.8890 C.ar      1 AYX         0.1588
      2 N1         -5.3270   -0.3280   16.1250 N.am      1 AYX        -0.2556
      3 O1         -7.3870    0.9760   16.7930 O.2       1 AYX        -0.1440
      4 S1         -5.9410    0.9640   16.8390 S.o2      1 AYX         0.0887
      5 C2         -4.1630    2.4900   15.4090 C.ar      1 AYX         0.0213
      6 O2         -5.3590    1.0960   18.1770 O.2       1 AYX        -0.1440
      7 C3         -3.8120    3.5980   14.6450 C.ar      1 AYX         0.0506
      8 C4         -4.7720    4.5670   14.4060 C.ar      1 AYX         0.2096
      9 C5         -6.0650    4.4680   14.8770 C.ar      1 AYX         0.0506
     10 C6         -6.4130    3.3530   15.6390 C.ar      1 AYX         0.0213
     11 N7         -4.3580    5.6910   13.5850 N.am      1 AYX        -0.1135
     12 C8         -5.2390    6.3380   12.6440 C.2       1 AYX         0.4626
     13 O8         -6.4510    6.1820   12.5680 O.2       1 AYX        -0.3498
     14 N9         -4.6130    7.4150   11.9430 N.am      1 AYX        -0.1165
     15 C10        -5.1860    8.3130   10.9980 C.ar      1 AYX         0.2083
     16 C11        -6.3740    7.9840   10.3530 C.ar      1 AYX         0.0767
     17 C12        -6.8900    8.8770    9.4080 C.ar      1 AYX         0.1350
     18 C13        -6.2520   10.0770    9.1560 C.ar      1 AYX         0.0179
     19 C14        -5.0540   10.3820    9.8010 C.ar      1 AYX        -0.0029
     20 C15        -4.5210    9.5020   10.7460 C.ar      1 AYX         0.0476
     21 N16        -8.1120    8.5820    8.7350 N.2       1 AYX        -0.2024
     22 O16        -8.6190    9.4650    7.9200 O.2       1 AYX        -0.4856
     23 O17        -8.6660    7.4290    8.8750 O.2       1 AYX        -0.4856
     24 H1         -5.4866   -1.2363   16.5117 H         1 AYX         0.1640
     25 H2         -4.7833   -0.2278   15.2917 H         1 AYX         0.1640
     26 H3         -3.4304    1.7215   15.6275 H         1 AYX         0.0806
     27 H4         -2.8095    3.7007   14.2456 H         1 AYX         0.0969
     28 H5         -6.7944    5.2399   14.6596 H         1 AYX         0.0969
     29 H6         -7.4181    3.2503   16.0317 H         1 AYX         0.0806
     30 H7         -3.4220    6.0310   13.6760 H         1 AYX         0.3445
     31 H8         -3.6435    7.5567   12.1428 H         1 AYX         0.3372
     32 H9         -6.8882    7.0565   10.5777 H         1 AYX         0.1015
     33 H10        -6.6839   10.7825    8.4554 H         1 AYX         0.1084
     34 H11        -4.5347   11.3047    9.5685 H         1 AYX         0.0787
     35 H12        -3.6048    9.7448   11.2720 H         1 AYX         0.0976
@<TRIPOS>BOND
     1    1    4 1  
     2    1    5 ar 
     3    1   10 ar 
     4    4    2 am 
     5    4    3 2  
     6    4    6 2  
     7    5    7 ar 
     8    7    8 ar 
     9    8    9 ar 
    10    8   11 1  
    11    9   10 ar 
    12   11   12 am 
    13   12   13 2  
    14   12   14 am 
    15   14   15 1  
    16   15   16 ar 
    17   15   20 ar 
    18   16   17 ar 
    19   17   18 ar 
    20   17   21 1  
    21   18   19 ar 
    22   19   20 ar 
    23   21   22 2  
    24   21   23 2  
    25    2   24 1  
    26    2   25 1  
    27    5   26 1  
    28    7   27 1  
    29    9   28 1  
    30   10   29 1  
    31   11   30 1  
    32   14   31 1  
    33   16   32 1  
    34   18   33 1  
    35   19   34 1  
    36   20   35 1  
@<TRIPOS>SUBSTRUCTURE
     1 AYX         1

