### 
### Created by X-TOOL on Mon Sep 10 21:13:02 2018
### 

@<TRIPOS>MOLECULE
3n2u_ligand
   57    58     1     0     0
SMALL
GAST_HUCK


@<TRIPOS>ATOM
      1 C1          2.5610   -2.6240    0.1610 C.3       1 D3X         0.1880
      2 N1          1.5680   -2.0230    5.5050 N.am      1 D3X        -0.1629
      3 O1          3.2150   -2.6630    4.1170 O.2       1 D3X        -0.3952
      4 S1          1.4800   -5.9750    4.8860 S.o2      1 D3X         0.0677
      5 C2          2.1250   -1.1970    0.4310 C.3       1 D3X         0.1341
      6 N2          1.7050   -4.9750    3.7320 N.am      1 D3X        -0.2143
      7 O2          0.2280   -5.6700    5.5190 O.2       1 D3X        -0.1514
      8 C3          2.0390   -2.7320    4.4790 C.2       1 D3X         0.2177
      9 O3          1.4350   -7.3320    4.4160 O.2       1 D3X        -0.1514
     10 C4          5.3840   -2.1200   -2.2030 C.3       1 D3X         0.0730
     11 O4          0.8080   -1.2680    0.9560 O.3       1 D3X        -0.3841
     12 C5          3.9620   -1.9360   -1.6630 C.3       1 D3X         0.1130
     13 O5          1.8520    1.0020   -0.4860 O.3       1 D3X        -0.3864
     14 C6          3.5150   -0.4750   -1.5560 C.3       1 D3X         0.1119
     15 O6          3.3970    0.0100   -2.8780 O.3       1 D3X        -0.3865
     16 C7          2.1610   -0.3530   -0.8360 C.3       1 D3X         0.1141
     17 O7          5.4190   -5.6800    9.1320 O.3       1 D3X        -0.3212
     18 C8          2.1350   -4.6670    1.3530 C.3       1 D3X         0.0679
     19 O8          3.8780   -2.6070   -0.3950 O.3       1 D3X        -0.3405
     20 C9          2.5920   -5.3590    2.6350 C.3       1 D3X         0.0555
     21 O9          6.3250   -1.2940   -1.5030 O.3       1 D3X        -0.3924
     22 C10         1.0680   -3.6540    3.7830 C.3       1 D3X         0.1203
     23 O10         2.5930   -3.3190    1.4060 O.3       1 D3X        -0.3471
     24 C11         3.3640   -5.0060    8.1510 C.ar      1 D3X        -0.0313
     25 O11         2.4990   -1.2500    6.1770 O.3       1 D3X        -0.2717
     26 C12         2.6220   -5.8950    6.0180 C.ar      1 D3X         0.0973
     27 C13         3.7940   -6.6820    5.9530 C.ar      1 D3X        -0.0440
     28 C14         2.4190   -5.0590    7.1260 C.ar      1 D3X        -0.0440
     29 C15         4.7530   -6.6100    6.9770 C.ar      1 D3X        -0.0313
     30 C16         4.5320   -5.7710    8.0820 C.ar      1 D3X         0.0908
     31 C17         6.4510   -6.6470    9.3830 C.3       1 D3X         0.0594
     32 H1          1.8619   -3.1136   -0.5329 H         1 D3X         0.0937
     33 H2          0.6046   -2.0480    5.7718 H         1 D3X         0.2217
     34 H3          2.7954   -0.7427    1.1754 H         1 D3X         0.0671
     35 H4          5.3983   -1.8523   -3.2698 H         1 D3X         0.0584
     36 H5          5.6771   -3.1737   -2.0854 H         1 D3X         0.0584
     37 H6          0.8148   -1.7780    1.7574 H         1 D3X         0.2101
     38 H7          3.2726   -2.4329   -2.3614 H         1 D3X         0.0647
     39 H8          0.9866    1.0376   -0.0957 H         1 D3X         0.2100
     40 H9          4.2701    0.1057   -1.0059 H         1 D3X         0.0647
     41 H10         3.1201    0.9185   -2.8573 H         1 D3X         0.2100
     42 H11         1.3828   -0.7194   -1.5216 H         1 D3X         0.0648
     43 H12         1.0373   -4.6880    1.2859 H         1 D3X         0.0577
     44 H13         2.5657   -5.1756    0.4779 H         1 D3X         0.0577
     45 H14         2.5556   -6.4497    2.4972 H         1 D3X         0.0502
     46 H15         3.6221   -5.0534    2.8707 H         1 D3X         0.0502
     47 H16         6.3215   -1.5233   -0.5811 H         1 D3X         0.2095
     48 H17         0.1258   -3.7088    4.3479 H         1 D3X         0.0719
     49 H18         0.8644   -3.2915    2.7646 H         1 D3X         0.0719
     50 H19         3.1910   -4.3659    9.0086 H         1 D3X         0.0542
     51 H20         2.0705   -0.7855    6.8863 H         1 D3X         0.2490
     52 H21         3.9536   -7.3439    5.1095 H         1 D3X         0.0608
     53 H22         1.5235   -4.4512    7.1861 H         1 D3X         0.0608
     54 H23         5.6604   -7.1998    6.9148 H         1 D3X         0.0542
     55 H24         7.0224   -6.3503   10.2749 H         1 D3X         0.0577
     56 H25         7.1254   -6.6972    8.5154 H         1 D3X         0.0577
     57 H26         5.9956   -7.6341    9.5510 H         1 D3X         0.0577
@<TRIPOS>BOND
     1    1    5 1  
     2    1   19 1  
     3   23    1 1  
     4    8    2 am 
     5    2   25 1  
     6    8    3 2  
     7    4    6 am 
     8    4    7 2  
     9    4    9 2  
    10   26    4 1  
    11    5   11 1  
    12    5   16 1  
    13    6   20 1  
    14    6   22 1  
    15   22    8 1  
    16   12   10 1  
    17   10   21 1  
    18   12   14 1  
    19   19   12 1  
    20   16   13 1  
    21   14   15 1  
    22   16   14 1  
    23   30   17 1  
    24   17   31 1  
    25   20   18 1  
    26   18   23 1  
    27   28   24 ar 
    28   24   30 ar 
    29   26   27 ar 
    30   26   28 ar 
    31   27   29 ar 
    32   29   30 ar 
    33    1   32 1  
    34    2   33 1  
    35    5   34 1  
    36   10   35 1  
    37   10   36 1  
    38   11   37 1  
    39   12   38 1  
    40   13   39 1  
    41   14   40 1  
    42   15   41 1  
    43   16   42 1  
    44   18   43 1  
    45   18   44 1  
    46   20   45 1  
    47   20   46 1  
    48   21   47 1  
    49   22   48 1  
    50   22   49 1  
    51   24   50 1  
    52   25   51 1  
    53   27   52 1  
    54   28   53 1  
    55   29   54 1  
    56   31   55 1  
    57   31   56 1  
    58   31   57 1  
@<TRIPOS>SUBSTRUCTURE
     1 D3X         1

