### 
### Created by X-TOOL on Mon Sep 10 21:13:02 2018
### 

@<TRIPOS>MOLECULE
3n2v_ligand
   42    43     1     0     0
SMALL
GAST_HUCK


@<TRIPOS>ATOM
      1 C3          1.7480   -1.9720    4.1270 C.2       1 JT5         0.2177
      2 C4          0.5840   -2.6100    3.3570 C.3       1 JT5         0.1204
      3 C8          2.0910   -4.2340    2.2050 C.3       1 JT5         0.0553
      4 N2          1.3560   -1.3850    5.2190 N.am      1 JT5        -0.1629
      5 O1          2.3080   -0.8300    5.9880 O.3       1 JT5        -0.2717
      6 O5          2.9480   -1.9900    3.8440 O.2       1 JT5        -0.3952
      7 N6          1.0200   -3.9710    3.2200 N.am      1 JT5        -0.2132
      8 S7          0.7400   -5.1240    4.2050 S.o2      1 JT5         0.0726
      9 C9          1.6090   -4.3010    0.7770 C.3       1 JT5         0.0614
     10 O10         0.8810   -3.1050    0.4510 O.3       1 JT5        -0.3934
     11 O11         0.5690   -6.3930    3.4610 O.2       1 JT5        -0.1500
     12 C12         2.0000   -5.3150    5.2240 C.ar      1 JT5         0.1085
     13 O13        -0.4210   -4.9260    5.0770 O.2       1 JT5        -0.1500
     14 C14         3.1090   -6.0710    4.8390 C.ar      1 JT5        -0.0345
     15 C15         4.1950   -6.3050    5.6550 C.ar      1 JT5        -0.0522
     16 C16         4.1370   -5.7880    6.9720 C.ar      1 JT5        -0.0178
     17 C17         3.0540   -4.9820    7.3670 C.ar      1 JT5        -0.0522
     18 C18         1.9840   -4.7290    6.5030 C.ar      1 JT5        -0.0345
     19 C19         5.2690   -6.0910    7.8960 C.ar      1 JT5        -0.0179
     20 C20         4.9760   -6.4030    9.2640 C.ar      1 JT5        -0.0540
     21 C21         6.0220   -6.6960   10.1740 C.ar      1 JT5        -0.0612
     22 C22         7.3620   -6.7730    9.7210 C.ar      1 JT5        -0.0617
     23 C23         7.6260   -6.5490    8.3480 C.ar      1 JT5        -0.0612
     24 C24         6.5860   -6.2270    7.4530 C.ar      1 JT5        -0.0540
     25 H1          0.4474   -2.1343    2.3746 H         1 JT5         0.0719
     26 H2         -0.3539   -2.5474    3.9283 H         1 JT5         0.0719
     27 H3          2.5663   -5.1951    2.4508 H         1 JT5         0.0502
     28 H4          2.8356   -3.4276    2.2769 H         1 JT5         0.0502
     29 H5          0.3900   -1.3482    5.4749 H         1 JT5         0.2217
     30 H6          1.9055   -0.4341    6.7520 H         1 JT5         0.2490
     31 H7          0.9507   -5.1737    0.6545 H         1 JT5         0.0573
     32 H8          2.4738   -4.3967    0.1040 H         1 JT5         0.0573
     33 H9          1.4495   -2.3511    0.5558 H         1 JT5         0.2095
     34 H10         3.1163   -6.4978    3.8426 H         1 JT5         0.0637
     35 H11         5.0566   -6.8610    5.3035 H         1 JT5         0.0624
     36 H12         3.0487   -4.5485    8.3605 H         1 JT5         0.0624
     37 H13         1.1604   -4.0954    6.8118 H         1 JT5         0.0637
     38 H14         3.9470   -6.4149    9.6048 H         1 JT5         0.0624
     39 H15         5.7958   -6.8619   11.2211 H         1 JT5         0.0618
     40 H16         8.1676   -6.9985   10.4103 H         1 JT5         0.0618
     41 H17         8.6427   -6.6263    7.9800 H         1 JT5         0.0618
     42 H18         6.8125   -6.0825    6.4028 H         1 JT5         0.0624
@<TRIPOS>BOND
     1    1    2 1  
     2    1    4 am 
     3    1    6 2  
     4    2    7 1  
     5    7    3 1  
     6    3    9 1  
     7    4    5 1  
     8    7    8 am 
     9    8   11 2  
    10    8   12 1  
    11    8   13 2  
    12    9   10 1  
    13   12   14 ar 
    14   12   18 ar 
    15   14   15 ar 
    16   15   16 ar 
    17   16   17 ar 
    18   16   19 1  
    19   17   18 ar 
    20   19   20 ar 
    21   19   24 ar 
    22   20   21 ar 
    23   21   22 ar 
    24   22   23 ar 
    25   23   24 ar 
    26    2   25 1  
    27    2   26 1  
    28    3   27 1  
    29    3   28 1  
    30    4   29 1  
    31    5   30 1  
    32    9   31 1  
    33    9   32 1  
    34   10   33 1  
    35   14   34 1  
    36   15   35 1  
    37   17   36 1  
    38   18   37 1  
    39   20   38 1  
    40   21   39 1  
    41   22   40 1  
    42   23   41 1  
    43   24   42 1  
@<TRIPOS>SUBSTRUCTURE
     1 JT5         1

