### 
### Created by X-TOOL on Mon Sep 10 21:13:06 2018
### 

@<TRIPOS>MOLECULE
3n35_ligand
   30    30     1     0     0
SMALL
GAST_HUCK


@<TRIPOS>ATOM
      1 O         -38.1420  -30.9680   -4.4990 O.3       1 A2G        -0.3410
      2 C1        -39.5710  -31.0370   -4.4820 C.3       1 A2G         0.1823
      3 O1        -40.0240  -31.3780   -5.8100 O.3       1 A2G        -0.3651
      4 C2        -40.1010  -29.6570   -4.0580 C.3       1 A2G         0.1208
      5 N2        -41.5460  -29.6860   -4.2150 N.am      1 A2G        -0.2766
      6 C3        -39.5820  -28.5810   -5.0160 C.3       1 A2G         0.1110
      7 O3        -39.9420  -27.2920   -4.5340 O.3       1 A2G        -0.3867
      8 C4        -38.0600  -28.6610   -5.1530 C.3       1 A2G         0.1116
      9 O4        -37.4800  -28.3160   -3.8900 O.3       1 A2G        -0.3865
     10 C5        -37.6370  -30.0810   -5.5030 C.3       1 A2G         0.1130
     11 C6        -36.1230  -30.2210   -5.5580 C.3       1 A2G         0.0730
     12 O6        -35.8420  -31.0310   -6.6930 O.3       1 A2G        -0.3924
     13 C7        -42.3660  -29.1980   -3.2660 C.2       1 A2G         0.1733
     14 O7        -41.9580  -28.7050   -2.2260 O.2       1 A2G        -0.3974
     15 C8        -43.8370  -29.2930   -3.5500 C.3       1 A2G         0.0257
     16 H1        -39.9087  -31.8018   -3.7672 H         1 A2G         0.0932
     17 H2        -39.6596  -32.2185   -6.0616 H         1 A2G         0.2126
     18 H3        -39.8132  -29.4306   -3.0208 H         1 A2G         0.0633
     19 H4        -41.9395  -30.0774   -5.0469 H         1 A2G         0.1857
     20 H5        -40.0379  -28.7366   -6.0049 H         1 A2G         0.0645
     21 H6        -39.6173  -26.6293   -5.1324 H         1 A2G         0.2100
     22 H7        -37.7169  -27.9656   -5.9332 H         1 A2G         0.0647
     23 H8        -37.7416  -27.4341   -3.6530 H         1 A2G         0.2100
     24 H9        -38.0587  -30.3507   -6.4825 H         1 A2G         0.0647
     25 H10       -35.7509  -30.7044   -4.6427 H         1 A2G         0.0584
     26 H11       -35.6521  -29.2330   -5.6683 H         1 A2G         0.0584
     27 H12       -34.9026  -31.1490   -6.7717 H         1 A2G         0.2095
     28 H13       -44.4013  -28.8650   -2.7083 H         1 A2G         0.0467
     29 H14       -44.1178  -30.3485   -3.6807 H         1 A2G         0.0467
     30 H15       -44.0698  -28.7351   -4.4689 H         1 A2G         0.0467
@<TRIPOS>BOND
     1    1    2 1  
     2    1   10 1  
     3    2    3 1  
     4    2    4 1  
     5    4    5 1  
     6    4    6 1  
     7    5   13 am 
     8    6    7 1  
     9    6    8 1  
    10    8    9 1  
    11    8   10 1  
    12   10   11 1  
    13   11   12 1  
    14   13   14 2  
    15   13   15 1  
    16    2   16 1  
    17    3   17 1  
    18    4   18 1  
    19    5   19 1  
    20    6   20 1  
    21    7   21 1  
    22    8   22 1  
    23    9   23 1  
    24   10   24 1  
    25   11   25 1  
    26   11   26 1  
    27   12   27 1  
    28   15   28 1  
    29   15   29 1  
    30   15   30 1  
@<TRIPOS>SUBSTRUCTURE
     1 A2G         1

