### 
### Created by X-TOOL on Mon Sep 10 21:13:04 2018
### 

@<TRIPOS>MOLECULE
3n3g_ligand
   54    56     1     0     0
SMALL
GAST_HUCK


@<TRIPOS>ATOM
      1 N1         13.8640   -7.1990   19.2400 N.ar      1 93N        -0.2590
      2 C2         12.5930   -7.2640   18.7550 C.ar      1 93N         0.0645
      3 C3         11.6090   -6.3900   19.2190 C.ar      1 93N        -0.0203
      4 C4         11.9430   -5.4270   20.1680 C.ar      1 93N        -0.0328
      5 C5         13.2450   -5.3480   20.6530 C.ar      1 93N        -0.0009
      6 C6         14.1710   -6.2530   20.1620 C.ar      1 93N         0.1663
      7 C7         12.3700   -8.3430   17.7690 C.ar      1 93N         0.0213
      8 C8         11.0940   -8.8740   17.5040 C.ar      1 93N        -0.0272
      9 C9         10.8970   -9.9270   16.5680 C.ar      1 93N         0.0799
     10 C10        12.0200  -10.4760   15.9010 C.ar      1 93N         0.1348
     11 C11        13.2860   -9.9520   16.1630 C.ar      1 93N         0.0038
     12 C12        13.4550   -8.9170   17.0830 C.ar      1 93N        -0.0297
     13 O13        11.8140  -11.4920   14.9990 O.3       1 93N        -0.2895
     14 C14        12.5470  -12.7070   15.1630 C.3       1 93N         0.0860
     15 C15        12.6280  -13.5050   13.8570 C.3       1 93N         0.0172
     16 C16        11.3880  -14.3550   13.6390 C.3       1 93N        -0.0288
     17 N17        10.1150  -13.5530   13.5180 N.4       1 93N         0.2428
     18 C18        15.5390   -6.2530   20.5720 C.1       1 93N         0.1223
     19 N19        16.6710   -6.3080   20.8050 N.1       1 93N        -0.3195
     20 C20         9.4860  -10.4410   16.3460 C.3       1 93N         0.3686
     21 F21         9.0570  -10.5110   15.0610 F         1 93N        -0.2309
     22 F22         8.5270   -9.7050   16.9540 F         1 93N        -0.2309
     23 F23         9.2970  -11.6840   16.8350 F         1 93N        -0.2309
     24 C24         7.6240  -13.5260   13.3980 C.3       1 93N         0.0092
     25 N25         7.7210  -12.6770   12.1360 N.4       1 93N         0.2405
     26 C26         8.8790  -11.7250   12.3510 C.3       1 93N         0.0092
     27 C27        10.1760  -12.5410   12.3890 C.3       1 93N         0.0094
     28 C28         8.8730  -14.4160   13.4870 C.3       1 93N         0.0094
     29 C29         6.4260  -11.9730   11.7730 C.3       1 93N        -0.0427
     30 H1         10.5942   -6.4600   18.8443 H         1 93N         0.0771
     31 H2         11.1880   -4.7382   20.5293 H         1 93N         0.0752
     32 H3         13.5247   -4.6037   21.3898 H         1 93N         0.0797
     33 H4         10.2362   -8.4688   18.0284 H         1 93N         0.0829
     34 H5         14.1493  -10.3541   15.6452 H         1 93N         0.0636
     35 H6         14.4543   -8.5435   17.2751 H         1 93N         0.0848
     36 H7         12.0487  -13.3230   15.9260 H         1 93N         0.0639
     37 H8         13.5671  -12.4650   15.4959 H         1 93N         0.0639
     38 H9         13.5087  -14.1629   13.8955 H         1 93N         0.0345
     39 H10        12.7311  -12.8031   13.0164 H         1 93N         0.0345
     40 H11        11.2849  -15.0433   14.4908 H         1 93N         0.0815
     41 H12        11.5225  -14.9342   12.7136 H         1 93N         0.0815
     42 H13        10.0487  -13.0127   14.3663 H         1 93N         0.2038
     43 H14         6.7230  -14.1554   13.3529 H         1 93N         0.0868
     44 H15         7.5710  -12.8724   14.2812 H         1 93N         0.0868
     45 H16         7.9497  -13.2843   11.3647 H         1 93N         0.2035
     46 H17         8.7485  -11.1905   13.3035 H         1 93N         0.0868
     47 H18         8.9211  -10.9989   11.5258 H         1 93N         0.0868
     48 H19        10.3033  -13.0687   11.4323 H         1 93N         0.0868
     49 H20        11.0281  -11.8645   12.5509 H         1 93N         0.0868
     50 H21         8.8257  -15.0212   14.4043 H         1 93N         0.0868
     51 H22         8.9114  -15.0802   12.6110 H         1 93N         0.0868
     52 H23         5.6302  -12.7192   11.6316 H         1 93N         0.0778
     53 H24         6.5660  -11.4052   10.8413 H         1 93N         0.0778
     54 H25         6.1434  -11.2846   12.5830 H         1 93N         0.0778
@<TRIPOS>BOND
     1    2    1 ar 
     2    1    6 ar 
     3    2    3 ar 
     4    7    2 1  
     5    3    4 ar 
     6    4    5 ar 
     7    6    5 ar 
     8    6   18 1  
     9    8    7 ar 
    10   12    7 ar 
    11    9    8 ar 
    12   10    9 ar 
    13    9   20 1  
    14   10   11 ar 
    15   13   10 1  
    16   11   12 ar 
    17   14   13 1  
    18   15   14 1  
    19   16   15 1  
    20   17   16 1  
    21   17   27 1  
    22   28   17 1  
    23   18   19 3  
    24   20   21 1  
    25   20   22 1  
    26   20   23 1  
    27   24   25 1  
    28   24   28 1  
    29   25   26 1  
    30   25   29 1  
    31   26   27 1  
    32    3   30 1  
    33    4   31 1  
    34    5   32 1  
    35    8   33 1  
    36   11   34 1  
    37   12   35 1  
    38   14   36 1  
    39   14   37 1  
    40   15   38 1  
    41   15   39 1  
    42   16   40 1  
    43   16   41 1  
    44   17   42 1  
    45   24   43 1  
    46   24   44 1  
    47   25   45 1  
    48   26   46 1  
    49   26   47 1  
    50   27   48 1  
    51   27   49 1  
    52   28   50 1  
    53   28   51 1  
    54   29   52 1  
    55   29   53 1  
    56   29   54 1  
@<TRIPOS>SUBSTRUCTURE
     1 93N         1

