### 
### Created by X-TOOL on Mon Sep 10 21:13:05 2018
### 

@<TRIPOS>MOLECULE
3n3j_ligand
   42    43     1     0     0
SMALL
GAST_HUCK


@<TRIPOS>ATOM
      1 C1         -5.0880    2.1690   15.6700 C.ar      1 WWV         0.0923
      2 N1         -5.4980   -0.4460   16.0270 N.am      1 WWV        -0.2626
      3 O1         -7.3660    1.2150   16.5180 O.2       1 WWV        -0.1524
      4 S1         -5.8960    0.9650   16.6410 S.o2      1 WWV         0.0590
      5 C2         -5.7990    3.2670   15.1410 C.ar      1 WWV        -0.0491
      6 O2         -5.4030    1.0890   18.0710 O.2       1 WWV        -0.1524
      7 C3         -5.1360    4.2520   14.3890 C.ar      1 WWV        -0.0397
      8 C4         -3.7490    4.1260   14.2030 C.ar      1 WWV         0.0672
      9 C5         -3.0540    3.0380   14.7230 C.ar      1 WWV        -0.0397
     10 C6         -3.7050    2.0600   15.4760 C.ar      1 WWV        -0.0491
     11 N7         -2.9170    5.0450   13.4940 N.am      1 WWV        -0.2146
     12 C8         -3.2770    6.2130   12.9800 C.2       1 WWV         0.3153
     13 O8         -4.4530    6.5730   12.9330 O.2       1 WWV        -0.3809
     14 N9         -2.2520    6.9240   12.4670 N.am      1 WWV        -0.2173
     15 C10        -2.4220    8.2090   11.9720 C.ar      1 WWV         0.0700
     16 C11        -1.8080    9.2710   12.6480 C.ar      1 WWV        -0.0188
     17 C12        -1.9760   10.5720   12.1720 C.ar      1 WWV        -0.0734
     18 C13        -2.7370   10.7960   11.0150 C.ar      1 WWV        -0.0841
     19 C14        -3.3530    9.7290   10.3500 C.ar      1 WWV        -0.0826
     20 C15        -3.2000    8.4250   10.8280 C.ar      1 WWV        -0.0477
     21 C16        -0.9670    9.0060   13.9320 C.3       1 WWV        -0.0170
     22 C17         0.0480   10.1280   14.2090 C.3       1 WWV        -0.0549
     23 C18        -1.8220    8.7470   15.1880 C.3       1 WWV        -0.0549
     24 H1         -5.8543   -1.2869   16.4342 H         1 WWV         0.1633
     25 H2         -4.8913   -0.4928   15.2335 H         1 WWV         0.1633
     26 H3         -6.8654    3.3515   15.3161 H         1 WWV         0.0596
     27 H4         -5.6805    5.0872   13.9636 H         1 WWV         0.0501
     28 H5         -1.9893    2.9489   14.5400 H         1 WWV         0.0501
     29 H6         -3.1510    1.2317   15.9027 H         1 WWV         0.0596
     30 H7         -1.9607    4.7792   13.3722 H         1 WWV         0.2262
     31 H8         -1.3411    6.5121   12.4427 H         1 WWV         0.2240
     32 H9         -1.5205   11.4058   12.6939 H         1 WWV         0.0513
     33 H10        -2.8491   11.8041   10.6325 H         1 WWV         0.0469
     34 H11        -3.9490    9.9146    9.4638 H         1 WWV         0.0520
     35 H12        -3.6762    7.5935   10.3211 H         1 WWV         0.0479
     36 H13        -0.3914    8.0879   13.7427 H         1 WWV         0.0427
     37 H14         0.6138    9.8932   15.1227 H         1 WWV         0.0251
     38 H15        -0.4857   11.0805   14.3428 H         1 WWV         0.0251
     39 H16         0.7419   10.2127   13.3597 H         1 WWV         0.0251
     40 H17        -2.5443    7.9438   14.9806 H         1 WWV         0.0251
     41 H18        -2.3630    9.6656   15.4591 H         1 WWV         0.0251
     42 H19        -1.1689    8.4467   16.0206 H         1 WWV         0.0251
@<TRIPOS>BOND
     1    1    4 1  
     2    1    5 ar 
     3    1   10 ar 
     4    4    2 am 
     5    4    3 2  
     6    4    6 2  
     7    5    7 ar 
     8    7    8 ar 
     9    8    9 ar 
    10    8   11 1  
    11    9   10 ar 
    12   11   12 am 
    13   12   13 2  
    14   12   14 am 
    15   14   15 1  
    16   15   16 ar 
    17   15   20 ar 
    18   16   17 ar 
    19   16   21 1  
    20   17   18 ar 
    21   18   19 ar 
    22   19   20 ar 
    23   21   22 1  
    24   21   23 1  
    25    2   24 1  
    26    2   25 1  
    27    5   26 1  
    28    7   27 1  
    29    9   28 1  
    30   10   29 1  
    31   11   30 1  
    32   14   31 1  
    33   17   32 1  
    34   18   33 1  
    35   19   34 1  
    36   20   35 1  
    37   21   36 1  
    38   22   37 1  
    39   22   38 1  
    40   22   39 1  
    41   23   40 1  
    42   23   41 1  
    43   23   42 1  
@<TRIPOS>SUBSTRUCTURE
     1 WWV         1

