### 
### Created by X-TOOL on Mon Sep 10 21:13:04 2018
### 

@<TRIPOS>MOLECULE
3n3l_ligand
   24    25     1     0     0
SMALL
GAST_HUCK


@<TRIPOS>ATOM
      1 O1          2.1000   74.9450   27.2660 O.3       1 MS0        -0.2746
      2 C2          2.5930   76.2700   27.2440 C.ar      1 MS0         0.1112
      3 C3          3.9440   76.4060   27.1270 C.ar      1 MS0        -0.0121
      4 C4          4.3980   74.9920   27.0330 C.2       1 MS0        -0.0236
      5 C5          3.2800   74.2470   27.1070 C.2       1 MS0         0.0738
      6 C7          5.8100   74.5190   26.8740 C.3       1 MS0         0.0188
      7 C10         6.2940   74.9010   25.4900 C.2       1 MS0         0.0408
      8 O11         7.2410   75.6630   25.3390 O.co2     1 MS0        -0.5673
      9 O12         5.6260   74.3540   24.4240 O.co2     1 MS0        -0.5673
     10 C14         4.5900   77.6450   27.1140 C.ar      1 MS0        -0.0751
     11 C16         3.7780   78.8000   27.2320 C.ar      1 MS0        -0.0448
     12 C18         2.3670   78.6760   27.3300 C.ar      1 MS0         0.0801
     13 C19         1.7840   77.3950   27.3440 C.ar      1 MS0        -0.0046
     14 O21         1.5230   79.8020   27.3870 O.3       1 MS0        -0.3265
     15 C22         2.1180   81.0930   27.4170 C.3       1 MS0         0.0582
     16 H           3.3047   73.1590   27.0452 H         1 MS0         0.0879
     17 H           5.8554   73.4370   26.9978 H         1 MS0         0.0521
     18 H           6.4441   74.9819   27.6301 H         1 MS0         0.0521
     19 H           5.6731   77.7197   27.0171 H         1 MS0         0.0539
     20 H           4.2384   79.7879   27.2476 H         1 MS0         0.0476
     21 H           0.7031   77.2861   27.4329 H         1 MS0         0.0466
     22 H           2.7564   81.1771   28.2965 H         1 MS0         0.0576
     23 H           2.7161   81.2370   26.5172 H         1 MS0         0.0576
     24 H           1.3360   81.8511   27.4602 H         1 MS0         0.0576
@<TRIPOS>BOND
     1    1    2 1  
     2    1    5 1  
     3    2    3 ar 
     4    2   13 ar 
     5    3    4 1  
     6    3   10 ar 
     7    4    5 2  
     8    4    6 1  
     9    6    7 1  
    10    7    8 ar 
    11    7    9 ar 
    12   10   11 ar 
    13   11   12 ar 
    14   12   13 ar 
    15   12   14 1  
    16   14   15 1  
    17    5   16 1  
    18    6   17 1  
    19    6   18 1  
    20   10   19 1  
    21   11   20 1  
    22   13   21 1  
    23   15   22 1  
    24   15   23 1  
    25   15   24 1  
@<TRIPOS>SUBSTRUCTURE
     1 MS0         1

