### 
### Created by X-TOOL on Mon Sep 10 21:13:03 2018
### 

@<TRIPOS>MOLECULE
3n45_ligand
   36    38     1     0     0
SMALL
GAST_HUCK


@<TRIPOS>ATOM
      1 N1          4.5460   73.2960   23.5110 N.am      1 3N3        -0.1803
      2 C2          5.7470   73.0190   22.6980 C.3       1 3N3         0.1263
      3 C4          6.5980   72.0370   23.6420 C.3       1 3N3         0.0171
      4 C7          5.6340   71.7010   24.7870 C.ar      1 3N3        -0.0165
      5 C8          4.5120   72.4600   24.6380 C.ar      1 3N3         0.0761
      6 C9          3.4400   72.3840   25.5500 C.ar      1 3N3        -0.0473
      7 C11         3.5730   71.4690   26.6160 C.ar      1 3N3        -0.0826
      8 C13         4.7360   70.6770   26.7560 C.ar      1 3N3        -0.0840
      9 C15         5.7990   70.7930   25.8400 C.ar      1 3N3        -0.0733
     10 C17         5.3130   72.1280   21.5630 C.2       1 3N3         0.0674
     11 O18         5.7320   72.2870   20.4320 O.co2     1 3N3        -0.5661
     12 O19         4.4450   71.1590   21.8670 O.co2     1 3N3        -0.5661
     13 C21         3.6260   74.2520   23.1560 C.2       1 3N3         0.3549
     14 O22         3.7160   74.9300   22.1320 O.2       1 3N3        -0.3674
     15 O23         2.6050   74.3980   24.0310 O.3       1 3N3        -0.2458
     16 C24         1.6670   75.4680   23.7040 C.3       1 3N3         0.1118
     17 C27         2.1990   76.8940   23.9590 C.ar      1 3N3        -0.0129
     18 C28         1.3220   77.9890   23.8110 C.ar      1 3N3        -0.0578
     19 C30         1.7660   79.2970   24.0520 C.ar      1 3N3        -0.0685
     20 C32         3.1000   79.5130   24.4360 C.ar      1 3N3        -0.0687
     21 C34         3.9820   78.4290   24.5740 C.ar      1 3N3        -0.0685
     22 C36         3.5350   77.1190   24.3370 C.ar      1 3N3        -0.0578
     23 H1          6.2839   73.9223   22.3728 H         1 3N3         0.0810
     24 H2          7.4976   72.5425   24.0231 H         1 3N3         0.0442
     25 H3          6.8914   71.1274   23.0975 H         1 3N3         0.0442
     26 H4          2.5548   72.9996   25.4378 H         1 3N3         0.0479
     27 H5          2.7711   71.3718   27.3389 H         1 3N3         0.0520
     28 H6          4.8100   69.9732   27.5771 H         1 3N3         0.0469
     29 H7          6.7042   70.2059   25.9452 H         1 3N3         0.0513
     30 H8          0.7611   75.3268   24.3118 H         1 3N3         0.0777
     31 H9          1.4100   75.3841   22.6378 H         1 3N3         0.0777
     32 H10         0.2954   77.8176   23.5082 H         1 3N3         0.0557
     33 H11         1.0860   80.1341   23.9430 H         1 3N3         0.0599
     34 H12         3.4501   80.5210   24.6266 H         1 3N3         0.0559
     35 H13         5.0116   78.6041   24.8645 H         1 3N3         0.0599
     36 H14         4.2175   76.2838   24.4450 H         1 3N3         0.0557
@<TRIPOS>BOND
     1    1    2 1  
     2    1    5 1  
     3    1   13 am 
     4    2    3 1  
     5    2   10 1  
     6    3    4 1  
     7    4    5 ar 
     8    4    9 ar 
     9    5    6 ar 
    10    6    7 ar 
    11    7    8 ar 
    12    8    9 ar 
    13   10   11 ar 
    14   10   12 ar 
    15   13   14 2  
    16   13   15 1  
    17   15   16 1  
    18   16   17 1  
    19   17   18 ar 
    20   17   22 ar 
    21   18   19 ar 
    22   19   20 ar 
    23   20   21 ar 
    24   21   22 ar 
    25    2   23 1  
    26    3   24 1  
    27    3   25 1  
    28    6   26 1  
    29    7   27 1  
    30    8   28 1  
    31    9   29 1  
    32   16   30 1  
    33   16   31 1  
    34   18   32 1  
    35   19   33 1  
    36   20   34 1  
    37   21   35 1  
    38   22   36 1  
@<TRIPOS>SUBSTRUCTURE
     1 3N3         1

