### 
### Created by X-TOOL on Mon Sep 10 21:13:04 2018
### 

@<TRIPOS>MOLECULE
3n46_ligand
   36    38     1     0     0
SMALL
GAST_HUCK


@<TRIPOS>ATOM
      1 N1          3.0830   75.7430   25.5720 N.am      1 3N5        -0.1803
      2 C2          4.5170   75.9630   25.5700 C.3       1 3N5         0.1263
      3 C4          4.6720   77.5460   25.6140 C.3       1 3N5         0.0171
      4 C7          3.2440   78.0220   25.4930 C.ar      1 3N5        -0.0165
      5 C8          2.4090   76.9370   25.4880 C.ar      1 3N5         0.0761
      6 C9          1.0110   77.0570   25.4080 C.ar      1 3N5        -0.0473
      7 C11         0.4830   78.3590   25.3060 C.ar      1 3N5        -0.0826
      8 C13         1.3450   79.4820   25.2840 C.ar      1 3N5        -0.0840
      9 C15         2.7500   79.3250   25.3970 C.ar      1 3N5        -0.0733
     10 C17         5.0590   75.3700   24.2600 C.2       1 3N5         0.0674
     11 O18         4.3560   75.2270   23.2640 O.co2     1 3N5        -0.5661
     12 O19         6.3390   74.9980   24.2680 O.co2     1 3N5        -0.5661
     13 C21         2.5110   74.4910   25.6330 C.2       1 3N5         0.3549
     14 O22         1.3040   74.2760   25.5610 O.2       1 3N5        -0.3674
     15 O23         3.4470   73.4980   25.7870 O.3       1 3N5        -0.2458
     16 C24         2.8880   72.1790   25.9820 C.3       1 3N5         0.1118
     17 C27         4.0200   71.1640   25.8580 C.ar      1 3N5        -0.0129
     18 C28         5.1750   71.2790   26.6530 C.ar      1 3N5        -0.0578
     19 C30         6.2260   70.3560   26.5160 C.ar      1 3N5        -0.0685
     20 C32         6.1120   69.2980   25.5850 C.ar      1 3N5        -0.0687
     21 C34         4.9430   69.1650   24.7940 C.ar      1 3N5        -0.0685
     22 C36         3.9000   70.1090   24.9310 C.ar      1 3N5        -0.0578
     23 H1          5.0074   75.4948   26.4362 H         1 3N5         0.0810
     24 H2          5.2835   77.9083   24.7745 H         1 3N5         0.0442
     25 H3          5.1207   77.8746   26.5631 H         1 3N5         0.0442
     26 H4          0.3668   76.1853   25.4241 H         1 3N5         0.0479
     27 H5         -0.5897   78.5020   25.2440 H         1 3N5         0.0520
     28 H6          0.9251   80.4759   25.1793 H         1 3N5         0.0469
     29 H7          3.4139   80.1819   25.4084 H         1 3N5         0.0513
     30 H8          2.1234   71.9807   25.2165 H         1 3N5         0.0777
     31 H9          2.4330   72.1104   26.9811 H         1 3N5         0.0777
     32 H10         5.2547   72.0837   27.3750 H         1 3N5         0.0557
     33 H11         7.1198   70.4548   27.1213 H         1 3N5         0.0599
     34 H12         6.9217   68.5857   25.4756 H         1 3N5         0.0559
     35 H13         4.8499   68.3461   24.0899 H         1 3N5         0.0599
     36 H14         3.0071   70.0216   24.3227 H         1 3N5         0.0557
@<TRIPOS>BOND
     1    1    2 1  
     2    1    5 1  
     3    1   13 am 
     4    2    3 1  
     5    2   10 1  
     6    3    4 1  
     7    4    5 ar 
     8    4    9 ar 
     9    5    6 ar 
    10    6    7 ar 
    11    7    8 ar 
    12    8    9 ar 
    13   10   11 ar 
    14   10   12 ar 
    15   13   14 2  
    16   13   15 1  
    17   15   16 1  
    18   16   17 1  
    19   17   18 ar 
    20   17   22 ar 
    21   18   19 ar 
    22   19   20 ar 
    23   20   21 ar 
    24   21   22 ar 
    25    2   23 1  
    26    3   24 1  
    27    3   25 1  
    28    6   26 1  
    29    7   27 1  
    30    8   28 1  
    31    9   29 1  
    32   16   30 1  
    33   16   31 1  
    34   18   32 1  
    35   19   33 1  
    36   20   34 1  
    37   21   35 1  
    38   22   36 1  
@<TRIPOS>SUBSTRUCTURE
     1 3N5         1

