### 
### Created by X-TOOL on Mon Sep 10 21:13:04 2018
### 

@<TRIPOS>MOLECULE
3n49_ligand
   26    28     1     0     0
SMALL
GAST_HUCK


@<TRIPOS>ATOM
      1 S1          1.1280   73.4230   27.9610 S.3       1 3N4        -0.0500
      2 C2          1.6060   75.1050   28.1870 C.ar      1 3N4         0.0361
      3 C3          2.9480   75.3290   28.5010 C.ar      1 3N4        -0.0100
      4 C4          3.4580   76.6330   28.6340 C.ar      1 3N4        -0.0212
      5 C5          2.5740   77.7330   28.4760 C.ar      1 3N4        -0.0256
      6 C6          1.2030   77.4970   28.1860 C.ar      1 3N4        -0.0604
      7 C8          0.7090   76.1710   28.0490 C.ar      1 3N4        -0.0483
      8 C10         3.0270   79.0540   28.5890 C.ar      1 3N4        -0.0583
      9 C12         4.3980   79.2850   28.8130 C.ar      1 3N4        -0.0644
     10 C14         5.2940   78.1970   28.9660 C.ar      1 3N4        -0.0645
     11 C16         4.8280   76.8850   28.9170 C.ar      1 3N4        -0.0583
     12 C18         3.6330   73.9920   28.6390 C.2       1 3N4        -0.0309
     13 C19         2.8020   72.9540   28.4520 C.2       1 3N4        -0.0071
     14 C21         5.1240   73.8530   28.9360 C.3       1 3N4         0.0237
     15 C24         5.8750   73.7820   27.5080 C.2       1 3N4         0.0427
     16 O25         6.3300   72.7430   27.0830 O.co2     1 3N4        -0.5670
     17 O26         6.0310   74.8590   26.7330 O.co2     1 3N4        -0.5670
     18 H1          0.5272   78.3363   28.0681 H         1 3N4         0.0573
     19 H2         -0.3395   75.9893   27.8422 H         1 3N4         0.0592
     20 H3          2.3343   79.8836   28.5055 H         1 3N4         0.0609
     21 H4          4.7707   80.3014   28.8688 H         1 3N4         0.0598
     22 H5          6.3496   78.3874   29.1223 H         1 3N4         0.0602
     23 H6          5.5077   76.0593   29.0940 H         1 3N4         0.0603
     24 H7          3.1107   71.9182   28.5849 H         1 3N4         0.0641
     25 H8          5.3125   72.9337   29.5099 H         1 3N4         0.0544
     26 H9          5.4795   74.7222   29.5088 H         1 3N4         0.0544
@<TRIPOS>BOND
     1    1    2 1  
     2    1   13 1  
     3    2    3 ar 
     4    2    7 ar 
     5    3    4 ar 
     6    3   12 1  
     7    4    5 ar 
     8    4   11 ar 
     9    5    6 ar 
    10    5    8 ar 
    11    6    7 ar 
    12    8    9 ar 
    13    9   10 ar 
    14   10   11 ar 
    15   12   13 2  
    16   12   14 1  
    17   14   15 1  
    18   15   16 ar 
    19   15   17 ar 
    20    6   18 1  
    21    7   19 1  
    22    8   20 1  
    23    9   21 1  
    24   10   22 1  
    25   11   23 1  
    26   13   24 1  
    27   14   25 1  
    28   14   26 1  
@<TRIPOS>SUBSTRUCTURE
     1 3N4         1

