### 
### Created by X-TOOL on Mon Sep 10 21:13:05 2018
### 

@<TRIPOS>MOLECULE
3n4b_ligand
   33    34     1     0     0
SMALL
GAST_HUCK


@<TRIPOS>ATOM
      1 C1         -5.1510    2.2500   15.8270 C.ar      1 WWZ         0.0923
      2 N1         -5.3600   -0.4230   16.1920 N.am      1 WWZ        -0.2626
      3 O1         -7.2610    1.0780   16.6840 O.2       1 WWZ        -0.1524
      4 S1         -5.8180    0.9350   16.7960 S.o2      1 WWZ         0.0590
      5 C2         -3.7920    2.1880   15.5790 C.ar      1 WWZ        -0.0491
      6 O2         -5.3910    1.0360   18.1800 O.2       1 WWZ        -0.1524
      7 C3         -3.1870    3.2030   14.8810 C.ar      1 WWZ        -0.0397
      8 C4         -3.9280    4.2770   14.4250 C.ar      1 WWZ         0.0672
      9 C5         -5.3000    4.3410   14.6820 C.ar      1 WWZ        -0.0397
     10 C6         -5.9110    3.3260   15.3990 C.ar      1 WWZ        -0.0491
     11 N7         -3.2110    5.2940   13.7500 N.am      1 WWZ        -0.2144
     12 C8         -3.8310    6.1170   12.7710 C.2       1 WWZ         0.3160
     13 O8         -4.9110    5.8450   12.2720 O.2       1 WWZ        -0.3806
     14 N9         -3.1430    7.2740   12.3470 N.am      1 WWZ        -0.2165
     15 C10        -2.1080    7.8560   13.1250 C.ar      1 WWZ         0.0634
     16 C11        -1.0160    8.5130   12.3770 C.ar      1 WWZ        -0.0429
     17 C12        -0.0410    9.1710   13.0610 C.ar      1 WWZ        -0.0418
     18 C13        -0.0940    9.2330   14.5470 C.ar      1 WWZ         0.1157
     19 F13         0.8400    9.9120   15.2030 F         1 WWZ        -0.1964
     20 C14        -1.1080    8.6380   15.2340 C.ar      1 WWZ        -0.0418
     21 C15        -2.1760    7.9140   14.4870 C.ar      1 WWZ        -0.0429
     22 H1         -5.6471   -1.2815   16.6170 H         1 WWZ         0.1633
     23 H2         -4.7784   -0.4377   15.3786 H         1 WWZ         0.1633
     24 H3         -3.2096    1.3450   15.9329 H         1 WWZ         0.0596
     25 H4         -2.1214    3.1622   14.6861 H         1 WWZ         0.0501
     26 H5         -5.8831    5.1809   14.3219 H         1 WWZ         0.0501
     27 H6         -6.9707    3.3730   15.6225 H         1 WWZ         0.0596
     28 H7         -2.2454    5.4368   13.9671 H         1 WWZ         0.2262
     29 H8         -3.3914    7.6953   11.4748 H         1 WWZ         0.2249
     30 H9         -0.9919    8.4712   11.2941 H         1 WWZ         0.0493
     31 H10         0.7716    9.6484   12.5254 H         1 WWZ         0.0566
     32 H11        -1.1385    8.6904   16.3163 H         1 WWZ         0.0566
     33 H12        -2.9943    7.4407   15.0176 H         1 WWZ         0.0493
@<TRIPOS>BOND
     1    1    4 1  
     2    1    5 ar 
     3    1   10 ar 
     4    4    2 am 
     5    4    3 2  
     6    4    6 2  
     7    5    7 ar 
     8    7    8 ar 
     9    8    9 ar 
    10    8   11 1  
    11    9   10 ar 
    12   11   12 am 
    13   12   13 2  
    14   12   14 am 
    15   14   15 1  
    16   15   16 ar 
    17   15   21 ar 
    18   16   17 ar 
    19   17   18 ar 
    20   18   19 1  
    21   18   20 ar 
    22   20   21 ar 
    23    2   22 1  
    24    2   23 1  
    25    5   24 1  
    26    7   25 1  
    27    9   26 1  
    28   10   27 1  
    29   11   28 1  
    30   14   29 1  
    31   16   30 1  
    32   17   31 1  
    33   20   32 1  
    34   21   33 1  
@<TRIPOS>SUBSTRUCTURE
     1 WWZ         1

