### 
### Created by X-TOOL on Mon Sep 10 21:13:04 2018
### 

@<TRIPOS>MOLECULE
3n4l_ligand
   68    71     1     0     0
SMALL
GAST_HUCK


@<TRIPOS>ATOM
      1 C1         28.2980    6.8020   16.3230 C.3       1 842         0.0257
      2 C2         29.2890    6.7570   15.1970 C.2       1 842         0.1733
      3 N3         30.5420    6.3800   15.5190 N.am      1 842        -0.2795
      4 C4         31.6670    6.3250   14.5860 C.3       1 842         0.0821
      5 C5         32.1000    4.8810   14.2560 C.3       1 842         0.1193
      6 C6         30.9870    4.1100   13.5630 C.3       1 842        -0.0087
      7 N7         31.3770    2.7450   13.1820 N.4       1 842         0.1886
      8 C8         30.5730    1.9570   12.2010 C.3       1 842        -0.0168
      9 C9         31.2820    0.6480   11.9230 C.3       1 842        -0.0296
     10 C10        30.4490   -0.2380   11.0160 C.3       1 842        -0.0552
     11 C11        29.1320   -0.5700   11.7060 C.3       1 842        -0.0541
     12 C12        28.3510    0.6850   11.9900 C.3       1 842        -0.0552
     13 C13        29.1800    1.6570   12.8070 C.3       1 842        -0.0296
     14 C14        30.5810    2.8200   10.9300 C.ar      1 842        -0.0058
     15 C15        31.7800    2.9850   10.1960 C.ar      1 842         0.0023
     16 C16        31.9210    3.7930    9.0490 C.ar      1 842         0.1409
     17 C17        30.7870    4.5120    8.6790 C.ar      1 842         0.0042
     18 C18        29.5870    4.4010    9.3970 C.ar      1 842        -0.0347
     19 C19        29.4660    3.5650   10.5180 C.ar      1 842        -0.0400
     20 N20        33.0950    3.8990    8.4390 N.pl3     1 842        -0.1578
     21 N21        33.8650    2.8100    8.0370 N.2       1 842        -0.2056
     22 C22        34.9950    3.3720    7.5570 C.2       1 842        -0.0053
     23 C23        34.9150    4.7520    7.7070 C.2       1 842        -0.0469
     24 C24        33.7030    5.0770    8.2820 C.2       1 842         0.0651
     25 O25        28.9320    7.0360   14.0540 O.2       1 842        -0.3974
     26 C26        32.7710    7.2230   15.1610 C.3       1 842         0.0048
     27 C27        32.1160    8.5440   15.5500 C.ar      1 842        -0.0445
     28 C28        31.9620    8.8920   16.8940 C.ar      1 842        -0.0310
     29 C29        31.3380   10.0960   17.2270 C.ar      1 842         0.1242
     30 C30        30.8410   10.9630   16.2600 C.ar      1 842        -0.0019
     31 C31        30.9930   10.6040   14.9450 C.ar      1 842         0.1242
     32 C32        31.6130    9.4170   14.5690 C.ar      1 842        -0.0310
     33 F33        31.1880   10.4500   18.4980 F         1 842        -0.1863
     34 F34        30.5180   11.4300   14.0530 F         1 842        -0.1863
     35 O35        33.2340    4.8280   13.3820 O.3       1 842        -0.3840
     36 H          27.8948    7.8109   16.4103 H         1 842         0.0467
     37 H          27.4876    6.1018   16.1203 H         1 842         0.0467
     38 H          28.7943    6.5259   17.2534 H         1 842         0.0467
     39 H          30.7194    6.1126   16.4872 H         1 842         0.1857
     40 H          31.3840    6.7091   13.6060 H         1 842         0.0606
     41 H          32.3499    4.4376   15.2199 H         1 842         0.0672
     42 H          30.7326    4.6475   12.6495 H         1 842         0.0841
     43 H          30.1546    4.0322   14.2624 H         1 842         0.0841
     44 H          31.2955    2.2146   14.0494 H         1 842         0.1976
     45 H          32.2784    2.8664   12.7203 H         1 842         0.1976
     46 H          31.4426    0.1292   12.8680 H         1 842         0.0227
     47 H          32.2302    0.8613   11.4295 H         1 842         0.0227
     48 H          30.9930   -1.1590   10.8064 H         1 842         0.0260
     49 H          30.2488    0.2840   10.0803 H         1 842         0.0260
     50 H          29.3447   -1.0743   12.6486 H         1 842         0.0265
     51 H          28.5426   -1.2120   11.0514 H         1 842         0.0265
     52 H          27.4559    0.4235   12.5543 H         1 842         0.0260
     53 H          28.0847    1.1566   11.0441 H         1 842         0.0260
     54 H          28.6327    2.5989   12.8435 H         1 842         0.0227
     55 H          29.3427    1.2026   13.7843 H         1 842         0.0227
     56 H          32.6615    2.4464   10.5439 H         1 842         0.0813
     57 H          30.8329    5.1741    7.8144 H         1 842         0.0836
     58 H          28.7225    4.9814    9.0747 H         1 842         0.0684
     59 H          28.5222    3.4959   11.0589 H         1 842         0.0803
     60 H          35.8351    2.8307    7.1218 H         1 842         0.0658
     61 H          35.6871    5.4644    7.4165 H         1 842         0.0346
     62 H          33.3291    6.0661    8.5465 H         1 842         0.0997
     63 H          33.5578    7.3855   14.4244 H         1 842         0.0448
     64 H          33.2364    6.7540   16.0279 H         1 842         0.0448
     65 H          32.3266    8.2280   17.6778 H         1 842         0.0508
     66 H          30.3481   11.8948   16.5372 H         1 842         0.0532
     67 H          31.7090    9.1633   13.5133 H         1 842         0.0508
     68 H          33.9661    5.3046   13.7802 H         1 842         0.2101
@<TRIPOS>BOND
     1    1    2 1  
     2    2    3 am 
     3    2   25 2  
     4    3    4 1  
     5    4    5 1  
     6    4   26 1  
     7    5    6 1  
     8    5   35 1  
     9    6    7 1  
    10    7    8 1  
    11    8    9 1  
    12    8   13 1  
    13    8   14 1  
    14    9   10 1  
    15   10   11 1  
    16   11   12 1  
    17   12   13 1  
    18   14   15 ar 
    19   14   19 ar 
    20   15   16 ar 
    21   16   17 ar 
    22   16   20 1  
    23   17   18 ar 
    24   18   19 ar 
    25   20   21 1  
    26   20   24 1  
    27   21   22 2  
    28   22   23 1  
    29   23   24 2  
    30   26   27 1  
    31   27   28 ar 
    32   27   32 ar 
    33   28   29 ar 
    34   29   30 ar 
    35   29   33 1  
    36   30   31 ar 
    37   31   32 ar 
    38   31   34 1  
    39    1   36 1  
    40    1   37 1  
    41    1   38 1  
    42    3   39 1  
    43    4   40 1  
    44    5   41 1  
    45    6   42 1  
    46    6   43 1  
    47    7   44 1  
    48    7   45 1  
    49    9   46 1  
    50    9   47 1  
    51   10   48 1  
    52   10   49 1  
    53   11   50 1  
    54   11   51 1  
    55   12   52 1  
    56   12   53 1  
    57   13   54 1  
    58   13   55 1  
    59   15   56 1  
    60   17   57 1  
    61   18   58 1  
    62   19   59 1  
    63   22   60 1  
    64   23   61 1  
    65   24   62 1  
    66   26   63 1  
    67   26   64 1  
    68   28   65 1  
    69   30   66 1  
    70   32   67 1  
    71   35   68 1  
@<TRIPOS>SUBSTRUCTURE
     1 842         1

