### 
### Created by X-TOOL on Mon Sep 10 21:13:03 2018
### 

@<TRIPOS>MOLECULE
3n51_ligand
   53    57     1     0     0
SMALL
GAST_HUCK


@<TRIPOS>ATOM
      1 N1         21.6940   12.4400   63.6670 N.ar      1 BK3        -0.2661
      2 C2         22.8590   13.1000   63.6330 C.ar      1 BK3         0.0558
      3 N3         22.9250   14.4290   63.6390 N.ar      1 BK3        -0.2691
      4 C4         21.8030   15.1680   63.6190 C.ar      1 BK3         0.1581
      5 C5         20.5760   14.5300   63.6460 C.ar      1 BK3         0.0863
      6 C6         20.5400   13.1220   63.6920 C.ar      1 BK3         0.1272
      7 NAA        19.4100   12.4350   63.7320 N.pl3     1 BK3        -0.3122
      8 NBB        21.5430   16.4880   63.5890 N.pl3     1 BK3        -0.1941
      9 NAR        20.3360   16.7300   63.6230 N.2       1 BK3        -0.2106
     10 NAS        23.4930   19.7110   59.9360 N.4       1 BK3         0.2270
     11 CAB        13.2990   15.4720   65.4770 C.ar      1 BK3        -0.0629
     12 CAC        13.8890   15.8410   64.2660 C.ar      1 BK3        -0.0625
     13 CAD        17.6420   14.3820   67.2670 C.ar      1 BK3        -0.0704
     14 CAE        18.2490   14.7370   66.0560 C.ar      1 BK3        -0.0589
     15 CAG        14.1000   15.0150   66.5180 C.ar      1 BK3        -0.0569
     16 CAH        16.2740   14.4720   67.4060 C.ar      1 BK3        -0.0629
     17 CAI        15.2740   15.7450   64.1230 C.ar      1 BK3        -0.0547
     18 CAJ        24.6500   19.1850   60.6900 C.3       1 BK3        -0.0333
     19 CAK        22.4720   18.6460   59.7760 C.3       1 BK3        -0.0333
     20 CAL        24.1710   18.8860   62.1320 C.3       1 BK3        -0.0071
     21 CAM        21.9290   18.2680   61.1660 C.3       1 BK3        -0.0071
     22 CAN        18.1380   15.5610   63.6770 C.3       1 BK3         0.0257
     23 CAO        22.5290   17.5570   63.5520 C.3       1 BK3         0.0695
     24 CAU        17.4690   15.1840   64.9950 C.ar      1 BK3        -0.0212
     25 CAV        19.6510   15.5890   63.6570 C.2       1 BK3         0.0551
     26 CAW        15.4880   14.9280   66.3600 C.ar      1 BK3        -0.0240
     27 CAX        16.0820   15.2840   65.1650 C.ar      1 BK3        -0.0105
     28 CBA        23.0650   17.8080   62.1160 C.3       1 BK3        -0.0036
     29 H1         23.7811   12.5311   63.5994 H         1 BK3         0.1029
     30 H2         18.5069   12.9298   63.7520 H         1 BK3         0.1845
     31 H3         19.4334   11.4053   63.7431 H         1 BK3         0.1845
     32 H4         23.7987   20.0209   59.0269 H         1 BK3         0.2013
     33 H5         23.0911   20.4872   60.4380 H         1 BK3         0.2013
     34 H6         12.2248   15.5413   65.6045 H         1 BK3         0.0616
     35 H7         13.2774   16.1983   63.4455 H         1 BK3         0.0601
     36 H8         18.2489   14.0361   68.0959 H         1 BK3         0.0595
     37 H9         19.3249   14.6635   65.9458 H         1 BK3         0.0534
     38 H10        13.6461   14.7241   67.4585 H         1 BK3         0.0609
     39 H11        15.8088   14.1836   68.3417 H         1 BK3         0.0544
     40 H12        15.7321   16.0341   63.1840 H         1 BK3         0.0628
     41 H13        25.4564   19.9329   60.7100 H         1 BK3         0.0814
     42 H14        25.0175   18.2620   60.2177 H         1 BK3         0.0814
     43 H15        22.9289   17.7633   59.3048 H         1 BK3         0.0814
     44 H16        21.6494   19.0139   59.1451 H         1 BK3         0.0814
     45 H17        23.7728   19.8080   62.5807 H         1 BK3         0.0320
     46 H18        25.0211   18.5249   62.7294 H         1 BK3         0.0320
     47 H19        21.2027   17.4493   61.0552 H         1 BK3         0.0320
     48 H20        21.4296   19.1444   61.6047 H         1 BK3         0.0320
     49 H21        17.7840   16.5651   63.4006 H         1 BK3         0.0596
     50 H22        17.8097   14.8349   62.9187 H         1 BK3         0.0596
     51 H23        23.3727   17.2840   64.2028 H         1 BK3         0.0618
     52 H24        22.0636   18.4818   63.9235 H         1 BK3         0.0618
     53 H25        23.4885   16.8679   61.7328 H         1 BK3         0.0331
@<TRIPOS>BOND
     1    2    1 ar 
     2    6    1 ar 
     3    3    2 ar 
     4    4    3 ar 
     5    4    5 ar 
     6    8    4 1  
     7    5    6 ar 
     8   25    5 1  
     9    6    7 1  
    10    8    9 1  
    11   23    8 1  
    12    9   25 2  
    13   18   10 1  
    14   19   10 1  
    15   11   12 ar 
    16   15   11 ar 
    17   12   17 ar 
    18   14   13 ar 
    19   13   16 ar 
    20   24   14 ar 
    21   26   15 ar 
    22   16   26 ar 
    23   17   27 ar 
    24   20   18 1  
    25   21   19 1  
    26   28   20 1  
    27   28   21 1  
    28   22   24 1  
    29   25   22 1  
    30   23   28 1  
    31   24   27 ar 
    32   26   27 ar 
    33    2   29 1  
    34    7   30 1  
    35    7   31 1  
    36   10   32 1  
    37   10   33 1  
    38   11   34 1  
    39   12   35 1  
    40   13   36 1  
    41   14   37 1  
    42   15   38 1  
    43   16   39 1  
    44   17   40 1  
    45   18   41 1  
    46   18   42 1  
    47   19   43 1  
    48   19   44 1  
    49   20   45 1  
    50   20   46 1  
    51   21   47 1  
    52   21   48 1  
    53   22   49 1  
    54   22   50 1  
    55   23   51 1  
    56   23   52 1  
    57   28   53 1  
@<TRIPOS>SUBSTRUCTURE
     1 BK3         1

