### 
### Created by X-TOOL on Mon Sep 10 21:13:04 2018
### 

@<TRIPOS>MOLECULE
3n5h_ligand
   23    24     1     0     0
SMALL
GAST_HUCK


@<TRIPOS>ATOM
      1 CL1         0.6950   77.2340   29.2470 Cl        1 GO0        -0.0779
      2 C2          2.4080   77.4900   29.1490 C.ar      1 GO0         0.0591
      3 C3          3.2510   76.3740   29.1460 C.ar      1 GO0         0.0776
      4 N4          2.8880   75.0780   29.2560 N.pl3     1 GO0        -0.2786
      5 C6          3.9500   74.2950   29.2080 C.2       1 GO0         0.0898
      6 C7          5.0620   75.0790   29.0360 C.2       1 GO0        -0.0150
      7 C8          4.5940   76.5070   29.0260 C.ar      1 GO0         0.0010
      8 C9          5.1860   77.7680   28.9250 C.ar      1 GO0         0.0305
      9 C10         4.3700   78.9290   28.9580 C.ar      1 GO0        -0.0630
     10 C12         2.9710   78.7910   29.0710 C.ar      1 GO0        -0.0606
     11 CL14        6.8750   77.9220   28.7440 Cl        1 GO0        -0.0762
     12 C15         6.5040   74.6500   28.8830 C.3       1 GO0         0.0213
     13 C18         6.8980   74.6690   27.4030 C.2       1 GO0         0.0416
     14 O19         6.1170   74.9080   26.4870 O.co2     1 GO0        -0.5671
     15 O20         8.1770   74.4010   27.1450 O.co2     1 GO0        -0.5671
     16 C22         3.8110   72.9550   29.3200 C.2       1 GO0         0.0767
     17 O23         4.7780   72.2020   29.2930 O.co2     1 GO0        -0.5633
     18 O24         2.5820   72.4290   29.4500 O.co2     1 GO0        -0.5633
     19 H1          1.9185   74.7467   29.3624 H         1 GO0         0.2214
     20 H2          4.8186   79.9139   28.8968 H         1 GO0         0.0522
     21 H3          2.3335   79.6673   29.0980 H         1 GO0         0.0549
     22 H4          6.6258   73.6314   29.2800 H         1 GO0         0.0531
     23 H5          7.1517   75.3414   29.4420 H         1 GO0         0.0531
@<TRIPOS>BOND
     1    1    2 1  
     2    2    3 ar 
     3    2   10 ar 
     4    3    4 1  
     5    3    7 ar 
     6    4    5 1  
     7    5    6 2  
     8    5   16 1  
     9    6    7 1  
    10    6   12 1  
    11    7    8 ar 
    12    8    9 ar 
    13    8   11 1  
    14    9   10 ar 
    15   12   13 1  
    16   13   14 ar 
    17   13   15 ar 
    18   16   17 ar 
    19   16   18 ar 
    20    4   19 1  
    21    9   20 1  
    22   10   21 1  
    23   12   22 1  
    24   12   23 1  
@<TRIPOS>SUBSTRUCTURE
     1 GO0         1

