### 
### Created by X-TOOL on Mon Sep 10 21:13:04 2018
### 

@<TRIPOS>MOLECULE
3n5j_ligand
   23    24     1     0     0
SMALL
GAST_HUCK


@<TRIPOS>ATOM
      1 CL1         1.3970   75.3980   29.7180 Cl        1 GO1        -0.0781
      2 C2          2.9780   75.9050   29.3200 C.ar      1 GO1         0.0595
      3 C3          4.0170   75.0090   29.1350 C.ar      1 GO1         0.0776
      4 N4          3.9590   73.6700   29.2160 N.pl3     1 GO1        -0.2785
      5 C6          5.1590   73.1460   28.9910 C.2       1 GO1         0.0899
      6 C7          6.0450   74.1600   28.7380 C.2       1 GO1        -0.0151
      7 C8          5.2820   75.4490   28.8360 C.ar      1 GO1        -0.0116
      8 C9          5.5890   76.8250   28.6860 C.ar      1 GO1        -0.0577
      9 C11         4.4980   77.7250   28.8600 C.ar      1 GO1         0.0247
     10 C12         3.2260   77.2640   29.1900 C.ar      1 GO1        -0.0473
     11 CL14        4.6090   79.4610   28.6970 Cl        1 GO1        -0.0819
     12 C15         7.5190   74.0440   28.4070 C.3       1 GO1         0.0214
     13 C18         7.7770   74.6580   27.0580 C.2       1 GO1         0.0416
     14 O19         6.9050   74.7210   26.2000 O.co2     1 GO1        -0.5671
     15 O20         9.0200   75.1210   26.8630 O.co2     1 GO1        -0.5671
     16 C22         5.4100   71.8150   29.0140 C.2       1 GO1         0.0767
     17 O23         6.5520   71.3870   28.9300 O.co2     1 GO1        -0.5633
     18 O24         4.3930   70.9480   29.1210 O.co2     1 GO1        -0.5633
     19 H1          3.1079   73.1279   29.4225 H         1 GO1         0.2215
     20 H2          6.5899   77.1704   28.4537 H         1 GO1         0.0564
     21 H3          2.4218   77.9738   29.3468 H         1 GO1         0.0555
     22 H4          7.8089   72.9831   28.3890 H         1 GO1         0.0531
     23 H5          8.1094   74.5726   29.1699 H         1 GO1         0.0531
@<TRIPOS>BOND
     1    1    2 1  
     2    2    3 ar 
     3    2   10 ar 
     4    3    4 1  
     5    3    7 ar 
     6    4    5 1  
     7    5    6 2  
     8    5   16 1  
     9    6    7 1  
    10    6   12 1  
    11    7    8 ar 
    12    8    9 ar 
    13    9   10 ar 
    14    9   11 1  
    15   12   13 1  
    16   13   14 ar 
    17   13   15 ar 
    18   16   17 ar 
    19   16   18 ar 
    20    4   19 1  
    21    8   20 1  
    22   10   21 1  
    23   12   22 1  
    24   12   23 1  
@<TRIPOS>SUBSTRUCTURE
     1 GO1         1

