### 
### Created by X-TOOL on Mon Sep 10 21:13:06 2018
### 

@<TRIPOS>MOLECULE
3n5k_ligand
  102   104     1     0     0
SMALL
GAST_HUCK


@<TRIPOS>ATOM
      1 C34        35.2150   73.7130   18.2370 C.3       1 TG1        -0.0283
      2 C11        35.0330   72.9740   16.9110 C.3       1 TG1         0.1472
      3 C7         35.3170   73.7880   15.5840 C.3       1 TG1         0.1556
      4 C8         36.7550   74.2740   15.3610 C.3       1 TG1         0.1244
      5 C9         36.8900   75.2320   14.1590 C.3       1 TG1         0.0146
      6 C10        36.4340   74.8190   12.7340 C.3       1 TG1         0.1042
      7 C1         34.9320   74.5750   12.5420 C.3       1 TG1         0.0315
      8 C2         34.5160   74.4740   11.0410 C.3       1 TG1         0.1243
      9 O1         33.4910   75.4190   10.7600 O.3       1 TG1        -0.2701
     10 C13        33.6910   76.2270    9.6670 C.2       1 TG1         0.2341
     11 O2         34.5600   77.0730    9.7060 O.2       1 TG1        -0.3704
     12 C14        32.7720   75.9540    8.5020 C.3       1 TG1         0.0487
     13 C15        33.5310   75.9820    7.1620 C.3       1 TG1        -0.0348
     14 C16        32.9280   75.1720    6.0030 C.3       1 TG1        -0.0509
     15 C17        31.4060   75.3480    5.8600 C.3       1 TG1        -0.0529
     16 C18        30.9120   75.6330    4.4390 C.3       1 TG1        -0.0533
     17 C19        32.0280   76.0010    3.4570 C.3       1 TG1        -0.0559
     18 C20        31.7150   75.5510    2.0420 C.3       1 TG1        -0.0653
     19 C3         33.8250   73.0920   10.7960 C.3       1 TG1         0.1213
     20 O3         34.7060   72.3110   10.0180 O.3       1 TG1        -0.2701
     21 C21        34.2330   71.9640    8.7620 C.2       1 TG1         0.2369
     22 O4         33.2590   71.2440    8.7410 O.2       1 TG1        -0.3701
     23 C22        35.1180   72.3230    7.5900 C.3       1 TG1         0.0570
     24 C23        34.2640   72.2770    6.3150 C.3       1 TG1        -0.0440
     25 C24        36.3360   71.4260    7.3420 C.3       1 TG1        -0.0350
     26 C25        37.1730   71.0580    8.5450 C.3       1 TG1        -0.0629
     27 C4         33.4900   72.5440   12.2060 C.3       1 TG1        -0.0046
     28 C26        33.3080   71.0410   12.3300 C.3       1 TG1        -0.0593
     29 C5         34.2330   73.4030   13.2530 C.3       1 TG1         0.0022
     30 C6         34.7370   72.7730   14.5580 C.3       1 TG1         0.0997
     31 O5         33.5460   72.3310   15.2150 O.3       1 TG1        -0.3420
     32 C12        33.5330   72.7310   16.5640 C.3       1 TG1         0.1883
     33 O12        33.0390   71.6590   17.2700 O.3       1 TG1        -0.3647
     34 C31        37.3070   73.6860   12.1750 C.3       1 TG1        -0.0309
     35 O9         36.8330   75.8730   11.8610 O.3       1 TG1        -0.2702
     36 C32        37.6480   76.9430   11.9570 C.2       1 TG1         0.2311
     37 O10        37.3320   77.9940   11.4270 O.2       1 TG1        -0.3707
     38 C33        39.0510   76.4120   12.0840 C.3       1 TG1         0.0372
     39 O7         37.6010   73.1590   15.2150 O.3       1 TG1        -0.2703
     40 C27        38.4500   72.8740   16.2570 C.2       1 TG1         0.2341
     41 O8         38.5020   73.6110   17.2310 O.2       1 TG1        -0.3704
     42 C28        39.1920   71.5790   16.0690 C.3       1 TG1         0.0485
     43 C29        38.8430   70.5960   17.1910 C.3       1 TG1        -0.0376
     44 C30        39.7780   69.3980   17.1560 C.3       1 TG1        -0.0631
     45 O6         34.4510   74.8880   15.5760 O.3       1 TG1        -0.3800
     46 O11        35.7930   71.8070   16.8410 O.3       1 TG1        -0.3808
     47 H1         34.9859   73.0326   19.0704 H         1 TG1         0.0260
     48 H2         34.5351   74.5770   18.2716 H         1 TG1         0.0260
     49 H3         36.2549   74.0610   18.3231 H         1 TG1         0.0260
     50 H4         37.0665   74.8267   16.2596 H         1 TG1         0.0681
     51 H5         37.9581   75.4834   14.0817 H         1 TG1         0.0326
     52 H6         36.3184   76.1356   14.4173 H         1 TG1         0.0326
     53 H7         34.4602   75.4835   12.9444 H         1 TG1         0.0365
     54 H8         35.3890   74.6160   10.3871 H         1 TG1         0.0683
     55 H9         31.9838   76.7210    8.4818 H         1 TG1         0.0518
     56 H10        32.3151   74.9620    8.6327 H         1 TG1         0.0518
     57 H11        34.5440   75.5948    7.3459 H         1 TG1         0.0291
     58 H12        33.5927   77.0311    6.8371 H         1 TG1         0.0291
     59 H13        33.1410   74.1066    6.1746 H         1 TG1         0.0267
     60 H14        33.4057   75.4952    5.0663 H         1 TG1         0.0267
     61 H15        31.0990   76.1872    6.5014 H         1 TG1         0.0265
     62 H16        30.9225   74.4237    6.2091 H         1 TG1         0.0265
     63 H17        30.1983   76.4689    4.4814 H         1 TG1         0.0265
     64 H18        30.4019   74.7340    4.0627 H         1 TG1         0.0265
     65 H19        32.9613   75.5193    3.7840 H         1 TG1         0.0263
     66 H20        32.1581   77.0933    3.4611 H         1 TG1         0.0263
     67 H21        32.5420   75.8362    1.3752 H         1 TG1         0.0230
     68 H22        30.7865   76.0323    1.7011 H         1 TG1         0.0230
     69 H23        31.5897   74.4583    2.0240 H         1 TG1         0.0230
     70 H24        32.8881   73.2220   10.2346 H         1 TG1         0.0682
     71 H25        35.4831   73.3479    7.7519 H         1 TG1         0.0551
     72 H26        34.8877   72.5353    5.4465 H         1 TG1         0.0258
     73 H27        33.4380   72.9983    6.4007 H         1 TG1         0.0258
     74 H28        33.8546   71.2645    6.1842 H         1 TG1         0.0258
     75 H29        36.9916   71.9464    6.6283 H         1 TG1         0.0291
     76 H30        35.9730   70.4904    6.8916 H         1 TG1         0.0291
     77 H31        38.0083   70.4163    8.2280 H         1 TG1         0.0231
     78 H32        36.5507   70.5169    9.2730 H         1 TG1         0.0231
     79 H33        37.5694   71.9729    9.0097 H         1 TG1         0.0231
     80 H34        32.4506   72.8724   12.3536 H         1 TG1         0.0331
     81 H35        33.0756   70.7847   13.3742 H         1 TG1         0.0233
     82 H36        34.2349   70.5330   12.0254 H         1 TG1         0.0233
     83 H37        32.4817   70.7168   11.6803 H         1 TG1         0.0233
     84 H38        33.3809   73.9465   13.6871 H         1 TG1         0.0335
     85 H39        35.4508   71.9618   14.3518 H         1 TG1         0.0631
     86 H40        32.9270   73.6336   16.7316 H         1 TG1         0.0939
     87 H41        33.6048   70.9072   17.1391 H         1 TG1         0.2126
     88 H42        38.3678   73.9228   12.3445 H         1 TG1         0.0261
     89 H43        37.1230   73.5797   11.0957 H         1 TG1         0.0261
     90 H44        37.0557   72.7440   12.6844 H         1 TG1         0.0261
     91 H45        39.7553   77.2530   12.1656 H         1 TG1         0.0483
     92 H46        39.2978   75.8120   11.1957 H         1 TG1         0.0483
     93 H47        39.1251   75.7832   12.9835 H         1 TG1         0.0483
     94 H48        40.2741   71.7759   16.0832 H         1 TG1         0.0518
     95 H49        38.9122   71.1381   15.1009 H         1 TG1         0.0518
     96 H50        37.8067   70.2508   17.0611 H         1 TG1         0.0288
     97 H51        38.9413   71.1041   18.1616 H         1 TG1         0.0288
     98 H52        39.5141   68.7031   17.9669 H         1 TG1         0.0231
     99 H53        40.8155   69.7386   17.2882 H         1 TG1         0.0231
    100 H54        39.6809   68.8853   16.1877 H         1 TG1         0.0231
    101 H55        34.6962   75.4877   16.2708 H         1 TG1         0.2105
    102 H56        35.6486   71.2889   17.6241 H         1 TG1         0.2105
@<TRIPOS>BOND
     1    1    2 1  
     2    2    3 1  
     3    2   32 1  
     4    2   46 1  
     5    3    4 1  
     6    3   30 1  
     7    3   45 1  
     8    4    5 1  
     9    4   39 1  
    10    5    6 1  
    11    6    7 1  
    12    6   34 1  
    13    6   35 1  
    14    7    8 1  
    15    7   29 1  
    16    8    9 1  
    17    8   19 1  
    18    9   10 1  
    19   10   11 2  
    20   10   12 1  
    21   12   13 1  
    22   13   14 1  
    23   14   15 1  
    24   15   16 1  
    25   16   17 1  
    26   17   18 1  
    27   19   20 1  
    28   19   27 1  
    29   20   21 1  
    30   21   22 2  
    31   21   23 1  
    32   23   24 1  
    33   23   25 1  
    34   25   26 1  
    35   27   28 1  
    36   27   29 1  
    37   29   30 1  
    38   30   31 1  
    39   31   32 1  
    40   32   33 1  
    41   35   36 1  
    42   36   37 2  
    43   36   38 1  
    44   39   40 1  
    45   40   41 2  
    46   40   42 1  
    47   42   43 1  
    48   43   44 1  
    49    1   47 1  
    50    1   48 1  
    51    1   49 1  
    52    4   50 1  
    53    5   51 1  
    54    5   52 1  
    55    7   53 1  
    56    8   54 1  
    57   12   55 1  
    58   12   56 1  
    59   13   57 1  
    60   13   58 1  
    61   14   59 1  
    62   14   60 1  
    63   15   61 1  
    64   15   62 1  
    65   16   63 1  
    66   16   64 1  
    67   17   65 1  
    68   17   66 1  
    69   18   67 1  
    70   18   68 1  
    71   18   69 1  
    72   19   70 1  
    73   23   71 1  
    74   24   72 1  
    75   24   73 1  
    76   24   74 1  
    77   25   75 1  
    78   25   76 1  
    79   26   77 1  
    80   26   78 1  
    81   26   79 1  
    82   27   80 1  
    83   28   81 1  
    84   28   82 1  
    85   28   83 1  
    86   29   84 1  
    87   30   85 1  
    88   32   86 1  
    89   33   87 1  
    90   34   88 1  
    91   34   89 1  
    92   34   90 1  
    93   38   91 1  
    94   38   92 1  
    95   38   93 1  
    96   42   94 1  
    97   42   95 1  
    98   43   96 1  
    99   43   97 1  
   100   44   98 1  
   101   44   99 1  
   102   44  100 1  
   103   45  101 1  
   104   46  102 1  
@<TRIPOS>SUBSTRUCTURE
     1 TG1         1

