### 
### Created by X-TOOL on Mon Sep 10 21:13:04 2018
### 

@<TRIPOS>MOLECULE
3n6k_ligand
   29    31     1     0     0
SMALL
GAST_HUCK


@<TRIPOS>ATOM
      1 O1          7.4620   74.2460   26.9990 O.co2     1 BFH        -0.5662
      2 C2          6.1290   74.0720   26.9450 C.2       1 BFH         0.0646
      3 O3          5.5450   74.1650   25.8800 O.co2     1 BFH        -0.5662
      4 C4          5.3830   73.7670   28.2290 C.3       1 BFH         0.1060
      5 N5          3.9150   73.9320   28.0460 N.pl3     1 BFH        -0.2425
      6 C6          3.0470   72.8560   27.8750 C.2       1 BFH         0.0963
      7 C7          1.7740   73.3090   27.7790 C.2       1 BFH        -0.0483
      8 C8          1.8080   74.7090   27.8550 C.ar      1 BFH        -0.0206
      9 C9          0.7320   75.6480   27.7860 C.ar      1 BFH        -0.0723
     10 C10         0.9780   76.9870   27.8670 C.ar      1 BFH        -0.0683
     11 C11         2.3140   77.4810   28.0130 C.ar      1 BFH        -0.0280
     12 C12         2.5360   78.8790   28.0950 C.ar      1 BFH        -0.0603
     13 C13         3.8210   79.3670   28.2330 C.ar      1 BFH        -0.0657
     14 C14         4.9410   78.5080   28.3010 C.ar      1 BFH        -0.0654
     15 C15         4.7570   77.1310   28.2270 C.ar      1 BFH        -0.0565
     16 C16         3.4480   76.5530   28.0880 C.ar      1 BFH         0.0072
     17 C17         3.1720   75.1190   28.0090 C.ar      1 BFH         0.0813
     18 C18         3.3540   71.4200   27.7880 C.2       1 BFH         0.0852
     19 O19         3.0110   70.7650   26.6520 O.co2     1 BFH        -0.5599
     20 O20         3.9000   70.8370   28.7110 O.co2     1 BFH        -0.5599
     21 H           5.7189   74.4592   29.0011 H         1 BFH         0.0780
     22 H           5.5857   72.7347   28.5141 H         1 BFH         0.0780
     23 H           0.8813   72.6943   27.6632 H         1 BFH         0.0362
     24 H          -0.2913   75.2915   27.6679 H         1 BFH         0.0570
     25 H           0.1466   77.6904   27.8200 H         1 BFH         0.0512
     26 H           1.6930   79.5685   28.0492 H         1 BFH         0.0598
     27 H           3.9753   80.4445   28.2910 H         1 BFH         0.0596
     28 H           5.9434   78.9219   28.4108 H         1 BFH         0.0590
     29 H           5.6260   76.4747   28.2756 H         1 BFH         0.0608
@<TRIPOS>BOND
     1    1    2 ar 
     2    2    3 ar 
     3    2    4 1  
     4    4    5 1  
     5    5    6 1  
     6    5   17 1  
     7    6    7 2  
     8    6   18 1  
     9    7    8 1  
    10    8    9 ar 
    11    8   17 ar 
    12    9   10 ar 
    13   10   11 ar 
    14   11   12 ar 
    15   11   16 ar 
    16   12   13 ar 
    17   13   14 ar 
    18   14   15 ar 
    19   15   16 ar 
    20   16   17 ar 
    21   18   19 ar 
    22   18   20 ar 
    23    4   21 1  
    24    4   22 1  
    25    7   23 1  
    26    9   24 1  
    27   10   25 1  
    28   12   26 1  
    29   13   27 1  
    30   14   28 1  
    31   15   29 1  
@<TRIPOS>SUBSTRUCTURE
     1 BFH         1

