### 
### Created by X-TOOL on Mon Sep 10 21:13:06 2018
### 

@<TRIPOS>MOLECULE
3n76_ligand
   39    40     1     0     0
SMALL
GAST_HUCK


@<TRIPOS>ATOM
      1 O2        -37.9190  -62.9070  -52.3590 O.co2     1 CA2        -0.5775
      2 C7        -37.7280  -61.6870  -52.0010 C.2       1 CA2        -0.0094
      3 O1        -36.5970  -61.1070  -51.9230 O.co2     1 CA2        -0.5775
      4 C1        -38.9520  -60.8160  -51.6350 C.3       1 CA2         0.0345
      5 O3        -39.0280  -59.6360  -52.5020 O.3       1 CA2        -0.4694
      6 C2        -38.7560  -60.5220  -50.2680 C.2       1 CA2        -0.0855
      7 C3        -39.8330  -60.2740  -49.3930 C.2       1 CA2         0.0274
      8 C4        -41.3310  -60.4960  -49.7650 C.3       1 CA2         0.1436
      9 O4        -42.2780  -59.4930  -49.2220 O.3       1 CA2        -0.3631
     10 C5        -41.4610  -60.6470  -51.2940 C.3       1 CA2         0.0882
     11 O5        -42.6860  -61.2920  -51.6420 O.3       1 CA2        -0.3867
     12 C6        -40.3040  -61.5270  -51.7910 C.3       1 CA2        -0.0476
     13 C8        -39.3610  -60.1370  -48.1010 C.2       1 CA2         0.0187
     14 C9        -40.0460  -59.9340  -46.9290 C.2       1 CA2         0.0224
     15 C10       -39.1050  -59.7310  -45.9320 C.3       1 CA2         0.1371
     16 O11       -39.1710  -60.5770  -44.8650 O.3       1 CA2        -0.2888
     17 C12       -38.0430  -61.0090  -44.2490 C.ar      1 CA2         0.0973
     18 C17       -36.8250  -61.1310  -44.8980 C.ar      1 CA2        -0.0327
     19 C16       -35.6890  -61.6260  -44.2260 C.ar      1 CA2        -0.0706
     20 C15       -35.8210  -62.0260  -42.9010 C.ar      1 CA2        -0.0729
     21 C14       -37.0690  -61.9100  -42.2420 C.ar      1 CA2        -0.0706
     22 C13       -38.1800  -61.4060  -42.9150 C.ar      1 CA2        -0.0327
     23 H1        -39.1084  -59.9139  -53.4069 H         1 CA2         0.1792
     24 H2        -37.7402  -60.4857  -49.8771 H         1 CA2         0.0424
     25 H3        -41.6228  -61.4583  -49.3191 H         1 CA2         0.0956
     26 H4        -42.2331  -59.4979  -48.2731 H         1 CA2         0.2161
     27 H5        -41.4162  -59.6556  -51.7685 H         1 CA2         0.0648
     28 H6        -42.7426  -61.3732  -52.5868 H         1 CA2         0.2102
     29 H7        -40.2874  -62.4594  -51.2076 H         1 CA2         0.0109
     30 H8        -40.4642  -61.7621  -52.8536 H         1 CA2         0.0109
     31 H9        -38.2788  -60.1998  -47.9970 H         1 CA2         0.0702
     32 H10       -41.1280  -59.9327  -46.8055 H         1 CA2         0.1381
     33 H11       -39.2297  -58.7049  -45.5557 H         1 CA2         0.0995
     34 H12       -38.1078  -59.8371  -46.3841 H         1 CA2         0.0995
     35 H13       -36.7443  -60.8411  -45.9394 H         1 CA2         0.0542
     36 H14       -34.7326  -61.6934  -44.7317 H         1 CA2         0.0589
     37 H15       -34.9655  -62.4281  -42.3705 H         1 CA2         0.0523
     38 H16       -37.1607  -62.2157  -41.2060 H         1 CA2         0.0589
     39 H17       -39.1366  -61.3228  -42.4120 H         1 CA2         0.0542
@<TRIPOS>BOND
     1    1    2 ar 
     2    2    3 ar 
     3    2    4 1  
     4    4    5 1  
     5    4    6 1  
     6    4   12 1  
     7    6    7 2  
     8    7    8 1  
     9    7   13 1  
    10    8    9 1  
    11    8   10 1  
    12   10   11 1  
    13   10   12 1  
    14   13   14 2  
    15   14   15 1  
    16   15   16 1  
    17   16   17 1  
    18   17   18 ar 
    19   17   22 ar 
    20   18   19 ar 
    21   19   20 ar 
    22   20   21 ar 
    23   21   22 ar 
    24    5   23 1  
    25    6   24 1  
    26    8   25 1  
    27    9   26 1  
    28   10   27 1  
    29   11   28 1  
    30   12   29 1  
    31   12   30 1  
    32   13   31 1  
    33   14   32 1  
    34   15   33 1  
    35   15   34 1  
    36   18   35 1  
    37   19   36 1  
    38   20   37 1  
    39   21   38 1  
    40   22   39 1  
@<TRIPOS>SUBSTRUCTURE
     1 CA2         1

