### 
### Created by X-TOOL on Fri Sep 26 17:34:50 2014
### 

@<TRIPOS>MOLECULE
3n7h_ligand
   31    31     1     0     0
SMALL
GAST_HUCK


@<TRIPOS>ATOM
      1 CAA        13.7050    4.1300   14.6610 C.ar      1 DE3         0.0433
      2 CAB        12.8460    3.0480   14.4360 C.ar      1 DE3        -0.0409
      3 CAC        15.0550    3.8920   14.9340 C.ar      1 DE3        -0.0489
      4 CAD        13.3410    1.7470   14.4470 C.ar      1 DE3        -0.0406
      5 CAE        14.6900    1.5140   14.6970 C.ar      1 DE3        -0.0563
      6 CAF        15.5510    2.5870   14.9370 C.ar      1 DE3        -0.0629
      7 CAG        12.4140    0.5620   14.1720 C.3       1 DE3        -0.0302
      8 CAH        13.1370    5.5550   14.6580 C.2       1 DE3         0.2058
      9 CAI        12.1740    8.0630   12.8880 C.3       1 DE3        -0.0447
     10 CAJ        15.0260    6.3000   13.2120 C.3       1 DE3         0.0306
     11 CAK        13.2470    7.9070   13.9640 C.3       1 DE3         0.0306
     12 CAL        16.1320    7.1520   13.7660 C.3       1 DE3        -0.0447
     13 NAM        13.7580    6.5210   13.9260 N.am      1 DE3        -0.2730
     14 OAN        12.1130    5.7820   15.2990 O.2       1 DE3        -0.3845
     15 H1         11.7922    3.2237   14.2526 H         1 DE3         0.0607
     16 H2         15.7187    4.7230   15.1440 H         1 DE3         0.0611
     17 H3         15.0724    0.4997   14.7054 H         1 DE3         0.0592
     18 H4         16.6032    2.4068   15.1254 H         1 DE3         0.0611
     19 H5         11.3919    0.9290   13.9972 H         1 DE3         0.0391
     20 H6         12.4172   -0.1150   15.0390 H         1 DE3         0.0391
     21 H7         12.7661    0.0198   13.2820 H         1 DE3         0.0391
     22 H8         11.7844    9.0915   12.9051 H         1 DE3         0.0249
     23 H9         11.3535    7.3569   13.0832 H         1 DE3         0.0249
     24 H10        12.6114    7.8530   11.9008 H         1 DE3         0.0249
     25 H11        15.3093    5.2415   13.3082 H         1 DE3         0.0519
     26 H12        14.8843    6.5466   12.1494 H         1 DE3         0.0519
     27 H13        12.8124    8.1142   14.9530 H         1 DE3         0.0519
     28 H14        14.0703    8.6104   13.7705 H         1 DE3         0.0519
     29 H15        17.0594    6.9579   13.2072 H         1 DE3         0.0249
     30 H16        16.2858    6.9085   14.8276 H         1 DE3         0.0249
     31 H17        15.8608    8.2136   13.6689 H         1 DE3         0.0249
@<TRIPOS>BOND
     1    1    2 ar 
     2    1    3 ar 
     3    8    1 1  
     4    2    4 ar 
     5    3    6 ar 
     6    4    5 ar 
     7    4    7 1  
     8    6    5 ar 
     9   13    8 am 
    10    8   14 2  
    11   11    9 1  
    12   10   12 1  
    13   13   10 1  
    14   11   13 1  
    15    2   15 1  
    16    3   16 1  
    17    5   17 1  
    18    6   18 1  
    19    7   19 1  
    20    7   20 1  
    21    7   21 1  
    22    9   22 1  
    23    9   23 1  
    24    9   24 1  
    25   10   25 1  
    26   10   26 1  
    27   11   27 1  
    28   11   28 1  
    29   12   29 1  
    30   12   30 1  
    31   12   31 1  
@<TRIPOS>SUBSTRUCTURE
     1 DE3         1

