### 
### Created by X-TOOL on Mon Sep 10 21:13:05 2018
### 

@<TRIPOS>MOLECULE
3n86_ligand
   41    42     1     0     0
SMALL
GAST_HUCK


@<TRIPOS>ATOM
      1 OAA        28.3480   26.8320   -3.6200 O.2       1 RJP        -0.3845
      2 OAB        31.4300   25.0960    3.0840 O.co2     1 RJP        -0.5717
      3 OAC        29.5250   24.3920    4.0370 O.co2     1 RJP        -0.5717
      4 OAD        27.6360   20.9350    0.7890 O.3       1 RJP        -0.3854
      5 OAE        28.2490   22.4290   -1.7040 O.3       1 RJP        -0.3562
      6 OAF        31.3880   22.8590    1.5820 O.3       1 RJP        -0.4539
      7 CAG        29.5260   26.3620   -1.6360 C.3       1 RJP         0.0698
      8 CAH        28.8800   25.0060   -1.6410 C.3       1 RJP         0.0498
      9 CAI        29.8980   24.5330    0.6260 C.2       1 RJP        -0.0572
     10 CAJ        27.2460   31.9370   -3.7590 C.ar      1 RJP        -0.0772
     11 CAK        26.9560   30.7130   -4.3700 C.ar      1 RJP        -0.0755
     12 CAL        28.0660   32.0340   -2.6110 C.ar      1 RJP        -0.0755
     13 CAM        27.5010   29.5560   -3.7940 C.ar      1 RJP        -0.0413
     14 CAN        28.6290   30.8830   -2.0450 C.ar      1 RJP        -0.0413
     15 CAO        28.9690   22.6180    2.0450 C.3       1 RJP        -0.0350
     16 NAP        28.8810   28.5370   -2.0980 N.am      1 RJP        -0.2336
     17 CAQ        28.8010   27.2710   -2.5560 C.2       1 RJP         0.2085
     18 CAR        30.3500   24.4490    3.0760 C.2       1 RJP         0.0068
     19 CAS        29.1180   24.1340   -0.4150 C.2       1 RJP         0.0428
     20 CAT        28.3330   29.6610   -2.6620 C.ar      1 RJP         0.0662
     21 CAU        28.6940   21.8970    0.6970 C.3       1 RJP         0.0972
     22 CAV        28.5910   22.8820   -0.4770 C.3       1 RJP         0.1616
     23 CAW        30.1300   23.6300    1.8360 C.3       1 RJP         0.0564
     24 H1         27.5084   20.5243   -0.0581 H         1 RJP         0.2103
     25 H2         27.5945   23.0047   -2.0818 H         1 RJP         0.2176
     26 H3         31.5610   22.2855    2.3194 H         1 RJP         0.1842
     27 H4         30.5716   26.2689   -1.9646 H         1 RJP         0.0562
     28 H5         29.4973   26.7757   -0.6172 H         1 RJP         0.0562
     29 H6         29.2574   24.4595   -2.5178 H         1 RJP         0.0714
     30 H7         27.7945   25.1536   -1.7402 H         1 RJP         0.0714
     31 H8         30.3662   25.5157    0.5960 H         1 RJP         0.0428
     32 H9         26.8273   32.8437   -4.1804 H         1 RJP         0.0487
     33 H10        26.3333   30.6603   -5.2557 H         1 RJP         0.0577
     34 H11        28.2598   33.0037   -2.1669 H         1 RJP         0.0577
     35 H12        27.2824   28.5830   -4.2190 H         1 RJP         0.0502
     36 H13        29.2652   30.9357   -1.1689 H         1 RJP         0.0502
     37 H14        29.2536   21.8798    2.8092 H         1 RJP         0.0144
     38 H15        28.0648   23.1530    2.3707 H         1 RJP         0.0144
     39 H16        29.3977   28.6714   -1.2525 H         1 RJP         0.2257
     40 H17        29.5973   21.3038    0.4914 H         1 RJP         0.0662
     41 H18        27.5739   23.2057   -0.2110 H         1 RJP         0.1053
@<TRIPOS>BOND
     1   17    1 2  
     2   18    2 ar 
     3   18    3 ar 
     4   21    4 1  
     5   22    5 1  
     6   23    6 1  
     7    8    7 1  
     8    7   17 1  
     9   19    8 1  
    10   19    9 2  
    11    9   23 1  
    12   11   10 ar 
    13   12   10 ar 
    14   13   11 ar 
    15   14   12 ar 
    16   20   13 ar 
    17   20   14 ar 
    18   15   21 1  
    19   23   15 1  
    20   17   16 am 
    21   16   20 1  
    22   23   18 1  
    23   19   22 1  
    24   21   22 1  
    25    4   24 1  
    26    5   25 1  
    27    6   26 1  
    28    7   27 1  
    29    7   28 1  
    30    8   29 1  
    31    8   30 1  
    32    9   31 1  
    33   10   32 1  
    34   11   33 1  
    35   12   34 1  
    36   13   35 1  
    37   14   36 1  
    38   15   37 1  
    39   15   38 1  
    40   16   39 1  
    41   21   40 1  
    42   22   41 1  
@<TRIPOS>SUBSTRUCTURE
     1 RJP         1

