### 
### Created by X-TOOL on Mon Sep 10 21:13:06 2018
### 

@<TRIPOS>MOLECULE
3n87_ligand
   43    45     1     0     0
SMALL
GAST_HUCK


@<TRIPOS>ATOM
      1 O1         45.1690    5.6260   29.5030 O.co2     1 N87        -0.5729
      2 C2         44.9940    6.8280   29.1980 C.2       1 N87         0.0041
      3 O3         45.7490    7.7450   29.6270 O.co2     1 N87        -0.5729
      4 C4         43.8210    7.1210   28.2740 C.3       1 N87         0.0536
      5 O5         42.7180    6.3250   28.7050 O.3       1 N87        -0.4567
      6 C6         44.1210    6.6030   26.8890 C.2       1 N87        -0.0643
      7 C7         44.0040    7.3090   25.7500 C.2       1 N87         0.0506
      8 C8         43.1870    8.5700   25.7160 C.3       1 N87         0.1519
      9 O9         42.2280    8.4040   24.6830 O.3       1 N87        -0.3603
     10 C10        42.4860    8.8290   27.0530 C.3       1 N87         0.0927
     11 O11        41.9970   10.1710   27.0990 O.3       1 N87        -0.3861
     12 C12        43.4370    8.6040   28.2270 C.3       1 N87        -0.0373
     13 C13        44.7660    6.8180   24.5490 C.ar      1 N87         0.0532
     14 C14        45.4370    7.7420   23.7620 C.ar      1 N87        -0.0054
     15 C15        46.1840    7.3490   22.6520 C.ar      1 N87         0.0560
     16 C16        46.8370    8.4490   21.8440 C.2       1 N87         0.1654
     17 C17        48.1970    8.4240   21.2040 C.ar      1 N87         0.0346
     18 C18        48.9760    7.2550   21.1290 C.ar      1 N87        -0.0434
     19 C19        50.2220    7.3150   20.5010 C.ar      1 N87        -0.0560
     20 C20        50.6730    8.5260   19.9490 C.ar      1 N87        -0.0573
     21 C21        49.8930    9.6860   20.0080 C.ar      1 N87        -0.0560
     22 C22        48.6550    9.6280   20.6420 C.ar      1 N87        -0.0434
     23 C23        46.2650    5.9820   22.3290 C.ar      1 N87        -0.0246
     24 C24        45.6120    5.0310   23.1300 C.ar      1 N87        -0.0346
     25 C25        44.8610    5.4500   24.2380 C.ar      1 N87        -0.0202
     26 O26        46.2090    9.4700   21.6660 O.2       1 N87        -0.3665
     27 H          42.9569    5.3964   28.6571 H         1 N87         0.1831
     28 H          44.4608    5.5708   26.8044 H         1 N87         0.0481
     29 H          43.8314    9.4298   25.5328 H         1 N87         0.0993
     30 H          42.6800    8.2658   23.8475 H         1 N87         0.2167
     31 H          41.6552    8.1281   27.1342 H         1 N87         0.0655
     32 H          41.5599   10.3225   27.9402 H         1 N87         0.2103
     33 H          44.3317    9.2135   28.0998 H         1 N87         0.0137
     34 H          42.9478    8.8887   29.1585 H         1 N87         0.0137
     35 H          45.3791    8.8002   24.0171 H         1 N87         0.0857
     36 H          48.6135    6.3188   21.5536 H         1 N87         0.0670
     37 H          50.8446    6.4225   20.4390 H         1 N87         0.0630
     38 H          51.6493    8.5623   19.4656 H         1 N87         0.0654
     39 H          50.2478   10.6171   19.5661 H         1 N87         0.0630
     40 H          48.0361   10.5232   20.7030 H         1 N87         0.0670
     41 H          46.8347    5.6610   21.4569 H         1 N87         0.0828
     42 H          45.6886    3.9702   22.8913 H         1 N87         0.0683
     43 H          44.3502    4.7140   24.8589 H         1 N87         0.0832
@<TRIPOS>BOND
     1    1    2 ar 
     2    2    3 ar 
     3    2    4 1  
     4    4    5 1  
     5    4    6 1  
     6    4   12 1  
     7    6    7 2  
     8    7    8 1  
     9    7   13 1  
    10    8    9 1  
    11    8   10 1  
    12   10   11 1  
    13   10   12 1  
    14   13   14 ar 
    15   13   25 ar 
    16   14   15 ar 
    17   15   16 1  
    18   15   23 ar 
    19   16   17 1  
    20   16   26 2  
    21   17   18 ar 
    22   17   22 ar 
    23   18   19 ar 
    24   19   20 ar 
    25   20   21 ar 
    26   21   22 ar 
    27   23   24 ar 
    28   24   25 ar 
    29    5   27 1  
    30    6   28 1  
    31    8   29 1  
    32    9   30 1  
    33   10   31 1  
    34   11   32 1  
    35   12   33 1  
    36   12   34 1  
    37   14   35 1  
    38   18   36 1  
    39   19   37 1  
    40   20   38 1  
    41   21   39 1  
    42   22   40 1  
    43   23   41 1  
    44   24   42 1  
    45   25   43 1  
@<TRIPOS>SUBSTRUCTURE
     1 N87         1

