### 
### Created by X-TOOL on Mon Sep 10 21:13:03 2018
### 

@<TRIPOS>MOLECULE
3n8k_ligand
   15    15     1     0     0
SMALL
GAST_HUCK


@<TRIPOS>ATOM
      1 OAA       -41.3890    9.4860  -11.4250 O.co2     1 D1X        -0.5576
      2 OAB       -37.2970    9.3080   -7.3120 O.2       1 D1X        -0.4269
      3 OAC       -40.1540    7.6700  -11.1940 O.co2     1 D1X        -0.5576
      4 OAD       -37.8710   13.0240  -10.0860 O.3       1 D1X        -0.2820
      5 CAE       -39.0730   11.0060  -10.5050 C.2       1 D1X        -0.0034
      6 CAF       -38.7530    9.0970   -9.0500 C.2       1 D1X        -0.0165
      7 NAG       -37.5390   11.1520   -8.6340 N.am      1 D1X        -0.1900
      8 CAH       -40.3810    8.8830  -10.9930 C.2       1 D1X         0.0604
      9 CAI       -38.1600   11.7400   -9.7490 C.2       1 D1X         0.2265
     10 CAJ       -39.3700    9.6850  -10.1580 C.2       1 D1X        -0.0198
     11 CAK       -37.8410    9.8260   -8.2860 C.2       1 D1X         0.1876
     12 H1        -36.9424   13.1002  -10.2716 H         1 D1X         0.2664
     13 H2        -39.5557   11.4629  -11.3677 H         1 D1X         0.0249
     14 H3        -38.9848    8.0671   -8.7824 H         1 D1X         0.0307
     15 H4        -36.8840   11.6765   -8.0901 H         1 D1X         0.2570
@<TRIPOS>BOND
     1    8    1 ar 
     2   11    2 2  
     3    8    3 ar 
     4    9    4 1  
     5    5    9 2  
     6   10    5 1  
     7   10    6 2  
     8    6   11 1  
     9    9    7 1  
    10   11    7 am 
    11    8   10 1  
    12    4   12 1  
    13    5   13 1  
    14    6   14 1  
    15    7   15 1  
@<TRIPOS>SUBSTRUCTURE
     1 D1X         1

