### 
### Created by X-TOOL on Mon Sep 10 21:13:07 2018
### 

@<TRIPOS>MOLECULE
3n8n_ligand
   39    39     1     0     0
SMALL
GAST_HUCK


@<TRIPOS>ATOM
      1 C          -1.4720   33.7410   81.5030 C.2       1 N88         0.0765
      2 C1         -1.3220   34.8570   80.4840 C.3       1 N88         0.1150
      3 O1         -1.3670   34.0210   82.7230 O.co2     1 N88        -0.5451
      4 C2         -0.9230   34.2300   79.1320 C.3       1 N88         0.0096
      5 O2         -1.6910   32.5740   81.0880 O.co2     1 N88        -0.5451
      6 C3         -1.2010   35.1400   77.9280 C.3       1 N88         0.0856
      7 O3         -0.9830   34.4380   76.6930 O.3       1 N88        -0.3891
      8 C4         -2.6170   35.7420   77.9260 C.3       1 N88         0.1004
      9 O4         -2.5530   37.1230   77.5500 O.3       1 N88        -0.3866
     10 C5         -3.3400   35.6550   79.2560 C.3       1 N88         0.0790
     11 C6         -2.6140   35.6520   80.3940 C.3       1 N88         0.0032
     12 C13        -4.6920   35.5800   79.2850 C.2       1 N88         0.1821
     13 N14        -5.3310   35.5000   80.4710 N.am      1 N88        -0.2814
     14 C15        -6.6520   36.0300   80.8270 C.3       1 N88         0.0446
     15 C16        -7.6630   34.8770   80.8210 C.3       1 N88        -0.0396
     16 C17        -7.1360   37.1330   79.8850 C.3       1 N88        -0.0396
     17 C18        -6.5480   36.6070   82.2350 C.3       1 N88        -0.0396
     18 O19        -5.3170   35.5580   78.2230 O.2       1 N88        -0.3967
     19 O30        -0.3080   35.7780   80.9040 O.3       1 N88        -0.3846
     20 H          -1.5174   33.3256   79.0027 H         1 N88         0.0311
     21 H           0.1508   34.0451   79.1613 H         1 N88         0.0311
     22 H          -0.4970   35.9671   78.0191 H         1 N88         0.0620
     23 H          -0.0711   34.1409   76.6518 H         1 N88         0.2099
     24 H          -3.1831   35.1444   77.2116 H         1 N88         0.0647
     25 H          -3.4381   37.4948   77.5499 H         1 N88         0.2101
     26 H          -4.2028   35.6667   79.9220 H         1 N88         0.0564
     27 H          -2.2996   36.6887   80.5140 H         1 N88         0.0313
     28 H          -3.2689   35.1831   81.1284 H         1 N88         0.0313
     29 H          -4.8328   35.0092   81.2135 H         1 N88         0.1857
     30 H          -7.6981   34.4314   79.8269 H         1 N88         0.0254
     31 H          -7.3577   34.1240   81.5475 H         1 N88         0.0254
     32 H          -8.6493   35.2590   81.0843 H         1 N88         0.0254
     33 H          -6.4312   37.9642   79.9084 H         1 N88         0.0254
     34 H          -7.2022   36.7396   78.8706 H         1 N88         0.0254
     35 H          -8.1183   37.4787   80.2068 H         1 N88         0.0254
     36 H          -6.2528   35.8193   82.9282 H         1 N88         0.0254
     37 H          -5.8017   37.4014   82.2465 H         1 N88         0.0254
     38 H          -7.5154   37.0112   82.5330 H         1 N88         0.0254
     39 H          -0.5588   36.1665   81.7452 H         1 N88         0.2089
@<TRIPOS>BOND
     1    1    2 1  
     2    1    3 ar 
     3    1    5 ar 
     4    2    4 1  
     5    2   11 1  
     6    2   19 1  
     7    4    6 1  
     8    6    7 1  
     9    6    8 1  
    10    8    9 1  
    11    8   10 1  
    12   10   11 1  
    13   10   12 1  
    14   12   13 am 
    15   12   18 2  
    16   13   14 1  
    17   14   15 1  
    18   14   16 1  
    19   14   17 1  
    20    4   20 1  
    21    4   21 1  
    22    6   22 1  
    23    7   23 1  
    24    8   24 1  
    25    9   25 1  
    26   10   26 1  
    27   11   27 1  
    28   11   28 1  
    29   13   29 1  
    30   15   30 1  
    31   15   31 1  
    32   15   32 1  
    33   16   33 1  
    34   16   34 1  
    35   16   35 1  
    36   17   36 1  
    37   17   37 1  
    38   17   38 1  
    39   19   39 1  
@<TRIPOS>SUBSTRUCTURE
     1 N88         1

