### 
### Created by X-TOOL on Mon Sep 10 21:13:04 2018
### 

@<TRIPOS>MOLECULE
3nal_ligand
   96    98     1     0     0
SMALL
GAST_HUCK


@<TRIPOS>ATOM
      1 C1         -4.2690    9.1920   84.8900 C.3       1 DBK         0.0139
      2 C2         -4.0240    8.9180   83.4040 C.3       1 DBK        -0.0060
      3 C3         -2.5670    9.2780   83.0960 C.3       1 DBK         0.1029
      4 O3         -2.4670   10.4410   82.2580 O.3       1 DBK        -0.2703
      5 C4         -1.9510    9.6050   84.4540 C.2       1 DBK        -0.0564
      6 O4         -2.0830    8.8640   80.7240 O.2       1 DBK        -0.3692
      7 C5         -2.9180    9.6230   85.4480 C.2       1 DBK        -0.0449
      8 O5         -1.5650    9.1120   87.4160 O.3       1 DBK        -0.2615
      9 C6         -2.5700    9.9890   86.8870 C.3       1 DBK         0.1361
     10 O6         -4.1640    8.3670   87.7400 O.3       1 DBK        -0.3796
     11 C7         -3.7420    9.7290   87.8250 C.3       1 DBK         0.1680
     12 O7         -4.5210   12.0540   87.5350 O.3       1 DBK        -0.2704
     13 C8         -4.9230   10.6800   87.6300 C.3       1 DBK         0.1251
     14 O8         -5.4160   11.9770   89.5700 O.2       1 DBK        -0.3704
     15 C9         -5.8950   10.2770   86.5170 C.3       1 DBK         0.0158
     16 O9         -6.3700    9.8700   84.2030 O.3       1 DBK        -0.2688
     17 C10        -5.3310   10.2750   85.0930 C.3       1 DBK         0.1062
     18 O10        -7.4070   11.7730   84.7990 O.2       1 DBK        -0.3707
     19 C11        -2.9910    9.9320   89.1370 C.3       1 DBK         0.1892
     20 O11        -2.8010   11.3300   89.3670 O.3       1 DBK        -0.3810
     21 C12        -1.6580    9.2850   88.7630 C.2       1 DBK         0.2925
     22 O12        -0.8010    8.9140   89.5650 O.2       1 DBK        -0.3091
     23 C21        -2.2410   10.0580   80.9720 C.2       1 DBK         0.2458
     24 C22        -2.1060   11.0880   79.8460 C.2       1 DBK         0.0233
     25 C23        -2.1730   10.6140   78.3930 C.3       1 DBK        -0.0325
     26 C24        -1.8560   12.4270   80.1110 C.2       1 DBK        -0.0694
     27 C25        -1.6940   12.9230   81.5500 C.3       1 DBK        -0.0369
     28 C26        -0.4680    9.8930   84.6990 C.3       1 DBK        -0.0477
     29 C27        -4.8570   12.6570   88.7030 C.2       1 DBK         0.2341
     30 C28        -4.5560   14.1360   88.9510 C.3       1 DBK         0.0487
     31 C31        -4.8080   11.6580   84.7020 C.3       1 DBK        -0.0296
     32 C32        -7.4270   10.7330   84.1550 C.2       1 DBK         0.2313
     33 C33        -8.6490   10.3320   83.3330 C.3       1 DBK         0.0372
     34 C34        -3.6600    9.2270   90.3190 C.3       1 DBK        -0.0250
     35 C35        -3.0490   14.3980   88.9970 C.3       1 DBK        -0.0348
     36 C36        -2.7090   15.8610   89.2960 C.3       1 DBK        -0.0509
     37 C37        -1.1910   16.0530   89.2330 C.3       1 DBK        -0.0529
     38 C38        -0.7750   17.5010   89.4970 C.3       1 DBK        -0.0531
     39 C39        -1.2270   17.9350   90.8930 C.3       1 DBK        -0.0531
     40 C40        -0.8880   19.3960   91.1970 C.3       1 DBK        -0.0531
     41 C41         0.6170   19.6750   91.2450 C.3       1 DBK        -0.0531
     42 C42         0.8710   21.0370   91.8970 C.3       1 DBK        -0.0533
     43 C43         2.3600   21.3120   92.1150 C.3       1 DBK        -0.0559
     44 C44         2.5710   22.6210   92.8810 C.3       1 DBK        -0.0653
     45 H          -4.6523    8.3099   85.4030 H         1 DBK         0.0434
     46 H          -4.6993    9.5163   82.7923 H         1 DBK         0.0330
     47 H          -4.2109    7.8685   83.1767 H         1 DBK         0.0330
     48 H          -2.0721    8.4613   82.5705 H         1 DBK         0.0749
     49 H          -2.2659   11.0349   86.8453 H         1 DBK         0.0779
     50 H          -3.4358    7.7916   87.9855 H         1 DBK         0.2105
     51 H          -5.5005   10.5799   88.5490 H         1 DBK         0.0681
     52 H          -6.6930   11.0194   86.5268 H         1 DBK         0.0327
     53 H          -6.1901    9.2492   86.7285 H         1 DBK         0.0327
     54 H          -3.6558   11.7640   89.4168 H         1 DBK         0.2079
     55 H          -2.9700   11.1471   77.8746 H         1 DBK         0.0347
     56 H          -1.2207   10.8150   77.9023 H         1 DBK         0.0347
     57 H          -2.3759    9.5433   78.3704 H         1 DBK         0.0347
     58 H          -1.7741   13.1336   79.2851 H         1 DBK         0.0645
     59 H          -2.6068   12.7168   82.1090 H         1 DBK         0.0404
     60 H          -0.8554   12.4077   82.0183 H         1 DBK         0.0404
     61 H          -1.5049   13.9965   81.5438 H         1 DBK         0.0404
     62 H          -0.3564   10.8995   85.1022 H         1 DBK         0.0330
     63 H          -0.0714    9.1691   85.4108 H         1 DBK         0.0330
     64 H           0.0763    9.8148   83.7579 H         1 DBK         0.0330
     65 H          -4.9867   14.4211   89.9109 H         1 DBK         0.0518
     66 H          -4.9842   14.7183   88.1351 H         1 DBK         0.0518
     67 H          -5.6224   12.3807   84.7526 H         1 DBK         0.0262
     68 H          -4.0154   11.9531   85.3897 H         1 DBK         0.0262
     69 H          -4.4147   11.6224   83.6861 H         1 DBK         0.0262
     70 H          -9.5125   10.2362   83.9912 H         1 DBK         0.0483
     71 H          -8.8465   11.0963   82.5814 H         1 DBK         0.0483
     72 H          -8.4576    9.3781   82.8415 H         1 DBK         0.0483
     73 H          -4.6695    9.6169   90.4489 H         1 DBK         0.0244
     74 H          -3.7053    8.1557   90.1231 H         1 DBK         0.0244
     75 H          -3.0800    9.4079   91.2239 H         1 DBK         0.0244
     76 H          -2.6379   14.1535   88.0175 H         1 DBK         0.0291
     77 H          -2.6287   13.7878   89.7964 H         1 DBK         0.0291
     78 H          -3.0681   16.1222   90.2914 H         1 DBK         0.0267
     79 H          -3.1884   16.5044   88.5582 H         1 DBK         0.0267
     80 H          -0.8584   15.7840   88.2305 H         1 DBK         0.0265
     81 H          -0.7396   15.4268   90.0026 H         1 DBK         0.0265
     82 H          -1.2421   18.1474   88.7539 H         1 DBK         0.0265
     83 H           0.3105   17.5774   89.4338 H         1 DBK         0.0265
     84 H          -0.7070   17.3126   91.6213 H         1 DBK         0.0265
     85 H          -2.3104   17.8259   90.9426 H         1 DBK         0.0265
     86 H          -1.2967   19.6300   92.1800 H         1 DBK         0.0265
     87 H          -1.3091   20.0040   90.3963 H         1 DBK         0.0265
     88 H           1.0151   19.6811   90.2303 H         1 DBK         0.0265
     89 H           1.1093   18.8979   91.8297 H         1 DBK         0.0265
     90 H           0.3817   21.0406   92.8710 H         1 DBK         0.0265
     91 H           0.4802   21.8070   91.2318 H         1 DBK         0.0265
     92 H           2.8461   21.3939   91.1428 H         1 DBK         0.0263
     93 H           2.7847   20.4942   92.6972 H         1 DBK         0.0263
     94 H           2.1425   23.4463   92.3124 H         1 DBK         0.0230
     95 H           2.0816   22.5548   93.8527 H         1 DBK         0.0230
     96 H           3.6386   22.7904   93.0212 H         1 DBK         0.0230
@<TRIPOS>BOND
     1    1    2 1  
     2    1    7 1  
     3    1   17 1  
     4    2    3 1  
     5    3    4 1  
     6    3    5 1  
     7    4   23 1  
     8    5    7 2  
     9    5   28 1  
    10   23    6 2  
    11    7    9 1  
    12    9    8 1  
    13    8   21 1  
    14    9   11 1  
    15   11   10 1  
    16   11   13 1  
    17   11   19 1  
    18   13   12 1  
    19   12   29 1  
    20   13   15 1  
    21   29   14 2  
    22   15   17 1  
    23   17   16 1  
    24   16   32 1  
    25   17   31 1  
    26   32   18 2  
    27   19   20 1  
    28   19   21 1  
    29   19   34 1  
    30   21   22 2  
    31   23   24 1  
    32   24   25 1  
    33   24   26 2  
    34   26   27 1  
    35   29   30 1  
    36   30   35 1  
    37   32   33 1  
    38   35   36 1  
    39   36   37 1  
    40   37   38 1  
    41   38   39 1  
    42   39   40 1  
    43   40   41 1  
    44   41   42 1  
    45   42   43 1  
    46   43   44 1  
    47    1   45 1  
    48    2   46 1  
    49    2   47 1  
    50    3   48 1  
    51    9   49 1  
    52   10   50 1  
    53   13   51 1  
    54   15   52 1  
    55   15   53 1  
    56   20   54 1  
    57   25   55 1  
    58   25   56 1  
    59   25   57 1  
    60   26   58 1  
    61   27   59 1  
    62   27   60 1  
    63   27   61 1  
    64   28   62 1  
    65   28   63 1  
    66   28   64 1  
    67   30   65 1  
    68   30   66 1  
    69   31   67 1  
    70   31   68 1  
    71   31   69 1  
    72   33   70 1  
    73   33   71 1  
    74   33   72 1  
    75   34   73 1  
    76   34   74 1  
    77   34   75 1  
    78   35   76 1  
    79   35   77 1  
    80   36   78 1  
    81   36   79 1  
    82   37   80 1  
    83   37   81 1  
    84   38   82 1  
    85   38   83 1  
    86   39   84 1  
    87   39   85 1  
    88   40   86 1  
    89   40   87 1  
    90   41   88 1  
    91   41   89 1  
    92   42   90 1  
    93   42   91 1  
    94   43   92 1  
    95   43   93 1  
    96   44   94 1  
    97   44   95 1  
    98   44   96 1  
@<TRIPOS>SUBSTRUCTURE
     1 DBK         1

