### 
### Created by X-TOOL on Mon Sep 10 21:13:04 2018
### 

@<TRIPOS>MOLECULE
3nam_ligand
   74    76     1     0     0
SMALL
GAST_HUCK


@<TRIPOS>ATOM
      1 C1         -4.5780    9.4530   84.8220 C.3       1 OTK         0.0010
      2 C2         -4.1430    9.0760   83.4020 C.3       1 OTK        -0.0160
      3 C3         -2.8500    9.8570   83.1430 C.3       1 OTK         0.0891
      4 O3         -3.0390   10.9830   82.2760 O.3       1 OTK        -0.2778
      5 C4         -2.3950   10.3950   84.5020 C.3       1 OTK        -0.0074
      6 O4         -2.0190    9.6670   80.7820 O.2       1 OTK        -0.3694
      7 C5         -3.2040    9.5670   85.5000 C.3       1 OTK         0.0035
      8 O5         -2.0730    9.5990   87.6930 O.3       1 OTK        -0.2688
      9 C6         -3.1580   10.1380   86.9180 C.3       1 OTK         0.1234
     10 O6         -5.0250    8.6430   87.3520 O.3       1 OTK        -0.3810
     11 C7         -4.4210    9.8790   87.7440 C.3       1 OTK         0.1632
     12 O7         -4.6710   12.2830   87.2490 O.3       1 OTK        -0.2705
     13 C8         -5.3770   11.0460   87.4570 C.3       1 OTK         0.1237
     14 O8         -5.0230   12.7220   89.4300 O.2       1 OTK        -0.3704
     15 C9         -6.2700   10.7460   86.2460 C.3       1 OTK         0.0143
     16 O9         -6.5840   10.2470   83.9340 O.3       1 OTK        -0.2703
     17 C10        -5.5740   10.6160   84.8820 C.3       1 OTK         0.1015
     18 O10        -7.6710   12.1800   84.3300 O.2       1 OTK        -0.3707
     19 C11        -3.9200    9.7520   89.1910 C.3       1 OTK         0.1878
     20 O11        -4.4230   10.8050   90.0150 O.3       1 OTK        -0.3811
     21 C12        -2.4040    9.8720   88.9870 C.2       1 OTK         0.2909
     22 O12        -1.6060   10.2410   89.8430 O.2       1 OTK        -0.3093
     23 C21        -2.5220   10.7540   81.0280 C.2       1 OTK         0.2444
     24 C22        -2.5750   11.8260   79.9540 C.2       1 OTK         0.0232
     25 C23        -2.5580   11.4050   78.4970 C.3       1 OTK        -0.0325
     26 C24        -2.6400   13.2090   80.2620 C.2       1 OTK        -0.0694
     27 C25        -2.6640   13.7310   81.6840 C.3       1 OTK        -0.0369
     28 C26        -0.8910   10.1780   84.6920 C.3       1 OTK        -0.0594
     29 C27        -4.5000   13.0460   88.3650 C.2       1 OTK         0.2340
     30 C28        -3.6860   14.3380   88.2540 C.3       1 OTK         0.0485
     31 C29        -3.6740   15.1330   89.5630 C.3       1 OTK        -0.0376
     32 C30        -2.8360   16.4080   89.4350 C.3       1 OTK        -0.0631
     33 C31        -4.9440   11.9460   84.4530 C.3       1 OTK        -0.0310
     34 C32        -7.6210   11.1070   83.7310 C.2       1 OTK         0.2311
     35 C33        -8.7370   10.7080   82.7660 C.3       1 OTK         0.0372
     36 C34        -4.2760    8.3980   89.8100 C.3       1 OTK        -0.0252
     37 H          -5.2127    8.7475   85.3583 H         1 OTK         0.0337
     38 H          -4.9118    9.3265   82.6711 H         1 OTK         0.0297
     39 H          -3.9843    8.0018   83.3069 H         1 OTK         0.0297
     40 H          -2.1312    9.1922   82.6640 H         1 OTK         0.0649
     41 H          -2.5561   11.4669   84.6167 H         1 OTK         0.0330
     42 H          -2.8074    8.5712   85.6978 H         1 OTK         0.0337
     43 H          -3.0408   11.2073   86.7418 H         1 OTK         0.0680
     44 H          -5.8146    8.4933   87.8771 H         1 OTK         0.2103
     45 H          -6.0051   11.1597   88.3405 H         1 OTK         0.0680
     46 H          -6.9454   11.5968   86.1559 H         1 OTK         0.0326
     47 H          -6.7227    9.7743   86.4432 H         1 OTK         0.0326
     48 H          -4.1315   11.6502   89.6656 H         1 OTK         0.2079
     49 H          -3.4670   11.7556   78.0082 H         1 OTK         0.0347
     50 H          -1.6883   11.8400   78.0046 H         1 OTK         0.0347
     51 H          -2.5065   10.3180   78.4348 H         1 OTK         0.0347
     52 H          -2.6741   13.9259   79.4416 H         1 OTK         0.0645
     53 H          -3.5364   13.3319   82.2015 H         1 OTK         0.0404
     54 H          -1.7576   13.4157   82.2008 H         1 OTK         0.0404
     55 H          -2.7153   14.8197   81.6692 H         1 OTK         0.0404
     56 H          -0.6071   10.4749   85.7016 H         1 OTK         0.0233
     57 H          -0.6554    9.1244   84.5419 H         1 OTK         0.0233
     58 H          -0.3438   10.7808   83.9672 H         1 OTK         0.0233
     59 H          -4.1435   14.9604   87.4850 H         1 OTK         0.0518
     60 H          -2.6576   14.0696   88.0124 H         1 OTK         0.0518
     61 H          -3.2376   14.5089   90.3429 H         1 OTK         0.0288
     62 H          -4.6984   15.4152   89.8059 H         1 OTK         0.0288
     63 H          -1.8096   16.1427   89.1814 H         1 OTK         0.0231
     64 H          -3.2540   17.0388   88.6505 H         1 OTK         0.0231
     65 H          -2.8499   16.9470   90.3823 H         1 OTK         0.0231
     66 H          -5.7209   12.7067   84.3769 H         1 OTK         0.0261
     67 H          -4.2052   12.2522   85.1936 H         1 OTK         0.0261
     68 H          -4.4595   11.8214   83.4846 H         1 OTK         0.0261
     69 H          -9.6828   10.6612   83.3058 H         1 OTK         0.0483
     70 H          -8.8083   11.4481   81.9690 H         1 OTK         0.0483
     71 H          -8.5130    9.7311   82.3374 H         1 OTK         0.0483
     72 H          -5.3591    8.2754   89.8143 H         1 OTK         0.0244
     73 H          -3.8211    7.6005   89.2225 H         1 OTK         0.0244
     74 H          -3.9004    8.3574   90.8325 H         1 OTK         0.0244
@<TRIPOS>BOND
     1    1    2 1  
     2    1    7 1  
     3    1   17 1  
     4    2    3 1  
     5    3    4 1  
     6    3    5 1  
     7    4   23 1  
     8    5    7 1  
     9    5   28 1  
    10   23    6 2  
    11    7    9 1  
    12    9    8 1  
    13    8   21 1  
    14    9   11 1  
    15   11   10 1  
    16   11   13 1  
    17   11   19 1  
    18   13   12 1  
    19   12   29 1  
    20   13   15 1  
    21   29   14 2  
    22   15   17 1  
    23   17   16 1  
    24   16   34 1  
    25   17   33 1  
    26   34   18 2  
    27   19   20 1  
    28   19   21 1  
    29   19   36 1  
    30   21   22 2  
    31   23   24 1  
    32   24   25 1  
    33   24   26 2  
    34   26   27 1  
    35   29   30 1  
    36   30   31 1  
    37   31   32 1  
    38   34   35 1  
    39    1   37 1  
    40    2   38 1  
    41    2   39 1  
    42    3   40 1  
    43    5   41 1  
    44    7   42 1  
    45    9   43 1  
    46   10   44 1  
    47   13   45 1  
    48   15   46 1  
    49   15   47 1  
    50   20   48 1  
    51   25   49 1  
    52   25   50 1  
    53   25   51 1  
    54   26   52 1  
    55   27   53 1  
    56   27   54 1  
    57   27   55 1  
    58   28   56 1  
    59   28   57 1  
    60   28   58 1  
    61   30   59 1  
    62   30   60 1  
    63   31   61 1  
    64   31   62 1  
    65   32   63 1  
    66   32   64 1  
    67   32   65 1  
    68   33   66 1  
    69   33   67 1  
    70   33   68 1  
    71   35   69 1  
    72   35   70 1  
    73   35   71 1  
    74   36   72 1  
    75   36   73 1  
    76   36   74 1  
@<TRIPOS>SUBSTRUCTURE
     1 OTK         1

