### 
### Created by X-TOOL on Mon Sep 10 21:13:06 2018
### 

@<TRIPOS>MOLECULE
3nb5_ligand
   41    42     1     0     0
SMALL
GAST_HUCK


@<TRIPOS>ATOM
      1 CL         16.0750   14.0200   10.5570 Cl        1 R21        -0.0804
      2 OAA        13.9200    2.7940   16.7340 O.2       1 R21        -0.1514
      3 OAB        17.6320   16.2050   11.7850 O.3       1 R21        -0.3365
      4 CAC        18.2210   14.9840   11.8950 C.ar      1 R21         0.0952
      5 CAD        19.4460   14.8610   12.5400 C.ar      1 R21        -0.0386
      6 CAE        20.0590   13.6170   12.6370 C.ar      1 R21        -0.0661
      7 OAF        19.9430   10.6690   14.4990 O.2       1 R21        -0.3945
      8 CAG        15.6480    6.2280   14.7040 C.ar      1 R21        -0.0584
      9 CAH        15.1720    5.1820   15.4860 C.ar      1 R21        -0.0419
     10 CAI        16.0280    4.1560   15.8710 C.ar      1 R21         0.1009
     11 SAJ        15.4180    2.8090   16.8070 S.o2      1 R21         0.0628
     12 NAK        16.0170    1.4180   16.2050 N.am      1 R21        -0.2617
     13 CAL        17.6050   13.8620   11.3500 C.ar      1 R21         0.0617
     14 CAM        18.2190   12.6180   11.4470 C.ar      1 R21        -0.0524
     15 CAN        19.4470   12.4960   12.0880 C.ar      1 R21        -0.0344
     16 CAO        20.1550   11.1400   12.1450 C.3       1 R21         0.0654
     17 CAP        19.6700   10.3290   13.3480 C.2       1 R21         0.1859
     18 NAQ        18.9540    9.2520   13.0370 N.am      1 R21        -0.2836
     19 CAR        18.4060    8.3380   14.0510 C.3       1 R21         0.0405
     20 CAS        17.4780    7.3400   13.3550 C.3       1 R21         0.0011
     21 CAT        16.9790    6.2480   14.3040 C.ar      1 R21        -0.0410
     22 CAU        17.8380    5.2280   14.6980 C.ar      1 R21        -0.0584
     23 CAV        17.3620    4.1830   15.4810 C.ar      1 R21        -0.0419
     24 OAW        15.8550    2.9550   18.2350 O.2       1 R21        -0.1514
     25 H1         17.4727   16.5578   12.6525 H         1 R21         0.2463
     26 H2         19.9235   15.7352   12.9675 H         1 R21         0.0526
     27 H3         21.0141   13.5211   13.1407 H         1 R21         0.0537
     28 H4         14.9807    7.0286   14.4059 H         1 R21         0.0557
     29 H5         14.1333    5.1661   15.7958 H         1 R21         0.0619
     30 H6         17.0054    1.2682   16.1810 H         1 R21         0.1634
     31 H7         15.3961    0.7143   15.8596 H         1 R21         0.1634
     32 H8         17.7401   11.7430   11.0227 H         1 R21         0.0539
     33 H9         21.2395   11.3019   12.2319 H         1 R21         0.0638
     34 H10        19.9404   10.5811   11.2222 H         1 R21         0.0638
     35 H11        18.7807    9.0551   12.0720 H         1 R21         0.1854
     36 H12        17.8396    8.9112   14.7998 H         1 R21         0.0542
     37 H13        19.2266    7.7983   14.5462 H         1 R21         0.0542
     38 H14        18.0261    6.8656   12.5277 H         1 R21         0.0446
     39 H15        16.6098    7.8844   12.9552 H         1 R21         0.0446
     40 H16        18.8785    5.2479   14.3946 H         1 R21         0.0557
     41 H17        18.0319    3.3880   15.7880 H         1 R21         0.0619
@<TRIPOS>BOND
     1   13    1 1  
     2   11    2 2  
     3    4    3 1  
     4    5    4 ar 
     5   13    4 ar 
     6    6    5 ar 
     7   15    6 ar 
     8   17    7 2  
     9    8    9 ar 
    10   21    8 ar 
    11    9   10 ar 
    12   10   11 1  
    13   10   23 ar 
    14   11   12 am 
    15   11   24 2  
    16   14   13 ar 
    17   15   14 ar 
    18   16   15 1  
    19   17   16 1  
    20   18   17 am 
    21   19   18 1  
    22   20   19 1  
    23   20   21 1  
    24   21   22 ar 
    25   22   23 ar 
    26    3   25 1  
    27    5   26 1  
    28    6   27 1  
    29    8   28 1  
    30    9   29 1  
    31   12   30 1  
    32   12   31 1  
    33   14   32 1  
    34   16   33 1  
    35   16   34 1  
    36   18   35 1  
    37   19   36 1  
    38   19   37 1  
    39   20   38 1  
    40   20   39 1  
    41   22   40 1  
    42   23   41 1  
@<TRIPOS>SUBSTRUCTURE
     1 R21         1

