### 
### Created by X-TOOL on Mon Sep 10 21:13:06 2018
### 

@<TRIPOS>MOLECULE
3nc4_ligand
   43    44     1     0     0
SMALL
GAST_HUCK


@<TRIPOS>ATOM
      1 C1         33.4640   22.8070   27.8490 C.3       1 26O         0.1785
      2 C2         33.8170   23.0800   26.3820 C.3       1 26O         0.1330
      3 O2         34.0110   24.4760   26.1600 O.3       1 26O        -0.3842
      4 C3         32.6990   22.5210   25.4850 C.3       1 26O         0.1140
      5 O3         33.0320   22.6650   24.1010 O.3       1 26O        -0.3864
      6 C4         32.4340   21.0410   25.7940 C.3       1 26O         0.1119
      7 O4         31.2660   20.6220   25.0870 O.3       1 26O        -0.3865
      8 C5         32.2410   20.8310   27.3040 C.3       1 26O         0.1130
      9 O5         33.3590   21.3850   28.0090 O.3       1 26O        -0.3416
     10 C6         32.0780   19.3720   27.7270 C.3       1 26O         0.0730
     11 O6         33.1730   18.5820   27.2390 O.3       1 26O        -0.3924
     12 NAL        34.5500   23.2690   28.7160 N.am      1 26O        -0.2524
     13 CAM        34.3470   23.9480   29.8570 C.2       1 26O         0.1993
     14 NAN        35.4190   24.2960   30.5710 N.2       1 26O        -0.1036
     15 SAO        32.7870   24.3730   30.3890 S.2       1 26O        -0.2042
     16 NAP        35.3300   24.9270   31.6370 N.2       1 26O        -0.1665
     17 CAQ        36.3820   25.2240   32.2800 C.3       1 26O         0.0948
     18 CAR        36.3840   25.9870   33.5590 C.ar      1 26O         0.0095
     19 CAS        35.2130   26.4440   34.1880 C.ar      1 26O         0.0911
     20 CAT        35.3210   27.1730   35.3740 C.ar      1 26O        -0.0398
     21 CAU        36.5660   27.4330   35.9450 C.ar      1 26O        -0.0776
     22 CAV        37.7280   26.9880   35.3150 C.ar      1 26O        -0.0797
     23 CAW        37.6330   26.2690   34.1280 C.ar      1 26O        -0.0669
     24 OAX        33.9530   26.2090   33.6810 O.3       1 26O        -0.3368
     25 H1         32.5199   23.3040   28.1168 H         1 26O         0.0925
     26 H2         34.7550   22.5584   26.1410 H         1 26O         0.0670
     27 H3         33.2129   24.9438   26.3760 H         1 26O         0.2101
     28 H4         31.7795   23.0906   25.6852 H         1 26O         0.0648
     29 H5         33.1533   23.5855   23.8997 H         1 26O         0.2100
     30 H6         33.2942   20.4432   25.4585 H         1 26O         0.0647
     31 H7         30.5240   21.1462   25.3647 H         1 26O         0.2100
     32 H8         31.3302   21.3712   27.6015 H         1 26O         0.0647
     33 H9         31.1365   18.9788   27.3159 H         1 26O         0.0584
     34 H10        32.0511   19.3142   28.8251 H         1 26O         0.0584
     35 H11        33.9875   18.9179   27.5944 H         1 26O         0.2095
     36 H12        35.4914   23.0686   28.4445 H         1 26O         0.2021
     37 H13        37.0038   25.8058   31.5838 H         1 26O         0.0672
     38 H14        36.8771   24.2671   32.5019 H         1 26O         0.0672
     39 H15        34.4239   27.5421   35.8577 H         1 26O         0.0521
     40 H16        36.6309   27.9808   36.8782 H         1 26O         0.0531
     41 H17        38.6989   27.2011   35.7475 H         1 26O         0.0505
     42 H18        38.5356   25.9229   33.6376 H         1 26O         0.0526
     43 H19        34.0246   25.7063   32.8781 H         1 26O         0.2456
@<TRIPOS>BOND
     1    1    2 1  
     2    1    9 1  
     3    1   12 1  
     4    2    3 1  
     5    2    4 1  
     6    4    5 1  
     7    4    6 1  
     8    6    7 1  
     9    6    8 1  
    10    8    9 1  
    11    8   10 1  
    12   10   11 1  
    13   12   13 am 
    14   13   14 1  
    15   13   15 2  
    16   14   16 2  
    17   16   17 1  
    18   17   18 1  
    19   18   19 ar 
    20   18   23 ar 
    21   19   20 ar 
    22   19   24 1  
    23   20   21 ar 
    24   21   22 ar 
    25   22   23 ar 
    26    1   25 1  
    27    2   26 1  
    28    3   27 1  
    29    4   28 1  
    30    5   29 1  
    31    6   30 1  
    32    7   31 1  
    33    8   32 1  
    34   10   33 1  
    35   10   34 1  
    36   11   35 1  
    37   12   36 1  
    38   17   37 1  
    39   17   38 1  
    40   20   39 1  
    41   21   40 1  
    42   22   41 1  
    43   23   42 1  
    44   24   43 1  
@<TRIPOS>SUBSTRUCTURE
     1 26O         1

