### 
### Created by X-TOOL on Mon Sep 10 21:13:04 2018
### 

@<TRIPOS>MOLECULE
3nc9_ligand
   49    52     1     0     0
SMALL
GAST_HUCK


@<TRIPOS>ATOM
      1 C1         -5.2210    2.6290   17.3980 C.ar      1 TR3        -0.0465
      2 C2         -4.2420    1.9840   16.6360 C.ar      1 TR3        -0.0698
      3 C3         -3.8100    0.6940   16.9960 C.ar      1 TR3         0.0173
      4 C4         -4.3880    0.0570   18.1230 C.ar      1 TR3         0.0910
      5 C5         -5.3730    0.6870   18.8890 C.ar      1 TR3        -0.0144
      6 C6         -5.7770    1.9850   18.5210 C.ar      1 TR3         0.0599
      7 N10        -2.8510   -1.3500   17.1980 N.2       1 TR3        -0.2002
      8 N11        -3.7550   -1.1810   18.1900 N.pl3     1 TR3        -0.1717
      9 C12        -2.8800   -0.2490   16.5010 C.2       1 TR3         0.0861
     10 C13        -4.6750   -4.2750   20.9380 C.ar      1 TR3        -0.0710
     11 C14        -4.4320   -4.5670   19.5860 C.ar      1 TR3        -0.0685
     12 C15        -4.1200   -3.5440   18.6730 C.ar      1 TR3        -0.0303
     13 C16        -4.0050   -2.2160   19.1130 C.ar      1 TR3         0.0988
     14 C17        -4.3070   -1.9140   20.4560 C.ar      1 TR3        -0.0303
     15 C18        -4.6040   -2.9410   21.3750 C.ar      1 TR3        -0.0685
     16 S24        -1.9360   -0.0290   15.0420 S.3       1 TR3        -0.0975
     17 C25        -3.1690   -0.2120   13.7290 C.3       1 TR3        -0.0046
     18 C26        -7.6100    2.1360   20.1250 C.2       1 TR3         0.2075
     19 N27        -6.8200    2.6540   19.1810 N.am      1 TR3        -0.2352
     20 O28        -7.5590    0.9770   20.5700 O.2       1 TR3        -0.3842
     21 C30       -10.4130    3.5850   22.3130 C.3       1 TR3        -0.0313
     22 C31        -9.1560    2.7730   21.9850 C.3       1 TR3         0.0078
     23 C32        -8.7680    3.0430   20.5160 C.3       1 TR3         0.0643
     24 C33        -9.9600    2.8380   19.5490 C.3       1 TR3         0.0078
     25 C34       -11.1700    3.6640   20.0110 C.3       1 TR3        -0.0313
     26 N35       -11.4990    3.2530   21.3790 N.4       1 TR3         0.2272
     27 H1         -5.5521    3.6244   17.1248 H         1 TR3         0.0458
     28 H2         -3.8165    2.4769   15.7693 H         1 TR3         0.0581
     29 H3         -5.8147    0.1891   19.7446 H         1 TR3         0.0417
     30 H4         -4.9145   -5.0689   21.6362 H         1 TR3         0.0538
     31 H5         -4.4856   -5.5936   19.2420 H         1 TR3         0.0593
     32 H6         -3.9679   -3.7816   17.6264 H         1 TR3         0.0563
     33 H7         -4.3110   -0.8814   20.7858 H         1 TR3         0.0563
     34 H8         -4.7775   -2.7020   22.4180 H         1 TR3         0.0593
     35 H9         -2.6826   -0.0913   12.7498 H         1 TR3         0.0365
     36 H10        -3.9483    0.5551   13.8483 H         1 TR3         0.0365
     37 H11        -3.6252   -1.2110   13.7910 H         1 TR3         0.0365
     38 H12        -6.9865    3.6050   18.9205 H         1 TR3         0.2263
     39 H13       -10.1822    4.6575   22.2331 H         1 TR3         0.0815
     40 H14       -10.7352    3.3547   23.3392 H         1 TR3         0.0815
     41 H15        -9.3600    1.7010   22.1238 H         1 TR3         0.0344
     42 H16        -8.3333    3.0786   22.6482 H         1 TR3         0.0344
     43 H17        -8.4382    4.0891   20.4337 H         1 TR3         0.0547
     44 H18       -10.2335    1.7727   19.5310 H         1 TR3         0.0344
     45 H19        -9.6666    3.1584   18.5384 H         1 TR3         0.0344
     46 H20       -12.0269    3.4752   19.3476 H         1 TR3         0.0815
     47 H21       -10.9207    4.7352   19.9922 H         1 TR3         0.0815
     48 H22       -12.3394    3.7269   21.6709 H         1 TR3         0.2013
     49 H23       -11.6523    2.2569   21.3945 H         1 TR3         0.2013
@<TRIPOS>BOND
     1    1    2 ar 
     2    6    1 ar 
     3    2    3 ar 
     4    4    3 ar 
     5    3    9 1  
     6    5    4 ar 
     7    4    8 1  
     8    6    5 ar 
     9   19    6 1  
    10    8    7 1  
    11    7    9 2  
    12    8   13 1  
    13    9   16 1  
    14   11   10 ar 
    15   15   10 ar 
    16   12   11 ar 
    17   13   12 ar 
    18   13   14 ar 
    19   14   15 ar 
    20   16   17 1  
    21   18   19 am 
    22   18   20 2  
    23   23   18 1  
    24   22   21 1  
    25   21   26 1  
    26   22   23 1  
    27   23   24 1  
    28   24   25 1  
    29   25   26 1  
    30    1   27 1  
    31    2   28 1  
    32    5   29 1  
    33   10   30 1  
    34   11   31 1  
    35   12   32 1  
    36   14   33 1  
    37   15   34 1  
    38   17   35 1  
    39   17   36 1  
    40   17   37 1  
    41   19   38 1  
    42   21   39 1  
    43   21   40 1  
    44   22   41 1  
    45   22   42 1  
    46   23   43 1  
    47   24   44 1  
    48   24   45 1  
    49   25   46 1  
    50   25   47 1  
    51   26   48 1  
    52   26   49 1  
@<TRIPOS>SUBSTRUCTURE
     1 TR3         1

