### 
### Created by X-TOOL on Mon Sep 10 21:13:04 2018
### 

@<TRIPOS>MOLECULE
3ncg_ligand
   43    46     1     0     0
SMALL
GAST_HUCK


@<TRIPOS>ATOM
      1 N1         27.4900    6.2330    6.7040 N.ar      1 BK1        -0.2661
      2 C2         27.5290    5.5080    5.6050 C.ar      1 BK1         0.0558
      3 N3         26.8960    5.8890    4.5020 N.ar      1 BK1        -0.2691
      4 C4         26.2050    7.0290    4.4620 C.ar      1 BK1         0.1583
      5 C5         26.1310    7.8350    5.5930 C.ar      1 BK1         0.0863
      6 C6         26.8110    7.3920    6.7410 C.ar      1 BK1         0.1272
      7 CAA        25.3780    8.2410    1.1400 C.3       1 BK1        -0.0345
      8 CAB        23.8240    6.5960    2.1180 C.3       1 BK1        -0.0345
      9 NAC        26.8150    8.0450    7.8830 N.pl3     1 BK1        -0.3122
     10 CAD        24.6340   15.0870    7.3330 C.ar      1 BK1        -0.0629
     11 CAE        23.7120   14.1010    7.0390 C.ar      1 BK1        -0.0625
     12 CAF        28.1960   11.9340    6.4940 C.ar      1 BK1        -0.0704
     13 CAG        27.2540   10.9530    6.2000 C.ar      1 BK1        -0.0589
     14 CAH        25.9840   14.7720    7.2730 C.ar      1 BK1        -0.0569
     15 CAI        27.7850   13.2100    6.8610 C.ar      1 BK1        -0.0629
     16 CAJ        24.1390   12.8280    6.6720 C.ar      1 BK1        -0.0547
     17 CAL        24.8320   10.1590    5.9370 C.3       1 BK1         0.0257
     18 NAO        25.0050    8.6770    3.9250 N.2       1 BK1        -0.2103
     19 CAQ        25.8900   11.2400    6.2590 C.ar      1 BK1        -0.0212
     20 CAR        25.3360    8.9140    5.1910 C.2       1 BK1         0.0551
     21 CAS        26.4250   13.4970    6.9170 C.ar      1 BK1        -0.0240
     22 CAT        25.4960   12.5230    6.6090 C.ar      1 BK1        -0.0105
     23 CAW        25.2760    7.1110    2.1540 C.3       1 BK1         0.0716
     24 NAX        25.5120    7.6260    3.5130 N.pl3     1 BK1        -0.1918
     25 H          28.0930    4.5753    5.6011 H         1 BK1         0.1029
     26 H          25.1296    7.8615    0.1488 H         1 BK1         0.0259
     27 H          24.6822    9.0349    1.4114 H         1 BK1         0.0259
     28 H          26.3950    8.6332    1.1360 H         1 BK1         0.0259
     29 H          23.7018    5.8054    2.8584 H         1 BK1         0.0259
     30 H          23.1431    7.4164    2.3449 H         1 BK1         0.0259
     31 H          23.6037    6.2032    1.1254 H         1 BK1         0.0259
     32 H          26.3052    8.9242    7.9696 H         1 BK1         0.1845
     33 H          27.3279    7.6721    8.6819 H         1 BK1         0.1845
     34 H          24.3080   16.0906    7.6062 H         1 BK1         0.0616
     35 H          22.6458   14.3208    7.0947 H         1 BK1         0.0601
     36 H          29.2593   11.7011    6.4363 H         1 BK1         0.0595
     37 H          27.5844    9.9523    5.9214 H         1 BK1         0.0534
     38 H          26.7193   15.5408    7.5102 H         1 BK1         0.0609
     39 H          28.5204   13.9775    7.1023 H         1 BK1         0.0544
     40 H          23.4027   12.0612    6.4312 H         1 BK1         0.0628
     41 H          24.1041   10.6333    5.2788 H         1 BK1         0.0596
     42 H          24.4566    9.8060    6.8975 H         1 BK1         0.0596
     43 H          26.0057    6.3371    1.9159 H         1 BK1         0.0646
@<TRIPOS>BOND
     1    2    1 ar 
     2    6    1 ar 
     3    3    2 ar 
     4    4    3 ar 
     5    4    5 ar 
     6   24    4 1  
     7    5    6 ar 
     8   20    5 1  
     9    6    9 1  
    10   23    7 1  
    11   23    8 1  
    12   11   10 ar 
    13   14   10 ar 
    14   16   11 ar 
    15   13   12 ar 
    16   12   15 ar 
    17   19   13 ar 
    18   21   14 ar 
    19   21   15 ar 
    20   22   16 ar 
    21   17   19 1  
    22   20   17 1  
    23   18   20 2  
    24   24   18 1  
    25   19   22 ar 
    26   22   21 ar 
    27   23   24 1  
    28    2   25 1  
    29    7   26 1  
    30    7   27 1  
    31    7   28 1  
    32    8   29 1  
    33    8   30 1  
    34    8   31 1  
    35    9   32 1  
    36    9   33 1  
    37   10   34 1  
    38   11   35 1  
    39   12   36 1  
    40   13   37 1  
    41   14   38 1  
    42   15   39 1  
    43   16   40 1  
    44   17   41 1  
    45   17   42 1  
    46   23   43 1  
@<TRIPOS>SUBSTRUCTURE
     1 BK1         1

