### 
### Created by X-TOOL on Mon Sep 10 21:13:04 2018
### 

@<TRIPOS>MOLECULE
3ncz_ligand
   41    43     1     0     0
SMALL
GAST_HUCK


@<TRIPOS>ATOM
      1 C1        -14.7170   -4.0320   42.3610 C.3       1 3NC         0.0552
      2 C2        -15.3240   -5.2590   41.7080 C.3       1 3NC        -0.0276
      3 C3        -15.7550   -6.2170   42.8110 C.3       1 3NC        -0.0074
      4 C4        -16.8890   -5.5840   43.6070 C.3       1 3NC        -0.0241
      5 C5        -16.3180   -4.3670   44.3020 C.3       1 3NC        -0.0074
      6 C6        -15.7740   -3.3940   43.2620 C.3       1 3NC        -0.0276
      7 C7        -12.6520    1.2200   39.0810 C.ar      1 3NC         0.0340
      8 C8        -13.9360    0.6330   39.0580 C.ar      1 3NC        -0.0492
      9 C9        -14.9430    1.1750   38.1390 C.2       1 3NC        -0.0520
     10 C10       -14.6330    2.2090   37.3450 C.2       1 3NC         0.0487
     11 N11       -13.4050    2.7990   37.3610 N.am      1 3NC        -0.2266
     12 C12       -12.4230    2.3570   38.1740 C.2       1 3NC         0.2170
     13 C13       -11.6760    0.7210   39.9480 C.ar      1 3NC        -0.0492
     14 C14       -11.9720   -0.3330   40.7730 C.ar      1 3NC         0.0565
     15 C15       -13.2350   -0.9410   40.7430 C.ar      1 3NC         0.0743
     16 C16       -14.2140   -0.4390   39.9030 C.ar      1 3NC        -0.0453
     17 O17       -11.3410    2.9090   38.1430 O.2       1 3NC        -0.3988
     18 CL18      -10.7740   -0.9750   41.8670 Cl        1 3NC        -0.0879
     19 N19       -13.5670   -1.9960   41.6150 N.am      1 3NC        -0.2325
     20 C20       -14.3840   -3.0150   41.3060 C.2       1 3NC         0.2081
     21 O21       -14.8400   -3.1230   40.1950 O.2       1 3NC        -0.3838
     22 N22       -17.9400   -5.1610   42.6850 N.4       1 3NC         0.2207
     23 H         -13.8261   -4.3240   42.9170 H         1 3NC         0.0544
     24 H         -14.5929   -5.7391   41.0575 H         1 3NC         0.0294
     25 H         -16.1829   -4.9751   41.0999 H         1 3NC         0.0294
     26 H         -14.9117   -6.4185   43.4715 H         1 3NC         0.0321
     27 H         -16.0953   -7.1540   42.3702 H         1 3NC         0.0321
     28 H         -17.3063   -6.2875   44.3274 H         1 3NC         0.0850
     29 H         -15.5115   -4.6746   44.9677 H         1 3NC         0.0321
     30 H         -17.1021   -3.8785   44.8805 H         1 3NC         0.0321
     31 H         -16.6047   -3.0751   42.6325 H         1 3NC         0.0294
     32 H         -15.3081   -2.5623   43.7905 H         1 3NC         0.0294
     33 H         -15.9408    0.7377   38.1022 H         1 3NC         0.0280
     34 H         -15.3908    2.5920   36.6615 H         1 3NC         0.1141
     35 H         -13.2241    3.5918   36.7452 H         1 3NC         0.2483
     36 H         -10.6823    1.1686   39.9681 H         1 3NC         0.0615
     37 H         -15.2085   -0.8852   39.9027 H         1 3NC         0.0406
     38 H         -13.1569   -1.9848   42.5489 H         1 3NC         0.2276
     39 H         -18.3274   -5.9789   42.2145 H         1 3NC         0.1997
     40 H         -18.6771   -4.6863   43.2063 H         1 3NC         0.1997
     41 H         -17.5469   -4.5235   41.9926 H         1 3NC         0.1997
@<TRIPOS>BOND
     1    1    2 1  
     2    1    6 1  
     3   20    1 1  
     4    2    3 1  
     5    3    4 1  
     6    5    4 1  
     7    4   22 1  
     8    6    5 1  
     9    8    7 ar 
    10    7   12 1  
    11   13    7 ar 
    12    8    9 1  
    13   16    8 ar 
    14    9   10 2  
    15   10   11 1  
    16   12   11 am 
    17   12   17 2  
    18   14   13 ar 
    19   15   14 ar 
    20   14   18 1  
    21   15   16 ar 
    22   19   15 1  
    23   19   20 am 
    24   20   21 2  
    25    1   23 1  
    26    2   24 1  
    27    2   25 1  
    28    3   26 1  
    29    3   27 1  
    30    4   28 1  
    31    5   29 1  
    32    5   30 1  
    33    6   31 1  
    34    6   32 1  
    35    9   33 1  
    36   10   34 1  
    37   11   35 1  
    38   13   36 1  
    39   16   37 1  
    40   19   38 1  
    41   22   39 1  
    42   22   40 1  
    43   22   41 1  
@<TRIPOS>SUBSTRUCTURE
     1 3NC         1

