### 
### Created by X-TOOL on Mon Sep 10 21:13:04 2018
### 

@<TRIPOS>MOLECULE
3ndm_ligand
   45    48     1     0     0
SMALL
GAST_HUCK


@<TRIPOS>ATOM
      1 C1        -68.4750   -4.5960   39.3650 C.2       1 3ND         0.0360
      2 N2        -69.6240   -5.3030   39.5450 N.2       1 3ND        -0.2521
      3 C3        -70.5450   -4.9050   40.4300 C.2       1 3ND         0.1764
      4 C4        -68.2030   -3.4780   40.0580 C.3       1 3ND         0.0472
      5 C5        -69.1500   -2.9660   41.0440 C.ar      1 3ND        -0.0126
      6 C6        -70.3380   -3.6920   41.2270 C.ar      1 3ND         0.0318
      7 C7        -71.2710   -3.2440   42.1600 C.ar      1 3ND        -0.0463
      8 C8        -71.0130   -2.1120   42.8670 C.ar      1 3ND         0.0601
      9 C9        -69.8600   -1.3600   42.7080 C.ar      1 3ND         0.0806
     10 C10       -68.9160   -1.8040   41.7870 C.ar      1 3ND        -0.0289
     11 N11       -69.7050   -0.2160   43.5290 N.am      1 3ND        -0.2304
     12 C12       -68.7190   -0.1130   44.4850 C.2       1 3ND         0.2164
     13 C13       -68.5990    1.1430   45.3560 C.3       1 3ND         0.1118
     14 C14       -68.2770    0.8930   46.8630 C.3       1 3ND        -0.0107
     15 N15       -69.2570    1.6650   47.6910 N.4       1 3ND         0.2308
     16 C16       -69.8640    2.6510   46.7510 C.3       1 3ND        -0.0184
     17 C17       -69.9140    1.9190   45.4020 C.3       1 3ND         0.0579
     18 C18       -69.7330    2.8440   44.2640 C.ar      1 3ND        -0.0319
     19 C19       -68.4910    3.4280   44.0670 C.ar      1 3ND        -0.0591
     20 C20       -68.2900    4.2770   42.9970 C.ar      1 3ND        -0.0546
     21 C21       -69.3450    4.5190   42.1290 C.ar      1 3ND         0.0330
     22 C22       -70.5900    3.9210   42.3230 C.ar      1 3ND        -0.0546
     23 C23       -70.7920    3.0620   43.4050 C.ar      1 3ND        -0.0591
     24 CL24      -69.1340    5.5780   40.7840 Cl        1 3ND        -0.0771
     25 O25       -71.5510   -5.5640   40.5540 O.2       1 3ND        -0.3868
     26 CL26      -72.1590   -1.5850   44.0160 Cl        1 3ND        -0.0859
     27 O27       -67.8930   -1.0130   44.6450 O.2       1 3ND        -0.3830
     28 H         -67.7496   -4.9497   38.6323 H         1 3ND         0.1323
     29 H         -68.1584   -2.6969   39.2990 H         1 3ND         0.0751
     30 H         -67.3198   -3.7341   40.6431 H         1 3ND         0.0751
     31 H         -72.1975   -3.7952   42.3211 H         1 3ND         0.0624
     32 H         -67.9914   -1.2447   41.6441 H         1 3ND         0.0458
     33 H         -70.3507    0.5641   43.4070 H         1 3ND         0.2285
     34 H         -67.7759    1.6724   44.8761 H         1 3ND         0.0625
     35 H         -67.2614    1.2199   47.0863 H         1 3ND         0.0844
     36 H         -68.3543   -0.1705   47.0891 H         1 3ND         0.0844
     37 H         -68.8047    2.1249   48.4812 H         1 3ND         0.2017
     38 H         -69.9617    1.0567   48.1078 H         1 3ND         0.2017
     39 H         -69.2829    3.5714   46.6942 H         1 3ND         0.0842
     40 H         -70.8533    2.9708   47.0783 H         1 3ND         0.0842
     41 H         -70.8526    1.3696   45.3297 H         1 3ND         0.0544
     42 H         -67.6737    3.2169   44.7566 H         1 3ND         0.0557
     43 H         -67.3203    4.7485   42.8371 H         1 3ND         0.0606
     44 H         -71.4059    4.1244   41.6294 H         1 3ND         0.0606
     45 H         -71.7555    2.5786   43.5666 H         1 3ND         0.0557
@<TRIPOS>BOND
     1    1    2 2  
     2    1    4 1  
     3    2    3 1  
     4    3    6 1  
     5    3   25 2  
     6    4    5 1  
     7    5    6 ar 
     8    5   10 ar 
     9    6    7 ar 
    10    7    8 ar 
    11    8    9 ar 
    12    8   26 1  
    13    9   10 ar 
    14    9   11 1  
    15   11   12 am 
    16   12   13 1  
    17   12   27 2  
    18   13   14 1  
    19   13   17 1  
    20   14   15 1  
    21   15   16 1  
    22   16   17 1  
    23   17   18 1  
    24   18   19 ar 
    25   18   23 ar 
    26   19   20 ar 
    27   20   21 ar 
    28   21   22 ar 
    29   21   24 1  
    30   22   23 ar 
    31    1   28 1  
    32    4   29 1  
    33    4   30 1  
    34    7   31 1  
    35   10   32 1  
    36   11   33 1  
    37   13   34 1  
    38   14   35 1  
    39   14   36 1  
    40   15   37 1  
    41   15   38 1  
    42   16   39 1  
    43   16   40 1  
    44   17   41 1  
    45   19   42 1  
    46   20   43 1  
    47   22   44 1  
    48   23   45 1  
@<TRIPOS>SUBSTRUCTURE
     1 3ND         1

