### 
### Created by X-TOOL on Mon Sep 10 21:13:03 2018
### 

@<TRIPOS>MOLECULE
3nee_ligand
   47    48     1     0     0
SMALL
GAST_HUCK


@<TRIPOS>ATOM
      1 O1        -19.5200   -2.2660    2.3740 O.co2     1 B72        -0.5663
      2 C20       -20.7120   -1.9000    2.5000 C.2       1 B72         0.0651
      3 O2        -21.6530   -2.6440    2.8460 O.co2     1 B72        -0.5663
      4 C19       -21.0670   -0.4490    2.1990 C.3       1 B72         0.1209
      5 O3        -22.3370   -0.4600    1.4950 O.3       1 B72        -0.3115
      6 C1        -22.0600   -0.2040    0.1910 C.ar      1 B72         0.0737
      7 C2        -21.0090   -0.8810   -0.4040 C.ar      1 B72        -0.0449
      8 C3        -20.6870   -0.6420   -1.7310 C.ar      1 B72        -0.0571
      9 C17       -19.5180   -1.4060   -2.3690 C.3       1 B72        -0.0373
     10 C4        -21.4130    0.2700   -2.4940 C.ar      1 B72        -0.0412
     11 C5        -22.4630    0.9580   -1.8760 C.ar      1 B72        -0.0571
     12 C6        -22.7920    0.7230   -0.5420 C.ar      1 B72        -0.0449
     13 C18       -23.2740    1.9780   -2.6880 C.3       1 B72        -0.0373
     14 C7        -21.0040    0.5230   -3.9540 C.3       1 B72        -0.0025
     15 C8        -21.7990   -0.2540   -5.0080 C.ar      1 B72        -0.0533
     16 C13       -21.6730    0.1520   -6.3340 C.ar      1 B72        -0.0654
     17 C12       -22.3560   -0.5080   -7.3490 C.ar      1 B72        -0.0176
     18 C14       -22.2150   -0.0510   -8.8110 C.3       1 B72        -0.0163
     19 C16       -22.0950    1.4690   -8.8360 C.3       1 B72        -0.0545
     20 C15       -20.9600   -0.6650   -9.4240 C.3       1 B72        -0.0545
     21 C11       -23.1700   -1.5840   -7.0200 C.ar      1 B72         0.0825
     22 O4        -23.8520   -2.2220   -8.0000 O.3       1 B72        -0.3413
     23 C10       -23.2990   -1.9930   -5.6960 C.ar      1 B72        -0.0461
     24 C9        -22.6130   -1.3360   -4.6800 C.ar      1 B72        -0.0744
     25 H1        -20.2896    0.0072    1.5685 H         1 B72         0.0782
     26 H2        -21.1595    0.1195    3.1361 H         1 B72         0.0782
     27 H3        -20.4360   -1.6004    0.1698 H         1 B72         0.0408
     28 H4        -19.0667   -2.0758   -1.6222 H         1 B72         0.0374
     29 H5        -18.7620   -0.6900   -2.7237 H         1 B72         0.0374
     30 H6        -19.8877   -1.9996   -3.2180 H         1 B72         0.0374
     31 H7        -23.6127    1.2592   -0.0795 H         1 B72         0.0408
     32 H8        -22.8754    2.0317   -3.7119 H         1 B72         0.0374
     33 H9        -23.1993    2.9674   -2.2131 H         1 B72         0.0374
     34 H10       -24.3282    1.6656   -2.7209 H         1 B72         0.0374
     35 H11       -19.9438    0.2501   -4.0607 H         1 B72         0.0514
     36 H12       -21.1288    1.5964   -4.1593 H         1 B72         0.0514
     37 H13       -21.0343    0.9933   -6.5778 H         1 B72         0.0469
     38 H14       -23.0986   -0.3655   -9.3857 H         1 B72         0.0432
     39 H15       -21.9933    1.8117   -9.8763 H         1 B72         0.0252
     40 H16       -21.2094    1.7764   -8.2605 H         1 B72         0.0252
     41 H17       -22.9957    1.9153   -8.3894 H         1 B72         0.0252
     42 H18       -21.0429   -1.7618   -9.4077 H         1 B72         0.0252
     43 H19       -20.0789   -0.3553   -8.8429 H         1 B72         0.0252
     44 H20       -20.8534   -0.3208  -10.4633 H         1 B72         0.0252
     45 H21       -24.3600   -2.9299   -7.6215 H         1 B72         0.2434
     46 H22       -23.9408   -2.8324   -5.4541 H         1 B72         0.0505
     47 H23       -22.7101   -1.6604   -3.6502 H         1 B72         0.0474
@<TRIPOS>BOND
     1    1    2 ar 
     2    2    3 ar 
     3    2    4 1  
     4    4    5 1  
     5    5    6 1  
     6    6    7 ar 
     7    6   12 ar 
     8    7    8 ar 
     9    8    9 1  
    10    8   10 ar 
    11   10   11 ar 
    12   10   14 1  
    13   11   12 ar 
    14   11   13 1  
    15   14   15 1  
    16   15   16 ar 
    17   15   24 ar 
    18   16   17 ar 
    19   17   18 1  
    20   17   21 ar 
    21   18   19 1  
    22   18   20 1  
    23   21   22 1  
    24   21   23 ar 
    25   23   24 ar 
    26    4   25 1  
    27    4   26 1  
    28    7   27 1  
    29    9   28 1  
    30    9   29 1  
    31    9   30 1  
    32   12   31 1  
    33   13   32 1  
    34   13   33 1  
    35   13   34 1  
    36   14   35 1  
    37   14   36 1  
    38   16   37 1  
    39   18   38 1  
    40   19   39 1  
    41   19   40 1  
    42   19   41 1  
    43   20   42 1  
    44   20   43 1  
    45   20   44 1  
    46   22   45 1  
    47   23   46 1  
    48   24   47 1  
@<TRIPOS>SUBSTRUCTURE
     1 B72         1

