### 
### Created by X-TOOL on Mon Sep 10 21:13:03 2018
### 

@<TRIPOS>MOLECULE
3nef_ligand
   35    37     1     0     0
SMALL
GAST_HUCK


@<TRIPOS>ATOM
      1 S         -54.9610   40.2900  -22.2550 S.o2      1 PYV         0.0724
      2 BR        -60.9540   39.8970  -24.3040 Br        1 PYV        -0.0495
      3 C1        -59.1820   40.1190  -23.6700 C.ar      1 PYV         0.0197
      4 N1        -54.9590   40.8390  -20.7420 N.am      1 PYV        -0.2334
      5 O1        -54.1590   41.1450  -23.0720 O.2       1 PYV        -0.1496
      6 C2        -58.6460   41.4640  -23.3350 C.ar      1 PYV        -0.0084
      7 N2        -57.3020   39.7430  -18.0860 N.ar      1 PYV        -0.2964
      8 O2        -54.4580   38.9460  -22.2920 O.2       1 PYV        -0.1496
      9 C3        -57.2490   41.5630  -22.8760 C.ar      1 PYV         0.0112
     10 C4        -56.4650   40.3140  -22.7660 C.ar      1 PYV         0.1195
     11 C5        -57.0540   39.1090  -23.1020 C.ar      1 PYV        -0.0306
     12 C6        -58.3670   39.0070  -23.5340 C.ar      1 PYV        -0.0494
     13 C7        -56.7330   42.8100  -22.5750 C.ar      1 PYV        -0.0511
     14 C8        -57.5360   43.9480  -22.7050 C.ar      1 PYV        -0.0605
     15 C9        -58.8540   43.8530  -23.1300 C.ar      1 PYV        -0.0607
     16 C10       -59.4090   42.6160  -23.4570 C.ar      1 PYV        -0.0538
     17 C11       -55.3270   40.0160  -19.6050 C.3       1 PYV         0.0756
     18 C12       -56.7260   40.3910  -19.1230 C.ar      1 PYV         0.0465
     19 C13       -58.5280   40.0500  -17.6340 C.ar      1 PYV         0.0028
     20 C14       -59.2690   41.0630  -18.2240 C.ar      1 PYV        -0.0410
     21 C15       -58.7010   41.7430  -19.2800 C.ar      1 PYV        -0.0488
     22 C16       -57.4290   41.4150  -19.7280 C.ar      1 PYV        -0.0308
     23 H1        -54.6925   41.7888  -20.5784 H         1 PYV         0.1703
     24 H2        -56.4626   38.2039  -23.0241 H         1 PYV         0.0646
     25 H3        -58.7679   38.0285  -23.7724 H         1 PYV         0.0655
     26 H4        -55.7070   42.9057  -22.2385 H         1 PYV         0.0630
     27 H5        -57.1215   44.9216  -22.4696 H         1 PYV         0.0618
     28 H6        -59.4582   44.7496  -23.2086 H         1 PYV         0.0624
     29 H7        -60.4336   42.5550  -23.8055 H         1 PYV         0.0620
     30 H8        -54.6055   40.1760  -18.7902 H         1 PYV         0.0668
     31 H9        -55.3154   38.9570  -19.9023 H         1 PYV         0.0668
     32 H10       -58.9439   39.4996  -16.7978 H         1 PYV         0.0803
     33 H11       -60.2617   41.3117  -17.8667 H         1 PYV         0.0652
     34 H12       -59.2524   42.5406  -19.7646 H         1 PYV         0.0719
     35 H13       -56.9870   41.9623  -20.5527 H         1 PYV         0.0652
@<TRIPOS>BOND
     1    4    1 am 
     2    1    5 2  
     3    1    8 2  
     4    1   10 1  
     5    3    2 1  
     6    6    3 ar 
     7   12    3 ar 
     8   17    4 1  
     9    9    6 ar 
    10    6   16 ar 
    11   18    7 ar 
    12    7   19 ar 
    13   10    9 ar 
    14    9   13 ar 
    15   10   11 ar 
    16   11   12 ar 
    17   13   14 ar 
    18   14   15 ar 
    19   16   15 ar 
    20   17   18 1  
    21   18   22 ar 
    22   19   20 ar 
    23   20   21 ar 
    24   21   22 ar 
    25    4   23 1  
    26   11   24 1  
    27   12   25 1  
    28   13   26 1  
    29   14   27 1  
    30   15   28 1  
    31   16   29 1  
    32   17   30 1  
    33   17   31 1  
    34   19   32 1  
    35   20   33 1  
    36   21   34 1  
    37   22   35 1  
@<TRIPOS>SUBSTRUCTURE
     1 PYV         1

