### 
### Created by X-TOOL on Mon Sep 10 21:13:03 2018
### 

@<TRIPOS>MOLECULE
3neg_ligand
   35    37     1     0     0
SMALL
GAST_HUCK


@<TRIPOS>ATOM
      1 S         -55.7370   40.4930  -22.2670 S.o2      1 PYV         0.0724
      2 BR        -61.7500   40.8360  -24.2160 Br        1 PYV        -0.0495
      3 C1        -59.9630   40.7450  -23.6310 C.ar      1 PYV         0.0197
      4 N1        -55.6690   41.0840  -20.7950 N.am      1 PYV        -0.2334
      5 O1        -54.8990   41.3180  -23.0830 O.2       1 PYV        -0.1496
      6 C2        -59.2480   42.0050  -23.2920 C.ar      1 PYV        -0.0084
      7 N2        -57.8480   39.8750  -18.1490 N.ar      1 PYV        -0.2964
      8 O2        -55.3260   39.1220  -22.2990 O.2       1 PYV        -0.1496
      9 C3        -57.8480   41.9170  -22.8570 C.ar      1 PYV         0.0112
     10 C4        -57.2350   40.5820  -22.7680 C.ar      1 PYV         0.1195
     11 C5        -57.9650   39.4440  -23.1160 C.ar      1 PYV        -0.0306
     12 C6        -59.2990   39.5220  -23.5410 C.ar      1 PYV        -0.0494
     13 C7        -57.1440   43.0570  -22.5270 C.ar      1 PYV        -0.0511
     14 C8        -57.7800   44.2900  -22.6210 C.ar      1 PYV        -0.0605
     15 C9        -59.1030   44.3860  -23.0380 C.ar      1 PYV        -0.0607
     16 C10       -59.8400   43.2530  -23.3710 C.ar      1 PYV        -0.0538
     17 C11       -55.9190   40.2280  -19.6570 C.3       1 PYV         0.0756
     18 C12       -57.2630   40.6230  -19.1020 C.ar      1 PYV         0.0465
     19 C13       -59.0440   40.2090  -17.6570 C.ar      1 PYV         0.0028
     20 C14       -59.7070   41.3400  -18.1050 C.ar      1 PYV        -0.0410
     21 C15       -59.1210   42.1300  -19.0700 C.ar      1 PYV        -0.0488
     22 C16       -57.8830   41.7680  -19.5740 C.ar      1 PYV        -0.0308
     23 H         -55.4485   42.0695  -20.6519 H         1 PYV         0.1703
     24 H         -57.4845   38.4675  -23.0556 H         1 PYV         0.0646
     25 H         -59.8284   38.6070  -23.8067 H         1 PYV         0.0655
     26 H         -56.1068   42.9921  -22.1982 H         1 PYV         0.0630
     27 H         -57.2322   45.1965  -22.3635 H         1 PYV         0.0618
     28 H         -59.5722   45.3676  -23.1055 H         1 PYV         0.0624
     29 H         -60.8773   43.3485  -23.6921 H         1 PYV         0.0620
     30 H         -55.1392   40.3460  -18.9046 H         1 PYV         0.0668
     31 H         -55.9151   39.1789  -19.9529 H         1 PYV         0.0668
     32 H         -59.5047   39.5832  -16.8926 H         1 PYV         0.0803
     33 H         -60.6834   41.6025  -17.6978 H         1 PYV         0.0652
     34 H         -59.6245   43.0267  -19.4313 H         1 PYV         0.0719
     35 H         -57.4002   42.3795  -20.3363 H         1 PYV         0.0652
@<TRIPOS>BOND
     1    4    1 am 
     2    1    5 2  
     3    1    8 2  
     4    1   10 1  
     5    3    2 1  
     6    6    3 ar 
     7   12    3 ar 
     8   17    4 1  
     9    9    6 ar 
    10    6   16 ar 
    11   18    7 ar 
    12    7   19 ar 
    13   10    9 ar 
    14    9   13 ar 
    15   10   11 ar 
    16   11   12 ar 
    17   13   14 ar 
    18   14   15 ar 
    19   16   15 ar 
    20   17   18 1  
    21   18   22 ar 
    22   19   20 ar 
    23   20   21 ar 
    24   21   22 ar 
    25    4   23 1  
    26   11   24 1  
    27   12   25 1  
    28   13   26 1  
    29   14   27 1  
    30   15   28 1  
    31   16   29 1  
    32   17   30 1  
    33   17   31 1  
    34   19   32 1  
    35   20   33 1  
    36   21   34 1  
    37   22   35 1  
@<TRIPOS>SUBSTRUCTURE
     1 PYV         1

