### 
### Created by X-TOOL on Mon Sep 10 21:13:03 2018
### 

@<TRIPOS>MOLECULE
3neo_ligand
   51    53     1     0     0
SMALL
GAST_HUCK


@<TRIPOS>ATOM
      1 CAF        21.3500   -2.4670  -22.5690 C.ar      1 G24        -0.0587
      2 CAB        20.6680   -2.6870  -21.3710 C.ar      1 G24        -0.0683
      3 CAC        20.4240   -1.6400  -20.4850 C.ar      1 G24        -0.0686
      4 CAD        20.8730   -0.3600  -20.8100 C.ar      1 G24        -0.0683
      5 CAH        21.5670   -0.1750  -22.0530 C.ar      1 G24        -0.0587
      6 CAG        21.7640   -1.1830  -22.8770 C.ar      1 G24        -0.0338
      7 CAQ        22.5350   -0.8100  -24.1200 C.3       1 G24         0.0108
      8 CAP        21.7450   -0.0210  -25.1610 C.ar      1 G24        -0.0089
      9 CAO        21.9360   -0.5680  -26.3940 C.ar      1 G24        -0.0637
     10 CBA        20.9350    1.1210  -25.0520 C.ar      1 G24         0.0843
     11 OBC        20.7120    1.7630  -23.8580 O.3       1 G24        -0.3409
     12 CAZ        20.3360    1.6520  -26.2000 C.ar      1 G24        -0.0457
     13 CAY        20.5420    1.0660  -27.4490 C.ar      1 G24        -0.0742
     14 CAN        21.3550   -0.0520  -27.5080 C.ar      1 G24        -0.0529
     15 CAM        21.7090   -0.8420  -28.7160 C.3       1 G24        -0.0024
     16 CAL        21.4020   -0.1750  -29.9980 C.ar      1 G24        -0.0412
     17 CAX        20.3040   -0.6220  -30.7090 C.ar      1 G24        -0.0571
     18 CBB        19.4500   -1.7390  -30.1050 C.3       1 G24        -0.0373
     19 CAW        19.9840   -0.0550  -31.9310 C.ar      1 G24        -0.0449
     20 CAK        22.2120    0.8300  -30.5030 C.ar      1 G24        -0.0571
     21 CAE        23.4320    1.2980  -29.6990 C.3       1 G24        -0.0373
     22 CAJ        21.9020    1.4030  -31.7240 C.ar      1 G24        -0.0449
     23 CAV        20.7910    0.9600  -32.4300 C.ar      1 G24         0.0737
     24 OAU        20.5130    1.5380  -33.6230 O.3       1 G24        -0.3115
     25 CAT        21.4190    2.6210  -33.8100 C.3       1 G24         0.1209
     26 CAS        22.5760    2.2620  -34.7420 C.2       1 G24         0.0651
     27 OAR        22.5230    2.6760  -35.9200 O.co2     1 G24        -0.5663
     28 OAI        23.5180    1.5870  -34.2770 O.co2     1 G24        -0.5663
     29 H1         21.5520   -3.2885  -23.2468 H         1 G24         0.0560
     30 H2         20.3238   -3.6855  -21.1270 H         1 G24         0.0600
     31 H3         19.8930   -1.8174  -19.5567 H         1 G24         0.0560
     32 H4         20.7020    0.4749  -20.1401 H         1 G24         0.0600
     33 H5         21.9346    0.8099  -22.3174 H         1 G24         0.0560
     34 H6         22.8888   -1.7381  -24.5926 H         1 G24         0.0561
     35 H7         23.3990   -0.2013  -23.8150 H         1 G24         0.0561
     36 H8         22.5709   -1.4415  -26.4889 H         1 G24         0.0473
     37 H9         21.5400    2.0629  -23.5015 H         1 G24         0.2436
     38 H10        19.7044    2.5291  -26.1176 H         1 G24         0.0506
     39 H11        20.0812    1.4723  -28.3421 H         1 G24         0.0477
     40 H12        21.1531   -1.7905  -28.6809 H         1 G24         0.0514
     41 H13        22.7890   -1.0486  -28.6867 H         1 G24         0.0514
     42 H14        18.6220   -1.9780  -30.7887 H         1 G24         0.0374
     43 H15        19.0432   -1.4076  -29.1382 H         1 G24         0.0374
     44 H16        20.0708   -2.6344  -29.9540 H         1 G24         0.0374
     45 H17        19.1194   -0.3969  -32.4884 H         1 G24         0.0408
     46 H18        23.9513    2.0951  -30.2513 H         1 G24         0.0374
     47 H19        24.1174    0.4513  -29.5464 H         1 G24         0.0374
     48 H20        23.1021    1.6833  -28.7229 H         1 G24         0.0374
     49 H21        22.5236    2.1941  -32.1276 H         1 G24         0.0408
     50 H22        21.8307    2.9095  -32.8316 H         1 G24         0.0782
     51 H23        20.8692    3.4705  -34.2414 H         1 G24         0.0782
@<TRIPOS>BOND
     1    1    2 ar 
     2    1    6 ar 
     3    2    3 ar 
     4    3    4 ar 
     5    4    5 ar 
     6    5    6 ar 
     7    6    7 1  
     8    7    8 1  
     9    8    9 ar 
    10    8   10 ar 
    11    9   14 ar 
    12   10   11 1  
    13   10   12 ar 
    14   12   13 ar 
    15   13   14 ar 
    16   14   15 1  
    17   15   16 1  
    18   16   17 ar 
    19   16   20 ar 
    20   17   18 1  
    21   17   19 ar 
    22   19   23 ar 
    23   20   21 1  
    24   20   22 ar 
    25   22   23 ar 
    26   23   24 1  
    27   24   25 1  
    28   25   26 1  
    29   26   27 ar 
    30   26   28 ar 
    31    1   29 1  
    32    2   30 1  
    33    3   31 1  
    34    4   32 1  
    35    5   33 1  
    36    7   34 1  
    37    7   35 1  
    38    9   36 1  
    39   11   37 1  
    40   12   38 1  
    41   13   39 1  
    42   15   40 1  
    43   15   41 1  
    44   18   42 1  
    45   18   43 1  
    46   18   44 1  
    47   19   45 1  
    48   21   46 1  
    49   21   47 1  
    50   21   48 1  
    51   22   49 1  
    52   25   50 1  
    53   25   51 1  
@<TRIPOS>SUBSTRUCTURE
     1 G24         1

