### 
### Created by X-TOOL on Mon Sep 10 21:13:03 2018
### 

@<TRIPOS>MOLECULE
3nes_ligand
   47    48     1     0     0
SMALL
GAST_HUCK


@<TRIPOS>ATOM
      1 O1          3.4620   -1.5490    2.4280 O.co2     1 B72        -0.5663
      2 C20         2.2880   -1.1400    2.2930 C.2       1 B72         0.0651
      3 O2          1.2850   -1.8710    2.4360 O.co2     1 B72        -0.5663
      4 C19         2.0650    0.3420    1.9420 C.3       1 B72         0.1209
      5 O3          0.8060    0.8410    1.3820 O.3       1 B72        -0.3115
      6 C1          0.4620    0.4830    0.0960 C.ar      1 B72         0.0737
      7 C2          1.2160   -0.4380   -0.6190 C.ar      1 B72        -0.0449
      8 C3          0.8480   -0.7650   -1.9180 C.ar      1 B72        -0.0571
      9 C17         1.6990   -1.7870   -2.6900 C.3       1 B72        -0.0373
     10 C4         -0.2810   -0.1830   -2.5130 C.ar      1 B72        -0.0412
     11 C5         -1.0450    0.7160   -1.7840 C.ar      1 B72        -0.0571
     12 C6         -0.6670    1.0520   -0.4900 C.ar      1 B72        -0.0449
     13 C18        -2.3000    1.3570   -2.4030 C.3       1 B72        -0.0373
     14 C7         -0.7220   -0.5950   -3.9120 C.3       1 B72        -0.0025
     15 C8          0.0290    0.0960   -5.0030 C.ar      1 B72        -0.0533
     16 C13        -0.1750   -0.3030   -6.3290 C.ar      1 B72        -0.0654
     17 C12         0.5050    0.3500   -7.3270 C.ar      1 B72        -0.0176
     18 C14         0.3770   -0.0220   -8.8150 C.3       1 B72        -0.0163
     19 C16        -0.7460   -1.0360   -9.0110 C.3       1 B72        -0.0545
     20 C15         0.0970    1.2460   -9.6070 C.3       1 B72        -0.0545
     21 C11         1.3420    1.3840   -6.9630 C.ar      1 B72         0.0825
     22 O4          2.0020    2.0110   -7.9540 O.3       1 B72        -0.3413
     23 C10         1.5230    1.7870   -5.6400 C.ar      1 B72        -0.0461
     24 C9          0.8480    1.1360   -4.6350 C.ar      1 B72        -0.0744
     25 H1          2.8472    0.6039    1.2143 H         1 B72         0.0782
     26 H2          2.2280    0.9037    2.8736 H         1 B72         0.0782
     27 H3          2.0864   -0.8990   -0.1663 H         1 B72         0.0408
     28 H4          2.5325   -2.1236   -2.0560 H         1 B72         0.0374
     29 H5          2.0979   -1.3180   -3.6015 H         1 B72         0.0374
     30 H6          1.0754   -2.6505   -2.9647 H         1 B72         0.0374
     31 H7         -1.2583    1.7664    0.0713 H         1 B72         0.0408
     32 H8         -2.4412    0.9744   -3.4246 H         1 B72         0.0374
     33 H9         -2.1761    2.4495   -2.4345 H         1 B72         0.0374
     34 H10        -3.1796    1.1051   -1.7923 H         1 B72         0.0374
     35 H11        -1.7909   -0.3604   -4.0230 H         1 B72         0.0514
     36 H12        -0.5715   -1.6794   -4.0190 H         1 B72         0.0514
     37 H13        -0.8570   -1.1123   -6.5635 H         1 B72         0.0469
     38 H14         1.3220   -0.4652   -9.1621 H         1 B72         0.0432
     39 H15        -0.8262   -1.2926  -10.0776 H         1 B72         0.0252
     40 H16        -1.6961   -0.6023   -8.6658 H         1 B72         0.0252
     41 H17        -0.5253   -1.9442   -8.4310 H         1 B72         0.0252
     42 H18         0.9167    1.9632   -9.4527 H         1 B72         0.0252
     43 H19        -0.8488    1.6910   -9.2644 H         1 B72         0.0252
     44 H20         0.0207    1.0009  -10.6766 H         1 B72         0.0252
     45 H21         2.5435    2.6995   -7.5862 H         1 B72         0.2434
     46 H22         2.1913    2.6078   -5.4060 H         1 B72         0.0505
     47 H23         0.9571    1.4303   -3.5974 H         1 B72         0.0474
@<TRIPOS>BOND
     1    1    2 ar 
     2    2    3 ar 
     3    2    4 1  
     4    4    5 1  
     5    5    6 1  
     6    6    7 ar 
     7    6   12 ar 
     8    7    8 ar 
     9    8    9 1  
    10    8   10 ar 
    11   10   11 ar 
    12   10   14 1  
    13   11   12 ar 
    14   11   13 1  
    15   14   15 1  
    16   15   16 ar 
    17   15   24 ar 
    18   16   17 ar 
    19   17   18 1  
    20   17   21 ar 
    21   18   19 1  
    22   18   20 1  
    23   21   22 1  
    24   21   23 ar 
    25   23   24 ar 
    26    4   25 1  
    27    4   26 1  
    28    7   27 1  
    29    9   28 1  
    30    9   29 1  
    31    9   30 1  
    32   12   31 1  
    33   13   32 1  
    34   13   33 1  
    35   13   34 1  
    36   14   35 1  
    37   14   36 1  
    38   16   37 1  
    39   18   38 1  
    40   19   39 1  
    41   19   40 1  
    42   19   41 1  
    43   20   42 1  
    44   20   43 1  
    45   20   44 1  
    46   22   45 1  
    47   23   46 1  
    48   24   47 1  
@<TRIPOS>SUBSTRUCTURE
     1 B72         1

