### 
### Created by X-TOOL on Mon Sep 10 21:13:04 2018
### 

@<TRIPOS>MOLECULE
3new_ligand
   31    33     1     0     0
SMALL
GAST_HUCK


@<TRIPOS>ATOM
      1 C4         24.6130   15.5740   11.5250 C.ar      1 3NE        -0.0200
      2 C5         22.3440   19.2700    8.9370 C.2       1 3NE         0.0546
      3 C6         24.0840   15.0070   10.3890 C.ar      1 3NE         0.0508
      4 C7         24.8140   14.7620   12.6090 C.ar      1 3NE         0.0486
      5 C8         22.6790   18.1460    9.6650 C.2       1 3NE         0.0543
      6 C10        23.3430   17.1420    8.9450 C.ar      1 3NE         0.0593
      7 C13        25.4160   15.2980   13.8570 C.3       1 3NE         0.3770
      8 C1         23.9930   12.8700   11.5220 C.ar      1 3NE        -0.0317
      9 C2         23.8050   13.6570   10.4090 C.ar      1 3NE        -0.0224
     10 C3         24.5020   13.4260   12.6410 C.ar      1 3NE        -0.0318
     11 C9         22.6500   19.3420    7.5790 C.2       1 3NE         0.2555
     12 C11        23.8820   15.8280    9.1930 C.2       1 3NE         0.1300
     13 C12        23.5640   17.3800    7.5910 C.ar      1 3NE         0.1257
     14 C14        22.3710   18.0560   11.1140 C.3       1 3NE         0.3748
     15 N15        24.1760   16.2210    7.1650 N.2       1 3NE        -0.2575
     16 N16        23.2540   18.4460    6.8030 N.am      1 3NE        -0.2076
     17 N17        24.3740   15.2940    8.0790 N.pl3     1 3NE        -0.2330
     18 O18        22.2790   20.4890    6.9520 O.2       1 3NE        -0.3827
     19 F19        24.5620   15.0630   14.8590 F         1 3NE        -0.2200
     20 F20        26.5740   14.6190   14.0990 F         1 3NE        -0.2200
     21 F21        25.8220   16.5950   14.0330 F         1 3NE        -0.2200
     22 F22        21.4870   18.9290   11.6140 F         1 3NE        -0.2221
     23 F23        22.0520   16.8250   11.6040 F         1 3NE        -0.2221
     24 F24        23.4530   18.3390   11.8410 F         1 3NE        -0.2221
     25 H1         24.8624   16.6283   11.5609 H         1 3NE         0.0861
     26 H2         21.8394   20.1026    9.4249 H         1 3NE         0.1110
     27 H3         23.7356   11.8172   11.5000 H         1 3NE         0.0697
     28 H4         23.4202   13.1946    9.5072 H         1 3NE         0.0866
     29 H5         24.6595   12.8362   13.5368 H         1 3NE         0.0850
     30 H6         23.4443   18.5381    5.8256 H         1 3NE         0.2559
     31 H7         24.8096   14.3684    7.9587 H         1 3NE         0.2878
@<TRIPOS>BOND
     1    3    1 ar 
     2    1    4 ar 
     3    5    2 2  
     4    2   11 1  
     5    3    9 ar 
     6   12    3 1  
     7    4    7 1  
     8    4   10 ar 
     9    6    5 1  
    10    5   14 1  
    11    6   12 2  
    12    6   13 ar 
    13    7   19 1  
    14    7   20 1  
    15    7   21 1  
    16    9    8 ar 
    17    8   10 ar 
    18   11   16 am 
    19   11   18 2  
    20   12   17 1  
    21   13   15 2  
    22   13   16 1  
    23   14   22 1  
    24   14   23 1  
    25   14   24 1  
    26   15   17 1  
    27    1   25 1  
    28    2   26 1  
    29    8   27 1  
    30    9   28 1  
    31   10   29 1  
    32   16   30 1  
    33   17   31 1  
@<TRIPOS>SUBSTRUCTURE
     1 3NE         1

