### 
### Created by X-TOOL on Mon Sep 10 21:13:02 2018
### 

@<TRIPOS>MOLECULE
3nex_ligand
   51    53     1     0     0
SMALL
GAST_HUCK


@<TRIPOS>ATOM
      1 CAF         0.0120    0.0710   10.9670 C.ar      1 G24        -0.0587
      2 CAB         0.7200    0.9110   11.8010 C.ar      1 G24        -0.0683
      3 CAC         0.9490    2.2340   11.4420 C.ar      1 G24        -0.0686
      4 CAD         0.4500    2.7640   10.2670 C.ar      1 G24        -0.0683
      5 CAH        -0.2740    1.9280    9.4300 C.ar      1 G24        -0.0587
      6 CAG        -0.4910    0.5960    9.7830 C.ar      1 G24        -0.0338
      7 CAQ        -1.2860   -0.3190    8.8450 C.3       1 G24         0.0108
      8 CAP        -0.4130   -0.6430    7.6340 C.ar      1 G24        -0.0089
      9 CAO        -0.6710    0.0230    6.4590 C.ar      1 G24        -0.0637
     10 CBA         0.6280   -1.5570    7.6830 C.ar      1 G24         0.0843
     11 OBC         0.8380   -2.1820    8.8660 O.3       1 G24        -0.3409
     12 CAZ         1.4030   -1.8000    6.5430 C.ar      1 G24        -0.0457
     13 CAY         1.1170   -1.1240    5.3450 C.ar      1 G24        -0.0742
     14 CAN         0.0720   -0.1970    5.3250 C.ar      1 G24        -0.0529
     15 CAM        -0.3690    0.6270    4.1260 C.3       1 G24        -0.0024
     16 CAL        -0.0130    0.0930    2.7330 C.ar      1 G24        -0.0412
     17 CAX        -0.7840   -0.8530    2.0640 C.ar      1 G24        -0.0571
     18 CBB        -2.0230   -1.4490    2.7310 C.3       1 G24        -0.0373
     19 CAW        -0.4410   -1.2920    0.7890 C.ar      1 G24        -0.0449
     20 CAK         1.0890    0.6100    2.0630 C.ar      1 G24        -0.0571
     21 CAE         1.9510    1.6620    2.7530 C.3       1 G24        -0.0373
     22 CAJ         1.4470    0.1900    0.7870 C.ar      1 G24        -0.0449
     23 CAV         0.6780   -0.7710    0.1470 C.ar      1 G24         0.0737
     24 OAU         1.0310   -1.2010   -1.1010 O.3       1 G24        -0.3115
     25 CAT         0.0850   -2.1740   -1.6200 C.3       1 G24         0.1209
     26 CAS        -1.2790   -1.6070   -2.0590 C.2       1 G24         0.0651
     27 OAR        -1.3580   -0.4010   -2.3860 O.co2     1 G24        -0.5663
     28 OAI        -2.2690   -2.3710   -2.0330 O.co2     1 G24        -0.5663
     29 H1         -0.1474   -0.9690   11.2278 H         1 G24         0.0560
     30 H2          1.1009    0.5362   12.7441 H         1 G24         0.0600
     31 H3          1.5338    2.8663   12.1002 H         1 G24         0.0560
     32 H4          0.6196    3.8027   10.0073 H         1 G24         0.0600
     33 H5         -0.6728    2.3112    8.4977 H         1 G24         0.0560
     34 H6         -2.2027    0.1923    8.5160 H         1 G24         0.0561
     35 H7         -1.5526   -1.2481    9.3701 H         1 G24         0.0561
     36 H8         -1.4826    0.7409    6.4268 H         1 G24         0.0473
     37 H9          0.0583   -2.6669    9.1095 H         1 G24         0.2436
     38 H10         2.2224   -2.5085    6.5844 H         1 G24         0.0506
     39 H11         1.6978   -1.3186    4.4506 H         1 G24         0.0477
     40 H12         0.0877    1.6229    4.2241 H         1 G24         0.0514
     41 H13        -1.4641    0.7194    4.1739 H         1 G24         0.0514
     42 H14        -2.4944   -2.1721    2.0492 H         1 G24         0.0374
     43 H15        -2.7369   -0.6451    2.9634 H         1 G24         0.0374
     44 H16        -1.7296   -1.9589    3.6605 H         1 G24         0.0374
     45 H17        -1.0474   -2.0422    0.2944 H         1 G24         0.0408
     46 H18         2.7732    1.9580    2.0849 H         1 G24         0.0374
     47 H19         2.3659    1.2442    3.6821 H         1 G24         0.0374
     48 H20         1.3357    2.5426    2.9896 H         1 G24         0.0374
     49 H21         2.3183    0.6093    0.2971 H         1 G24         0.0408
     50 H22        -0.0965   -2.9222   -0.8344 H         1 G24         0.0782
     51 H23         0.5452   -2.6619   -2.4918 H         1 G24         0.0782
@<TRIPOS>BOND
     1    1    2 ar 
     2    1    6 ar 
     3    2    3 ar 
     4    3    4 ar 
     5    4    5 ar 
     6    5    6 ar 
     7    6    7 1  
     8    7    8 1  
     9    8    9 ar 
    10    8   10 ar 
    11    9   14 ar 
    12   10   11 1  
    13   10   12 ar 
    14   12   13 ar 
    15   13   14 ar 
    16   14   15 1  
    17   15   16 1  
    18   16   17 ar 
    19   16   20 ar 
    20   17   18 1  
    21   17   19 ar 
    22   19   23 ar 
    23   20   21 1  
    24   20   22 ar 
    25   22   23 ar 
    26   23   24 1  
    27   24   25 1  
    28   25   26 1  
    29   26   27 ar 
    30   26   28 ar 
    31    1   29 1  
    32    2   30 1  
    33    3   31 1  
    34    4   32 1  
    35    5   33 1  
    36    7   34 1  
    37    7   35 1  
    38    9   36 1  
    39   11   37 1  
    40   12   38 1  
    41   13   39 1  
    42   15   40 1  
    43   15   41 1  
    44   18   42 1  
    45   18   43 1  
    46   18   44 1  
    47   19   45 1  
    48   21   46 1  
    49   21   47 1  
    50   21   48 1  
    51   22   49 1  
    52   25   50 1  
    53   25   51 1  
@<TRIPOS>SUBSTRUCTURE
     1 G24         1

