### 
### Created by X-TOOL on Mon Sep 10 21:13:06 2018
### 

@<TRIPOS>MOLECULE
3nf6_ligand
   35    38     1     0     0
SMALL
GAST_HUCK


@<TRIPOS>ATOM
      1 O1         13.1170  -46.8860    1.7890 O.co2     1 IMV        -0.5668
      2 C2         13.7520  -46.0050    1.1450 C.2       1 IMV         0.0514
      3 O3         14.8230  -45.5000    1.5690 O.co2     1 IMV        -0.5668
      4 C4         13.1980  -45.4790   -0.1630 C.ar      1 IMV         0.0349
      5 C5         11.8310  -45.3030   -0.3960 C.ar      1 IMV        -0.0200
      6 C6         10.8130  -45.6550    0.6650 C.3       1 IMV         0.0837
      7 N7          9.4450  -45.2520    0.4100 N.am      1 IMV        -0.2110
      8 C8          8.4900  -46.0140   -0.2420 C.2       1 IMV         0.2130
      9 O9          8.5980  -47.1390   -0.7170 O.2       1 IMV        -0.3885
     10 C10         7.2390  -45.1990   -0.3390 C.3       1 IMV         0.0724
     11 C11         7.6620  -43.9170    0.3200 C.ar      1 IMV        -0.0010
     12 C12         6.9070  -42.7860    0.5100 C.ar      1 IMV        -0.0707
     13 C13         7.5220  -41.7140    1.1470 C.ar      1 IMV        -0.0832
     14 C14         8.8400  -41.7980    1.5750 C.ar      1 IMV        -0.0818
     15 C15         9.6000  -42.9390    1.3750 C.ar      1 IMV        -0.0463
     16 C16         8.9670  -43.9840    0.7390 C.ar      1 IMV         0.0770
     17 C17        11.3700  -44.8010   -1.6100 C.ar      1 IMV        -0.0738
     18 C18        12.2630  -44.4750   -2.6150 C.ar      1 IMV        -0.0450
     19 C19        13.6050  -44.6640   -2.3730 C.ar      1 IMV         0.1200
     20 O20        14.6200  -44.4010   -3.2580 O.3       1 IMV        -0.2947
     21 C21        15.7670  -44.6070   -2.4450 C.3       1 IMV         0.1864
     22 O22        15.4510  -45.2410   -1.1920 O.3       1 IMV        -0.2890
     23 C23        14.0620  -45.1480   -1.1940 C.ar      1 IMV         0.1326
     24 H1         11.1315  -45.1792    1.6042 H         1 IMV         0.0737
     25 H2         10.8218  -46.7482    0.7864 H         1 IMV         0.0737
     26 H3          6.4077  -45.6736    0.2029 H         1 IMV         0.0646
     27 H4          6.9473  -45.0345   -1.3868 H         1 IMV         0.0646
     28 H5          5.8766  -42.7313    0.1779 H         1 IMV         0.0520
     29 H6          6.9642  -40.7993    1.3119 H         1 IMV         0.0473
     30 H7          9.2863  -40.9484    2.0790 H         1 IMV         0.0524
     31 H8         10.6320  -43.0054    1.6999 H         1 IMV         0.0485
     32 H9         10.3063  -44.6649   -1.7685 H         1 IMV         0.0444
     33 H10        11.9166  -44.0826   -3.5643 H         1 IMV         0.0514
     34 H11        16.2324  -43.6319   -2.2388 H         1 IMV         0.0973
     35 H12        16.4772  -45.2438   -2.9927 H         1 IMV         0.0973
@<TRIPOS>BOND
     1    1    2 ar 
     2    2    3 ar 
     3    2    4 1  
     4    4    5 ar 
     5    4   23 ar 
     6    5    6 1  
     7    5   17 ar 
     8    6    7 1  
     9    7    8 am 
    10    7   16 1  
    11    8    9 2  
    12    8   10 1  
    13   10   11 1  
    14   11   12 ar 
    15   11   16 ar 
    16   12   13 ar 
    17   13   14 ar 
    18   14   15 ar 
    19   15   16 ar 
    20   17   18 ar 
    21   18   19 ar 
    22   19   20 1  
    23   19   23 ar 
    24   20   21 1  
    25   21   22 1  
    26   22   23 1  
    27    6   24 1  
    28    6   25 1  
    29   10   26 1  
    30   10   27 1  
    31   12   28 1  
    32   13   29 1  
    33   14   30 1  
    34   15   31 1  
    35   17   32 1  
    36   18   33 1  
    37   21   34 1  
    38   21   35 1  
@<TRIPOS>SUBSTRUCTURE
     1 IMV         1

