### 
### Created by X-TOOL on Mon Sep 10 21:13:05 2018
### 

@<TRIPOS>MOLECULE
3nf7_ligand
   35    38     1     0     0
SMALL
GAST_HUCK


@<TRIPOS>ATOM
      1 C1          6.2140  -28.7590   -8.7220 C.ar      1 CIW         0.0181
      2 C2          7.3450  -29.2110   -9.3560 C.ar      1 CIW        -0.0678
      3 C3          8.2900  -28.3370   -9.8450 C.ar      1 CIW        -0.0455
      4 C4          8.0220  -27.0070   -9.6490 C.ar      1 CIW         0.0775
      5 C5          6.9010  -26.5350   -9.0230 C.ar      1 CIW        -0.0003
      6 C6          5.9610  -27.4150   -8.5420 C.ar      1 CIW        -0.0569
      7 C7          6.8880  -25.0620   -8.9930 C.3       1 CIW         0.0725
      8 C8          8.1970  -24.7470   -9.6650 C.2       1 CIW         0.2132
      9 O9          8.6630  -23.6260   -9.7760 O.2       1 CIW        -0.3884
     10 N10         8.7950  -25.9440  -10.0450 N.am      1 CIW        -0.2106
     11 C11         9.7240  -26.0660  -11.1230 C.3       1 CIW         0.0838
     12 C12        11.0130  -26.5570  -10.5780 C.ar      1 CIW        -0.0200
     13 C13        11.0930  -26.7750   -9.2020 C.ar      1 CIW        -0.0738
     14 C14        12.2530  -27.2570   -8.6350 C.ar      1 CIW        -0.0450
     15 C15        13.3160  -27.4880   -9.4830 C.ar      1 CIW         0.1200
     16 C16        13.2200  -27.2590  -10.8250 C.ar      1 CIW         0.1326
     17 C17        12.0860  -26.7930  -11.4270 C.ar      1 CIW         0.0349
     18 C18        12.1100  -26.6030  -12.9200 C.2       1 CIW         0.0514
     19 O19        12.8590  -25.6980  -13.3460 O.co2     1 CIW        -0.5668
     20 O20        11.4520  -27.3380  -13.6910 O.co2     1 CIW        -0.5668
     21 O21        14.3770  -27.5770  -11.4840 O.3       1 CIW        -0.2890
     22 C22        15.2190  -28.0880  -10.4480 C.3       1 CIW         0.1864
     23 O23        14.5820  -27.9750   -9.1500 O.3       1 CIW        -0.2947
     24 CL24        5.0930  -29.8990   -8.1100 Cl        1 CIW        -0.0863
     25 H1          7.4970  -30.2778   -9.4740 H         1 CIW         0.0531
     26 H2          9.1859  -28.6779  -10.3511 H         1 CIW         0.0486
     27 H3          5.0624  -27.0688   -8.0442 H         1 CIW         0.0526
     28 H4          6.8614  -24.6796   -7.9620 H         1 CIW         0.0646
     29 H5          6.0364  -24.6544   -9.5574 H         1 CIW         0.0646
     30 H6          9.8716  -25.0853  -11.5989 H         1 CIW         0.0737
     31 H7          9.3390  -26.7799  -11.8660 H         1 CIW         0.0737
     32 H8         10.2354  -26.5634   -8.5737 H         1 CIW         0.0444
     33 H9         12.3267  -27.4461   -7.5702 H         1 CIW         0.0514
     34 H10        16.1598  -27.5181  -10.4366 H         1 CIW         0.0973
     35 H11        15.4344  -29.1475  -10.6507 H         1 CIW         0.0973
@<TRIPOS>BOND
     1    1    2 ar 
     2    1    6 ar 
     3    1   24 1  
     4    2    3 ar 
     5    3    4 ar 
     6    4    5 ar 
     7    4   10 1  
     8    5    6 ar 
     9    5    7 1  
    10    7    8 1  
    11    8    9 2  
    12    8   10 am 
    13   10   11 1  
    14   11   12 1  
    15   12   13 ar 
    16   12   17 ar 
    17   13   14 ar 
    18   14   15 ar 
    19   15   16 ar 
    20   15   23 1  
    21   16   17 ar 
    22   16   21 1  
    23   17   18 1  
    24   18   19 ar 
    25   18   20 ar 
    26   21   22 1  
    27   22   23 1  
    28    2   25 1  
    29    3   26 1  
    30    6   27 1  
    31    7   28 1  
    32    7   29 1  
    33   11   30 1  
    34   11   31 1  
    35   13   32 1  
    36   14   33 1  
    37   22   34 1  
    38   22   35 1  
@<TRIPOS>SUBSTRUCTURE
     1 CIW         1

