### 
### Created by X-TOOL on Mon Sep 10 21:13:05 2018
### 

@<TRIPOS>MOLECULE
3nf8_ligand
   38    41     1     0     0
SMALL
GAST_HUCK


@<TRIPOS>ATOM
      1 C1          1.3240  -23.3490    7.6630 C.ar      1 CDQ         0.0181
      2 C2          1.4630  -24.0180    8.8680 C.ar      1 CDQ        -0.0678
      3 C3          2.1820  -23.4660    9.9160 C.ar      1 CDQ        -0.0455
      4 C4          2.7540  -22.2310    9.7040 C.ar      1 CDQ         0.0775
      5 C5          2.5890  -21.5690    8.5180 C.ar      1 CDQ        -0.0003
      6 C6          1.8830  -22.1030    7.4670 C.ar      1 CDQ        -0.0569
      7 C7          3.2590  -20.2510    8.5530 C.3       1 CDQ         0.0725
      8 C8          3.7090  -20.1700    9.9950 C.2       1 CDQ         0.2132
      9 O9          4.1520  -19.1520   10.5200 O.2       1 CDQ        -0.3884
     10 N10         3.5070  -21.4210   10.5670 N.am      1 CDQ        -0.2106
     11 C11         4.3140  -21.9150   11.6580 C.3       1 CDQ         0.0838
     12 C12         5.6040  -22.5920   11.2480 C.ar      1 CDQ        -0.0200
     13 C13         6.4330  -22.0860   10.2600 C.ar      1 CDQ        -0.0738
     14 C14         7.6100  -22.7450    9.9060 C.ar      1 CDQ        -0.0451
     15 C15         7.8980  -23.9290   10.6000 C.ar      1 CDQ         0.1167
     16 C16         7.0810  -24.4440   11.6070 C.ar      1 CDQ         0.1293
     17 C17         5.9220  -23.7570   11.9340 C.ar      1 CDQ         0.0348
     18 C18         4.9680  -24.2490   12.9880 C.2       1 CDQ         0.0514
     19 O19         5.1800  -23.9590   14.1980 O.co2     1 CDQ        -0.5668
     20 O20         3.9880  -24.9210   12.5430 O.co2     1 CDQ        -0.5668
     21 O21         7.3820  -25.6120   12.3270 O.3       1 CDQ        -0.3171
     22 C22         8.2650  -26.4240   11.5350 C.3       1 CDQ         0.0959
     23 C23         9.4540  -25.5970   11.2260 C.3       1 CDQ         0.0939
     24 O24         9.0600  -24.5490   10.2490 O.3       1 CDQ        -0.3229
     25 CL25        0.4330  -24.0500    6.3470 Cl        1 CDQ        -0.0863
     26 H1          1.0011  -24.9906    8.9933 H         1 CDQ         0.0531
     27 H2          2.2897  -23.9839   10.8622 H         1 CDQ         0.0486
     28 H3          1.7707  -21.5710    6.5292 H         1 CDQ         0.0526
     29 H4          2.5590  -19.4393    8.3059 H         1 CDQ         0.0646
     30 H5          4.1157  -20.2189    7.8638 H         1 CDQ         0.0646
     31 H6          3.7131  -22.6417   12.2244 H         1 CDQ         0.0737
     32 H7          4.5674  -21.0637   12.3069 H         1 CDQ         0.0737
     33 H8          6.1631  -21.1654    9.7553 H         1 CDQ         0.0444
     34 H9          8.2680  -22.3619    9.1345 H         1 CDQ         0.0514
     35 H10         7.7646  -26.7287   10.6040 H         1 CDQ         0.0638
     36 H11         8.5640  -27.3189   12.1004 H         1 CDQ         0.0638
     37 H12        10.2433  -26.2293   10.7933 H         1 CDQ         0.0633
     38 H13         9.8264  -25.1243   12.1468 H         1 CDQ         0.0633
@<TRIPOS>BOND
     1    1    2 ar 
     2    1    6 ar 
     3    1   25 1  
     4    2    3 ar 
     5    3    4 ar 
     6    4    5 ar 
     7    4   10 1  
     8    5    6 ar 
     9    5    7 1  
    10    7    8 1  
    11    8    9 2  
    12    8   10 am 
    13   10   11 1  
    14   11   12 1  
    15   12   13 ar 
    16   12   17 ar 
    17   13   14 ar 
    18   14   15 ar 
    19   15   16 ar 
    20   15   24 1  
    21   16   17 ar 
    22   16   21 1  
    23   17   18 1  
    24   18   19 ar 
    25   18   20 ar 
    26   21   22 1  
    27   22   23 1  
    28   23   24 1  
    29    2   26 1  
    30    3   27 1  
    31    6   28 1  
    32    7   29 1  
    33    7   30 1  
    34   11   31 1  
    35   11   32 1  
    36   13   33 1  
    37   14   34 1  
    38   22   35 1  
    39   22   36 1  
    40   23   37 1  
    41   23   38 1  
@<TRIPOS>SUBSTRUCTURE
     1 CDQ         1

