### 
### Created by X-TOOL on Mon Sep 10 21:13:05 2018
### 

@<TRIPOS>MOLECULE
3nf9_ligand
   35    38     1     0     0
SMALL
GAST_HUCK


@<TRIPOS>ATOM
      1 C1          5.1390  -28.4940   -8.6980 C.ar      1 CD9        -0.0692
      2 C2          6.2940  -29.1410   -9.1080 C.ar      1 CD9         0.0203
      3 C3          7.4010  -28.4150   -9.4720 C.ar      1 CD9        -0.0325
      4 C4          7.3070  -27.0480   -9.4030 C.ar      1 CD9         0.0776
      5 C5          6.1790  -26.3910   -8.9900 C.ar      1 CD9        -0.0007
      6 C6          5.0650  -27.1140   -8.6320 C.ar      1 CD9        -0.0701
      7 C7          6.3940  -24.9210   -9.0520 C.3       1 CD9         0.0726
      8 C8          7.8180  -24.8460   -9.5740 C.2       1 CD9         0.2130
      9 O9          8.4210  -23.8110   -9.8150 O.2       1 CD9        -0.3885
     10 N10         8.2980  -26.1340   -9.7360 N.am      1 CD9        -0.2109
     11 C11         9.6410  -26.5540  -10.0310 C.3       1 CD9         0.0837
     12 C12         9.9640  -26.6670  -11.4910 C.ar      1 CD9        -0.0200
     13 C13         8.9830  -26.9030  -12.4460 C.ar      1 CD9        -0.0738
     14 C14         9.2770  -27.0280  -13.8040 C.ar      1 CD9        -0.0450
     15 C15        10.5930  -26.9000  -14.2130 C.ar      1 CD9         0.1200
     16 C16        11.5640  -26.6620  -13.2950 C.ar      1 CD9         0.1326
     17 C17        11.2730  -26.5490  -11.9460 C.ar      1 CD9         0.0349
     18 C18        12.4060  -26.3260  -11.0540 C.2       1 CD9         0.0514
     19 O19        13.3760  -25.7110  -11.5820 O.co2     1 CD9        -0.5668
     20 O20        12.2840  -26.8520   -9.8970 O.co2     1 CD9        -0.5668
     21 O21        12.8130  -26.5520  -13.8620 O.3       1 CD9        -0.2890
     22 C22        12.4880  -26.5960  -15.2700 C.3       1 CD9         0.1864
     23 O23        11.1210  -26.9710  -15.5060 O.3       1 CD9        -0.2947
     24 CL24        6.4570  -30.8750   -9.1990 Cl        1 CD9        -0.0806
     25 H1          4.2722  -29.0837   -8.4222 H         1 CD9         0.0480
     26 H2          8.3121  -28.9020   -9.8005 H         1 CD9         0.0490
     27 H3          4.1572  -26.6179   -8.3082 H         1 CD9         0.0520
     28 H4          6.3057  -24.4595   -8.0574 H         1 CD9         0.0647
     29 H5          5.6866  -24.4401   -9.7435 H         1 CD9         0.0647
     30 H6          9.7993  -27.5398   -9.5694 H         1 CD9         0.0737
     31 H7         10.3325  -25.8245   -9.5842 H         1 CD9         0.0737
     32 H8          7.9518  -26.9933  -12.1243 H         1 CD9         0.0444
     33 H9          8.4905  -27.2215  -14.5244 H         1 CD9         0.0514
     34 H10        13.1450  -27.3288  -15.7613 H         1 CD9         0.0973
     35 H11        12.6607  -25.5999  -15.7036 H         1 CD9         0.0973
@<TRIPOS>BOND
     1    1    2 ar 
     2    1    6 ar 
     3    2    3 ar 
     4    2   24 1  
     5    3    4 ar 
     6    4    5 ar 
     7    4   10 1  
     8    5    6 ar 
     9    5    7 1  
    10    7    8 1  
    11    8    9 2  
    12    8   10 am 
    13   10   11 1  
    14   11   12 1  
    15   12   13 ar 
    16   12   17 ar 
    17   13   14 ar 
    18   14   15 ar 
    19   15   16 ar 
    20   15   23 1  
    21   16   17 ar 
    22   16   21 1  
    23   17   18 1  
    24   18   19 ar 
    25   18   20 ar 
    26   21   22 1  
    27   22   23 1  
    28    1   25 1  
    29    3   26 1  
    30    6   27 1  
    31    7   28 1  
    32    7   29 1  
    33   11   30 1  
    34   11   31 1  
    35   13   32 1  
    36   14   33 1  
    37   22   34 1  
    38   22   35 1  
@<TRIPOS>SUBSTRUCTURE
     1 CD9         1

