### 
### Created by X-TOOL on Mon Sep 10 21:13:07 2018
### 

@<TRIPOS>MOLECULE
3nfl_ligand
   76    75     1     0     0
SMALL
GAST_HUCK


@<TRIPOS>ATOM
      1 N         -13.6860   31.0230   31.9030 N.4       1 ILE         0.2381
      2 CA        -12.6190   31.7810   32.5590 C.3       1 ILE         0.0676
      3 C         -11.2350   31.0980   32.4620 C.2       1 ILE         0.2270
      4 O         -11.1210   29.8760   32.6280 O.2       1 ILE        -0.3907
      5 CB        -12.9690   32.3020   33.9930 C.3       1 ILE         0.0164
      6 CG1       -13.0330   31.1800   35.0550 C.3       1 ILE        -0.0460
      7 CG2       -14.2380   33.1580   33.9750 C.3       1 ILE        -0.0551
      8 CD1       -12.5480   31.5860   36.4850 C.3       1 ILE        -0.0647
      9 N         -10.2090   31.8980   32.1110 N.am      1 GLU        -0.2609
     10 CA         -8.8340   31.4350   31.9800 C.3       1 GLU         0.1326
     11 C          -7.9350   32.1030   32.9650 C.2       1 GLU         0.2041
     12 O          -8.0660   33.3010   33.2150 O.2       1 GLU        -0.3944
     13 CB         -8.2510   31.4740   30.5570 C.3       1 GLU        -0.0008
     14 CG         -8.7770   32.5280   29.6080 C.3       1 GLU         0.0044
     15 CD         -7.9730   32.6540   28.3270 C.2       1 GLU         0.0350
     16 OE1        -8.6050   32.8590   27.2660 O.co2     1 GLU        -0.5690
     17 OE2        -6.7250   32.5180   28.3730 O.co2     1 GLU        -0.5690
     18 N          -7.0460   31.3060   33.5560 N.am      1 SER        -0.2616
     19 CA         -6.1130   31.7660   34.5790 C.3       1 SER         0.1539
     20 C          -4.6710   31.6420   34.0930 C.2       1 SER         0.2063
     21 O          -4.3240   30.6890   33.3860 O.2       1 SER        -0.3943
     22 CB         -6.2890   30.9450   35.8510 C.3       1 SER         0.0843
     23 OG         -7.5980   31.0420   36.3860 O.3       1 SER        -0.3903
     24 N          -3.8580   32.6240   34.4590 N.am      1 ASP        -0.2621
     25 CA         -2.4160   32.7440   34.2090 C.3       1 ASP         0.1423
     26 C          -1.6700   31.9630   35.2730 C.2       1 ASP         0.2051
     27 O          -1.9520   32.1790   36.4360 O.2       1 ASP        -0.3943
     28 CB         -1.9890   34.2310   34.3330 C.3       1 ASP         0.0406
     29 CG         -2.0710   35.0540   33.0600 C.2       1 ASP         0.0393
     30 OD1        -2.7260   34.6080   32.1050 O.co2     1 ASP        -0.5688
     31 OD2        -1.5300   36.1700   33.0460 O.co2     1 ASP        -0.5688
     32 N          -0.7500   31.0340   34.8960 N.am      1 VAL        -0.2691
     33 CA          0.0810   30.3010   35.8560 C.3       1 VAL         0.0967
     34 C           1.5710   30.4280   35.5300 C.2       1 VAL         0.0603
     35 O           1.9270   30.8450   34.3920 O.co2     1 VAL        -0.5666
     36 CB         -0.3450   28.8420   36.1860 C.3       1 VAL        -0.0118
     37 CG1        -1.6670   28.7880   36.9560 C.3       1 VAL        -0.0590
     38 CG2        -0.3750   27.9630   34.9400 C.3       1 VAL        -0.0590
     39 OXT         2.3870   30.0630   36.3950 O.co2     1 VAL        -0.5666
     40 H         -13.3715   30.7252   30.9795 H         1 ILE         0.2015
     41 H         -13.9151   30.2039   32.4660 H         1 ILE         0.2015
     42 H         -14.5121   31.6137   31.8081 H         1 ILE         0.2015
     43 H         -12.5354   32.6935   31.9688 H         1 ILE         0.1101
     44 H         -12.1414   32.9409   34.3014 H         1 ILE         0.0378
     45 H         -12.3674   30.3876   34.7127 H         1 ILE         0.0269
     46 H         -14.0818   30.8984   35.1491 H         1 ILE         0.0269
     47 H         -15.0973   32.5268   33.7487 H         1 ILE         0.0236
     48 H         -14.3745   33.6236   34.9511 H         1 ILE         0.0236
     49 H         -14.1425   33.9310   33.2125 H         1 ILE         0.0236
     50 H         -11.5079   31.9085   36.4366 H         1 ILE         0.0230
     51 H         -13.1659   32.4025   36.8586 H         1 ILE         0.0230
     52 H         -12.6333   30.7290   37.1531 H         1 ILE         0.0230
     53 H         -10.4060   32.8817   31.9269 H         1 GLU         0.1885
     54 H          -8.8849   30.3718   32.2148 H         1 GLU         0.0801
     55 H          -8.5181   30.5179   30.1069 H         1 GLU         0.0330
     56 H          -7.1917   31.6982   30.6826 H         1 GLU         0.0330
     57 H          -8.7204   33.4869   30.1232 H         1 GLU         0.0433
     58 H          -9.7900   32.2381   29.3290 H         1 GLU         0.0433
     59 H          -7.0161   30.3247   33.2793 H         1 SER         0.1884
     60 H          -6.3256   32.8148   34.7864 H         1 SER         0.0823
     61 H          -5.5927   31.3287   36.5967 H         1 SER         0.0606
     62 H          -6.1045   29.8996   35.6035 H         1 SER         0.0606
     63 H          -8.2314   30.7232   35.7389 H         1 SER         0.2097
     64 H          -4.2872   33.3901   34.9780 H         1 ASP         0.1884
     65 H          -2.1910   32.3656   33.2119 H         1 ASP         0.0819
     66 H          -0.9394   34.2250   34.6271 H         1 ASP         0.0478
     67 H          -2.6798   34.6904   35.0400 H         1 ASP         0.0478
     68 H          -0.6334   30.8390   33.9016 H         1 VAL         0.1875
     69 H          -0.1102   30.8121   36.7996 H         1 VAL         0.0729
     70 H           0.4195   28.4324   36.8462 H         1 VAL         0.0336
     71 H          -1.5618   29.3320   37.8946 H         1 VAL         0.0234
     72 H          -2.4543   29.2447   36.3562 H         1 VAL         0.0234
     73 H          -1.9230   27.7490   37.1635 H         1 VAL         0.0234
     74 H          -1.0871   28.3737   34.2242 H         1 VAL         0.0234
     75 H           0.6182   27.9363   34.4918 H         1 VAL         0.0234
     76 H          -0.6775   26.9530   35.2166 H         1 VAL         0.0234
@<TRIPOS>BOND
     1    1    2 1  
     2    2    3 1  
     3    2    5 1  
     4    3    4 2  
     5    3    9 am 
     6    5    6 1  
     7    5    7 1  
     8    6    8 1  
     9    9   10 1  
    10   10   11 1  
    11   10   13 1  
    12   11   12 2  
    13   11   18 am 
    14   13   14 1  
    15   14   15 1  
    16   15   16 ar 
    17   15   17 ar 
    18   18   19 1  
    19   19   20 1  
    20   19   22 1  
    21   20   21 2  
    22   20   24 am 
    23   22   23 1  
    24   24   25 1  
    25   25   26 1  
    26   25   28 1  
    27   26   27 2  
    28   26   32 am 
    29   28   29 1  
    30   29   30 ar 
    31   29   31 ar 
    32   32   33 1  
    33   33   34 1  
    34   33   36 1  
    35   34   35 ar 
    36   34   39 ar 
    37   36   37 1  
    38   36   38 1  
    39    1   40 1  
    40    1   41 1  
    41    1   42 1  
    42    2   43 1  
    43    5   44 1  
    44    6   45 1  
    45    6   46 1  
    46    7   47 1  
    47    7   48 1  
    48    7   49 1  
    49    8   50 1  
    50    8   51 1  
    51    8   52 1  
    52    9   53 1  
    53   10   54 1  
    54   13   55 1  
    55   13   56 1  
    56   14   57 1  
    57   14   58 1  
    58   18   59 1  
    59   19   60 1  
    60   22   61 1  
    61   22   62 1  
    62   23   63 1  
    63   24   64 1  
    64   25   65 1  
    65   28   66 1  
    66   28   67 1  
    67   32   68 1  
    68   33   69 1  
    69   36   70 1  
    70   37   71 1  
    71   37   72 1  
    72   37   73 1  
    73   38   74 1  
    74   38   75 1  
    75   38   76 1  
@<TRIPOS>SUBSTRUCTURE
     1 ILE         1

