### 
### Created by X-TOOL on Tue Oct 16 15:17:27 2018
### 

@<TRIPOS>MOLECULE
3ng4_ligand
   45    46     1     0     0
SMALL
GAST_HUCK


@<TRIPOS>ATOM
      1 C1        -19.9920  -20.5030  -17.7940 C.3       1 MAL         0.1884
      2 C2        -18.9850  -19.7820  -16.9110 C.3       1 MAL         0.1341
      3 C3        -18.4450  -18.5110  -17.5010 C.3       1 MAL         0.1141
      4 C4        -17.9410  -18.7780  -18.9230 C.3       1 MAL         0.1119
      5 C5        -19.0480  -19.4240  -19.7420 C.3       1 MAL         0.1130
      6 C6        -18.6060  -19.9370  -21.0950 C.3       1 MAL         0.0730
      7 O1        -21.3290  -20.0190  -17.7000 O.3       1 MAL        -0.3401
      8 O2        -19.5940  -19.5290  -15.6790 O.3       1 MAL        -0.3841
      9 O3        -17.4570  -18.0970  -16.5620 O.3       1 MAL        -0.3864
     10 O4        -17.5480  -17.5810  -19.5930 O.3       1 MAL        -0.3865
     11 O5        -19.4700  -20.6110  -19.1050 O.3       1 MAL        -0.3405
     12 O6        -18.5040  -21.3720  -21.0430 O.3       1 MAL        -0.3924
     13 C1'       -24.1380  -23.1970  -17.8410 C.3       1 MAL         0.1854
     14 C2'       -23.3450  -22.9220  -16.5470 C.3       1 MAL         0.1339
     15 C3'       -22.4230  -21.7470  -16.4500 C.3       1 MAL         0.1144
     16 C4'       -22.0620  -21.2430  -17.8230 C.3       1 MAL         0.1184
     17 C5'       -23.2880  -21.0850  -18.6940 C.3       1 MAL         0.1134
     18 C6'       -22.8950  -20.4820  -20.0490 C.3       1 MAL         0.0730
     19 O1'       -25.5030  -23.4610  -17.4890 O.3       1 MAL        -0.3649
     20 O2'       -24.1600  -22.9090  -15.4040 O.3       1 MAL        -0.3841
     21 O3'       -21.2780  -22.1800  -15.7080 O.3       1 MAL        -0.3864
     22 O5'       -23.9380  -22.3330  -18.9570 O.3       1 MAL        -0.3407
     23 O6'       -23.3010  -21.3600  -21.1180 O.3       1 MAL        -0.3924
     24 H1        -20.0434  -21.5324  -17.4098 H         1 MAL         0.0938
     25 H2        -18.1324  -20.4580  -16.7496 H         1 MAL         0.0671
     26 H3        -19.2341  -17.7467  -17.5565 H         1 MAL         0.0648
     27 H4        -17.0780  -19.4579  -18.8685 H         1 MAL         0.0647
     28 H5        -19.8763  -18.7088  -19.8532 H         1 MAL         0.0647
     29 H6        -17.6263  -19.5069  -21.3502 H         1 MAL         0.0584
     30 H7        -19.3436  -19.6474  -21.8579 H         1 MAL         0.0584
     31 H8        -19.9296  -20.3420  -15.3200 H         1 MAL         0.2101
     32 H9        -17.0581  -17.2879  -16.8597 H         1 MAL         0.2100
     33 H10       -16.8553  -17.1566  -19.1005 H         1 MAL         0.2100
     34 H11       -19.3510  -21.7407  -20.8215 H         1 MAL         0.2095
     35 H12       -23.7476  -24.1601  -18.2014 H         1 MAL         0.0935
     36 H13       -22.6900  -23.8004  -16.4504 H         1 MAL         0.0671
     37 H14       -22.9210  -20.9337  -15.9018 H         1 MAL         0.0648
     38 H15       -21.4071  -21.9866  -18.3007 H         1 MAL         0.0651
     39 H16       -23.9942  -20.4136  -18.1836 H         1 MAL         0.0647
     40 H17       -21.8040  -20.3462  -20.0842 H         1 MAL         0.0584
     41 H18       -23.3900  -19.5073  -20.1709 H         1 MAL         0.0584
     42 H19       -25.5285  -24.0428  -16.7384 H         1 MAL         0.2126
     43 H20       -24.7592  -23.6455  -15.4353 H         1 MAL         0.2101
     44 H21       -20.6755  -21.4529  -15.6047 H         1 MAL         0.2100
     45 H22       -23.0532  -20.9777  -21.9517 H         1 MAL         0.2095
@<TRIPOS>BOND
     1    1    2 1  
     2    7    1 1  
     3    1   11 1  
     4    2    3 1  
     5    2    8 1  
     6    3    4 1  
     7    3    9 1  
     8    5    4 1  
     9    4   10 1  
    10    5    6 1  
    11   11    5 1  
    12    6   12 1  
    13   16    7 1  
    14   14   13 1  
    15   13   19 1  
    16   13   22 1  
    17   15   14 1  
    18   14   20 1  
    19   15   16 1  
    20   15   21 1  
    21   16   17 1  
    22   17   18 1  
    23   17   22 1  
    24   18   23 1  
    25    1   24 1  
    26    2   25 1  
    27    3   26 1  
    28    4   27 1  
    29    5   28 1  
    30    6   29 1  
    31    6   30 1  
    32    8   31 1  
    33    9   32 1  
    34   10   33 1  
    35   12   34 1  
    36   13   35 1  
    37   14   36 1  
    38   15   37 1  
    39   16   38 1  
    40   17   39 1  
    41   18   40 1  
    42   18   41 1  
    43   19   42 1  
    44   20   43 1  
    45   21   44 1  
    46   23   45 1  
@<TRIPOS>SUBSTRUCTURE
     1 MAL         1

