### 
### Created by X-TOOL on Mon Sep 10 21:13:03 2018
### 

@<TRIPOS>MOLECULE
3nga_ligand
   36    39     1     0     0
SMALL
GAST_HUCK


@<TRIPOS>ATOM
      1 C1         46.1870   -4.7190   37.6310 C.ar      1 3NG         0.0307
      2 C2         45.1510   -5.5530   38.1220 C.ar      1 3NG         0.0060
      3 C3         44.8110   -5.5150   39.4980 C.ar      1 3NG        -0.0500
      4 C4         45.4650   -4.6550   40.3640 C.ar      1 3NG        -0.0482
      5 C5         46.4950   -3.8370   39.8860 C.ar      1 3NG         0.0098
      6 C6         46.8650   -3.8890   38.5440 C.ar      1 3NG        -0.0344
      7 C7         44.9200   -6.3450   35.8230 C.ar      1 3NG         0.0590
      8 C8         44.5090   -6.3910   37.1880 C.ar      1 3NG         0.0270
      9 N9         46.5700   -4.6750   36.3350 N.ar      1 3NG        -0.2833
     10 C10        45.9740   -5.4540   35.4490 C.ar      1 3NG         0.1523
     11 C11        43.2420   -8.0080   35.3480 C.ar      1 3NG         0.0146
     12 N12        42.8430   -8.0850   36.6370 N.ar      1 3NG        -0.2918
     13 C13        43.4650   -7.2710   37.5140 C.ar      1 3NG         0.0250
     14 C14        44.2670   -7.1940   34.8990 C.ar      1 3NG        -0.0185
     15 N15        46.3750   -5.3960   34.1650 N.pl3     1 3NG        -0.2502
     16 C16        47.3540   -4.6250   33.5300 C.ar      1 3NG         0.0673
     17 C17        48.5820   -4.2830   34.0910 C.ar      1 3NG        -0.0235
     18 C18        49.4850   -3.5240   33.3330 C.ar      1 3NG         0.0315
     19 C19        49.2020   -3.1360   32.0280 C.ar      1 3NG        -0.0590
     20 C20        47.9790   -3.4730   31.4750 C.ar      1 3NG        -0.0704
     21 C21        47.0670   -4.2180   32.2160 C.ar      1 3NG        -0.0371
     22 CL22       50.9880   -3.0520   34.0070 Cl        1 3NG        -0.0736
     23 C23        47.1780   -2.8820   40.7760 C.2       1 3NG         0.0635
     24 O24        48.3020   -2.4380   40.3510 O.co2     1 3NG        -0.5602
     25 O25        46.5560   -2.5460   41.8450 O.co2     1 3NG        -0.5602
     26 H          44.0266   -6.1696   39.8780 H         1 3NG         0.0636
     27 H          45.1784   -4.6152   41.4149 H         1 3NG         0.0629
     28 H          47.6952   -3.2754   38.1941 H         1 3NG         0.0641
     29 H          42.7234   -8.6265   34.6155 H         1 3NG         0.0804
     30 H          43.1328   -7.2984   38.5518 H         1 3NG         0.0861
     31 H          44.5662   -7.2068   33.8509 H         1 3NG         0.0763
     32 H          45.8737   -6.0295   33.5422 H         1 3NG         0.2200
     33 H          48.8368   -4.6000   35.1023 H         1 3NG         0.0546
     34 H          49.9339   -2.5737   31.4482 H         1 3NG         0.0529
     35 H          47.7310   -3.1558   30.4621 H         1 3NG         0.0589
     36 H          46.1114   -4.4912   31.7686 H         1 3NG         0.0542
@<TRIPOS>BOND
     1    2    1 ar 
     2    1    6 ar 
     3    9    1 ar 
     4    2    3 ar 
     5    8    2 ar 
     6    3    4 ar 
     7    4    5 ar 
     8    6    5 ar 
     9    5   23 1  
    10    7    8 ar 
    11    7   10 ar 
    12   14    7 ar 
    13    8   13 ar 
    14   10    9 ar 
    15   10   15 1  
    16   11   12 ar 
    17   11   14 ar 
    18   12   13 ar 
    19   15   16 1  
    20   16   17 ar 
    21   16   21 ar 
    22   17   18 ar 
    23   18   19 ar 
    24   18   22 1  
    25   19   20 ar 
    26   20   21 ar 
    27   23   24 ar 
    28   23   25 ar 
    29    3   26 1  
    30    4   27 1  
    31    6   28 1  
    32   11   29 1  
    33   13   30 1  
    34   14   31 1  
    35   15   32 1  
    36   17   33 1  
    37   19   34 1  
    38   20   35 1  
    39   21   36 1  
@<TRIPOS>SUBSTRUCTURE
     1 3NG         1

