### 
### Created by X-TOOL on Mon Sep 10 21:13:02 2018
### 

@<TRIPOS>MOLECULE
3nht_ligand
   57    59     1     0     0
SMALL
GAST_HUCK


@<TRIPOS>ATOM
      1 CAW        -0.6280   -5.5810   23.6480 C.3       1 U46         0.0443
      2 OAY        -0.3200   -5.1720   24.9380 O.3       1 U46        -0.3950
      3 CAR        -1.7270   -4.7840   22.9180 C.3       1 U46        -0.0282
      4 CAQ        -2.3030   -5.6130   21.7680 C.3       1 U46        -0.0444
      5 CAP        -3.3340   -4.7500   21.0330 C.3       1 U46        -0.0364
      6 CAO        -4.5490   -4.5940   21.9570 C.2       1 U46        -0.0986
      7 CAN        -5.3940   -3.4540   21.7040 C.2       1 U46        -0.0982
      8 CAF        -5.1770   -2.3960   20.6070 C.3       1 U46        -0.0314
      9 CAD        -5.4630   -1.0280   21.2470 C.3       1 U46        -0.0171
     10 CAC        -4.5160   -0.7030   22.4090 C.3       1 U46        -0.0004
     11 CAB        -4.0880    0.7330   22.3090 C.3       1 U46         0.0194
     12 CAT        -3.0730   -0.6040   21.9390 C.3       1 U46         0.0687
     13 OAS        -2.7900    0.4320   20.8820 O.3       1 U46        -0.3702
     14 CAA        -4.1430    1.1440   20.8310 C.3       1 U46         0.0741
     15 CAE        -5.1770    0.1540   20.2990 C.3       1 U46         0.0069
     16 CAG        -6.4650    0.8390   19.8410 C.2       1 U46        -0.0927
     17 CAH        -7.0360    0.4700   18.5840 C.2       1 U46        -0.0983
     18 CAI        -8.3400    1.1430   18.1840 C.3       1 U46        -0.0364
     19 CAJ        -8.6850    1.0450   16.7120 C.3       1 U46        -0.0464
     20 CAK       -10.0980    1.4970   16.3430 C.3       1 U46        -0.0515
     21 CAL       -10.4960    1.4760   14.8690 C.3       1 U46        -0.0532
     22 CAM        -9.8180    2.4580   13.9190 C.3       1 U46        -0.0559
     23 CAV       -10.2130    2.3520   12.4380 C.3       1 U46        -0.0653
     24 H1         -0.9541   -6.6303   23.6989 H         1 U46         0.0557
     25 H2          0.2906   -5.5112   23.0469 H         1 U46         0.0557
     26 H3         -0.0196   -4.2709   24.9201 H         1 U46         0.2094
     27 H4         -1.2965   -3.8548   22.5164 H         1 U46         0.0289
     28 H5         -2.5308   -4.5389   23.6278 H         1 U46         0.0289
     29 H6         -2.7880   -6.5167   22.1655 H         1 U46         0.0285
     30 H7         -1.4979   -5.9028   21.0768 H         1 U46         0.0285
     31 H8         -3.6355   -5.2414   20.0962 H         1 U46         0.0388
     32 H9         -2.9047   -3.7627   20.8075 H         1 U46         0.0388
     33 H10        -4.7604   -5.3025   22.7565 H         1 U46         0.0450
     34 H11        -6.2643   -3.3300   22.3468 H         1 U46         0.0450
     35 H12        -5.8662   -2.5732   19.7682 H         1 U46         0.0392
     36 H13        -4.1395   -2.4346   20.2435 H         1 U46         0.0392
     37 H14        -6.5106   -1.0137   21.5820 H         1 U46         0.0347
     38 H15        -4.7866   -1.1768   23.3641 H         1 U46         0.0336
     39 H16        -4.0863    1.4852   23.1116 H         1 U46         0.0356
     40 H17        -2.2569   -1.1964   22.3783 H         1 U46         0.0603
     41 H18        -4.2286    2.1884   20.4967 H         1 U46         0.0623
     42 H19        -4.7286   -0.2872   19.3966 H         1 U46         0.0453
     43 H20        -6.9398    1.5963   20.4630 H         1 U46         0.0454
     44 H21        -6.5564   -0.2640   17.9381 H         1 U46         0.0450
     45 H22        -8.2692    2.2085   18.4478 H         1 U46         0.0388
     46 H23        -9.1547    0.6767   18.7573 H         1 U46         0.0388
     47 H24        -8.5729   -0.0054   16.4054 H         1 U46         0.0285
     48 H25        -7.9716    1.6683   16.1530 H         1 U46         0.0285
     49 H26       -10.2135    2.5317   16.6981 H         1 U46         0.0267
     50 H27       -10.8011    0.8440   16.8808 H         1 U46         0.0267
     51 H28       -11.5773    1.6721   14.8216 H         1 U46         0.0265
     52 H29       -10.2900    0.4637   14.4912 H         1 U46         0.0265
     53 H30        -8.7321    2.2972   13.9889 H         1 U46         0.0263
     54 H31       -10.0606    3.4756   14.2589 H         1 U46         0.0263
     55 H32        -9.6622    3.1061   11.8568 H         1 U46         0.0230
     56 H33       -11.2941    2.5263   12.3334 H         1 U46         0.0230
     57 H34        -9.9655    1.3478   12.0634 H         1 U46         0.0230
@<TRIPOS>BOND
     1    1    2 1  
     2    1    3 1  
     3    3    4 1  
     4    4    5 1  
     5    5    6 1  
     6    6    7 2  
     7    7    8 1  
     8    8    9 1  
     9    9   10 1  
    10    9   15 1  
    11   10   11 1  
    12   10   12 1  
    13   11   12 1  
    14   11   14 1  
    15   12   13 1  
    16   13   14 1  
    17   14   15 1  
    18   15   16 1  
    19   16   17 2  
    20   17   18 1  
    21   18   19 1  
    22   19   20 1  
    23   20   21 1  
    24   21   22 1  
    25   22   23 1  
    26    1   24 1  
    27    1   25 1  
    28    2   26 1  
    29    3   27 1  
    30    3   28 1  
    31    4   29 1  
    32    4   30 1  
    33    5   31 1  
    34    5   32 1  
    35    6   33 1  
    36    7   34 1  
    37    8   35 1  
    38    8   36 1  
    39    9   37 1  
    40   10   38 1  
    41   11   39 1  
    42   12   40 1  
    43   14   41 1  
    44   15   42 1  
    45   16   43 1  
    46   17   44 1  
    47   18   45 1  
    48   18   46 1  
    49   19   47 1  
    50   19   48 1  
    51   20   49 1  
    52   20   50 1  
    53   21   51 1  
    54   21   52 1  
    55   22   53 1  
    56   22   54 1  
    57   23   55 1  
    58   23   56 1  
    59   23   57 1  
@<TRIPOS>SUBSTRUCTURE
     1 U46         1

