### 
### Created by X-TOOL on Mon Sep 10 21:13:07 2018
### 

@<TRIPOS>MOLECULE
3ni5_ligand
   45    46     1     0     0
SMALL
GAST_HUCK


@<TRIPOS>ATOM
      1 OAA         4.0640    9.9060   11.7140 O.2       1 C1H         0.1898
      2 NAB         3.0920    9.3570   12.5580 N.2       1 C1H         0.4506
      3 OAC        -2.9470    9.1130    8.2640 O.2       1 C1H        -0.3568
      4 OAD        -6.5740    5.2820   12.7820 O.2       1 C1H        -0.1429
      5 OAE         2.0860    8.6000   12.0180 O.3       1 C1H        -0.1139
      6 CAF         1.0010    8.0460   12.7800 C.3       1 C1H         0.1117
      7 CAG        -0.0090    9.1060   13.2270 C.3       1 C1H        -0.0187
      8 CAH        -1.2860    9.0800   12.3900 C.3       1 C1H        -0.0225
      9 CAI        -1.0090    9.2470   10.8910 C.3       1 C1H         0.0758
     10 OAJ        -2.0820    9.9450   10.2570 O.3       1 C1H        -0.2775
     11 CAK        -3.0980    9.2360    9.4760 C.2       1 C1H         0.2633
     12 CAL        -4.3300    8.6600   10.1360 C.ar      1 C1H         0.0639
     13 CAM        -4.2130    7.6810   11.1460 C.ar      1 C1H        -0.0132
     14 CAN        -5.3540    7.1230   11.7410 C.ar      1 C1H         0.1216
     15 SAO        -5.3510    6.0170   12.9260 S.o2      1 C1H         0.0993
     16 NAP        -4.1910    5.0330   13.1930 N.am      1 C1H        -0.1423
     17 CAQ        -4.3150    3.9260   14.0450 C.2       1 C1H         0.2195
     18 NAR        -3.3090    3.0360   14.3480 N.2       1 C1H        -0.2658
     19 NAS        -3.7040    1.9880   15.2520 N.2       1 C1H        -0.2520
     20 OAT        -5.3160    1.0230   18.1240 O.2       1 C1H        -0.1454
     21 CAU        -5.5950    9.0980    9.7130 C.ar      1 C1H        -0.0405
     22 CAV        -6.7400    8.5660   10.2950 C.ar      1 C1H        -0.0540
     23 CAW        -6.6040    7.6050   11.3040 C.ar      1 C1H        -0.0299
     24 OAX        -5.4790    6.7900   14.1280 O.2       1 C1H        -0.1429
     25 SAY        -5.7530    3.4660   14.8880 S.3       1 C1H         0.0830
     26 CAZ        -5.0120    2.1020   15.6590 C.2       1 C1H         0.2540
     27 SBA        -5.8430    1.0660   16.7120 S.o2      1 C1H         0.0983
     28 NBB        -5.7120   -0.3010   16.1660 N.am      1 C1H        -0.2566
     29 OBC        -7.2570    1.5060   16.7620 O.2       1 C1H        -0.1454
     30 ONA         3.1630    9.5750   13.7630 O.2       1 C1H         0.1898
     31 H1          1.4135    7.5542   13.6733 H         1 C1H         0.0658
     32 H2          0.4792    7.3022   12.1599 H         1 C1H         0.0658
     33 H3          0.4553   10.0988   13.1329 H         1 C1H         0.0294
     34 H4         -0.2721    8.9224   14.2792 H         1 C1H         0.0294
     35 H5         -1.9415    9.8990   12.7210 H         1 C1H         0.0292
     36 H6         -1.7931    8.1170   12.5499 H         1 C1H         0.0292
     37 H7         -0.9013    8.2540   10.4303 H         1 C1H         0.0611
     38 H8         -0.0776    9.8166   10.7565 H         1 C1H         0.0611
     39 H9         -3.2294    7.3564   11.4657 H         1 C1H         0.0692
     40 H10        -3.3142    5.1920   12.7391 H         1 C1H         0.2341
     41 H11        -5.6787    9.8484    8.9352 H         1 C1H         0.0672
     42 H12        -7.7228    8.8902    9.9726 H         1 C1H         0.0630
     43 H13        -7.5011    7.2139   11.7703 H         1 C1H         0.0674
     44 H14        -6.0070   -0.4962   15.2306 H         1 C1H         0.1638
     45 H15        -5.3284   -1.0308   16.7319 H         1 C1H         0.1638
@<TRIPOS>BOND
     1    2    1 2  
     2    5    2 1  
     3    2   30 2  
     4   11    3 2  
     5   15    4 2  
     6    6    5 1  
     7    7    6 1  
     8    8    7 1  
     9    9    8 1  
    10   10    9 1  
    11   11   10 1  
    12   12   11 1  
    13   13   12 ar 
    14   12   21 ar 
    15   14   13 ar 
    16   15   14 1  
    17   14   23 ar 
    18   16   15 am 
    19   15   24 2  
    20   17   16 1  
    21   17   18 2  
    22   25   17 1  
    23   19   18 1  
    24   26   19 2  
    25   27   20 2  
    26   22   21 ar 
    27   23   22 ar 
    28   26   25 1  
    29   26   27 1  
    30   27   28 am 
    31   27   29 2  
    32    6   31 1  
    33    6   32 1  
    34    7   33 1  
    35    7   34 1  
    36    8   35 1  
    37    8   36 1  
    38    9   37 1  
    39    9   38 1  
    40   13   39 1  
    41   16   40 1  
    42   21   41 1  
    43   22   42 1  
    44   23   43 1  
    45   28   44 1  
    46   28   45 1  
@<TRIPOS>SUBSTRUCTURE
     1 C1H         1

