### 
### Created by X-TOOL on Mon Sep 10 21:13:02 2018
### 

@<TRIPOS>MOLECULE
3nif_ligand
   34    36     1     0     0
SMALL
GAST_HUCK


@<TRIPOS>ATOM
      1 C1         51.4400  108.9700   73.5070 C.2       1 NIF         0.1279
      2 N1         52.4310  108.1930   73.0590 N.2       1 NIF        -0.1564
      3 O1         54.0850  106.1150   72.4120 O.2       1 NIF        -0.4214
      4 S1         50.1430  107.9760   74.3730 S.3       1 NIF         0.0746
      5 C2         51.0660  106.5650   74.0400 C.2       1 NIF         0.2643
      6 N2         52.2190  106.8240   73.3650 N.am      1 NIF        -0.0814
      7 C3         51.6520  104.1980   74.0130 C.2       1 NIF         0.0698
      8 N3         50.7460  105.3490   74.3780 N.2       1 NIF        -0.2704
      9 C4         52.7910  104.4540   73.3620 C.2       1 NIF         0.0021
     10 N4         50.0420  100.5010   75.3810 N.4       1 NIF         0.2299
     11 C5         53.1030  105.8350   73.0090 C.2       1 NIF         0.2139
     12 N5         51.1650  102.9160   74.4850 N.pl3     1 NIF        -0.2874
     13 C6         51.3350  110.4810   73.3740 C.3       1 NIF         0.0119
     14 C7         49.8680  110.9000   73.5130 C.3       1 NIF        -0.0504
     15 C8         49.9770  102.9380   75.2910 C.3       1 NIF         0.0714
     16 C9         49.1590  101.6750   75.0930 C.3       1 NIF        -0.0126
     17 C10        51.0100  100.4530   74.2730 C.3       1 NIF        -0.0126
     18 C11        51.8730  101.7200   74.2440 C.3       1 NIF         0.0714
     19 H1         53.4735  103.6468   73.0999 H         1 NIF         0.0130
     20 H2         49.4997   99.6519   75.4115 H         1 NIF         0.2015
     21 H3         50.5192  100.6268   76.2599 H         1 NIF         0.2015
     22 H4         51.7139  110.7905   72.3888 H         1 NIF         0.0488
     23 H5         51.9310  110.9618   74.1637 H         1 NIF         0.0488
     24 H6         49.7882  111.9929   73.4173 H         1 NIF         0.0257
     25 H7         49.4898  110.5897   74.4982 H         1 NIF         0.0257
     26 H8         49.2727  110.4184   72.7233 H         1 NIF         0.0257
     27 H9         49.3673  103.8089   75.0085 H         1 NIF         0.0577
     28 H10        50.2628  103.0185   76.3501 H         1 NIF         0.0577
     29 H11        48.3011  101.6744   75.7814 H         1 NIF         0.0834
     30 H12        48.7968  101.6239   74.0556 H         1 NIF         0.0834
     31 H13        50.4644  100.3673   73.3217 H         1 NIF         0.0834
     32 H14        51.6618   99.5764   74.4021 H         1 NIF         0.0834
     33 H15        52.6533  101.6218   75.0131 H         1 NIF         0.0577
     34 H16        52.3429  101.7929   73.2521 H         1 NIF         0.0577
@<TRIPOS>BOND
     1    2    1 2  
     2    4    1 1  
     3    1   13 1  
     4    6    2 1  
     5   11    3 2  
     6    5    4 1  
     7    5    6 1  
     8    8    5 2  
     9   11    6 am 
    10    7    8 1  
    11    7    9 2  
    12   12    7 1  
    13    9   11 1  
    14   16   10 1  
    15   10   17 1  
    16   15   12 1  
    17   12   18 1  
    18   13   14 1  
    19   15   16 1  
    20   17   18 1  
    21    9   19 1  
    22   10   20 1  
    23   10   21 1  
    24   13   22 1  
    25   13   23 1  
    26   14   24 1  
    27   14   25 1  
    28   14   26 1  
    29   15   27 1  
    30   15   28 1  
    31   16   29 1  
    32   16   30 1  
    33   17   31 1  
    34   17   32 1  
    35   18   33 1  
    36   18   34 1  
@<TRIPOS>SUBSTRUCTURE
     1 NIF         1

