### 
### Created by X-TOOL on Mon Sep 10 21:13:04 2018
### 

@<TRIPOS>MOLECULE
3nii_ligand
   54    53     1     0     0
SMALL
GAST_HUCK


@<TRIPOS>ATOM
      1 N          26.2120   12.5890   -9.1830 N.4       1 LYS         0.2379
      2 CA         26.8690   11.3030   -8.8120 C.3       1 LYS         0.0650
      3 C          27.4260   11.3720   -7.3980 C.2       1 LYS         0.2267
      4 O          27.5140   12.4510   -6.8160 O.2       1 LYS        -0.3907
      5 CB         27.9890   10.9600   -9.8020 C.3       1 LYS         0.0080
      6 CG         27.5730   10.9590  -11.2700 C.3       1 LYS        -0.0410
      7 CD         26.7090    9.7570  -11.6270 C.3       1 LYS        -0.0123
      8 CE         26.3760    9.7440  -13.1100 C.3       1 LYS        -0.0354
      9 NZ         27.5670    9.4470  -13.9540 N.4       1 LYS         0.2185
     10 N          27.7910   10.2140   -6.8520 N.am      1 ILE        -0.2608
     11 CA         28.4030   10.1360   -5.5280 C.3       1 ILE         0.1336
     12 C          29.9110    9.9260   -5.6410 C.2       1 ILE         0.2036
     13 O          30.3730    9.0360   -6.3610 O.2       1 ILE        -0.3944
     14 CB         27.7360    9.0330   -4.6470 C.3       1 ILE        -0.0037
     15 CG1        26.4370    9.5560   -4.0110 C.3       1 ILE        -0.0491
     16 CG2        28.6950    8.4920   -3.5740 C.3       1 ILE        -0.0582
     17 CD1        26.5810   10.7880   -3.1160 C.3       1 ILE        -0.0648
     18 N          30.6660   10.7660   -4.9350 N.am      1 ALA        -0.2697
     19 CA         32.1230   10.6680   -4.8930 C.3       1 ALA         0.0916
     20 C          32.6000   10.1640   -3.5320 C.2       1 ALA         0.0598
     21 O          31.9870    9.2415   -2.9313 O.co2     1 ALA        -0.5666
     22 CB         32.7570   12.0140   -5.2180 C.3       1 ALA        -0.0300
     23 H          25.4720   12.7971   -8.5126 H         1 LYS         0.2015
     24 H          26.9037   13.3386   -9.1713 H         1 LYS         0.2015
     25 H          25.8125   12.5080  -10.1180 H         1 LYS         0.2015
     26 H          26.1153   10.5166   -8.8524 H         1 LYS         0.1098
     27 H          28.3179    9.9477   -9.5671 H         1 LYS         0.0346
     28 H          28.7533   11.7293   -9.6918 H         1 LYS         0.0346
     29 H          28.4774   10.9168  -11.8770 H         1 LYS         0.0270
     30 H          26.9899   11.8609  -11.4561 H         1 LYS         0.0270
     31 H          25.7792    9.8152  -11.0611 H         1 LYS         0.0317
     32 H          27.2591    8.8477  -11.3849 H         1 LYS         0.0317
     33 H          26.0064   10.7326  -13.3824 H         1 LYS         0.0813
     34 H          25.6353    8.9634  -13.2835 H         1 LYS         0.0813
     35 H          27.2947    9.4492  -14.9370 H         1 LYS         0.1994
     36 H          28.2803   10.1588  -13.7959 H         1 LYS         0.1994
     37 H          27.9387    8.5303  -13.7050 H         1 LYS         0.1994
     38 H          27.6382    9.3522   -7.3758 H         1 ILE         0.1885
     39 H          28.2325   11.0887   -5.0265 H         1 ILE         0.0803
     40 H          27.4883    8.1992   -5.3038 H         1 ILE         0.0345
     41 H          26.0630    8.7550   -3.3733 H         1 ILE         0.0267
     42 H          25.7877    9.8497   -4.8358 H         1 ILE         0.0267
     43 H          29.5709    8.0584   -4.0567 H         1 ILE         0.0235
     44 H          29.0050    9.3078   -2.9209 H         1 ILE         0.0235
     45 H          28.1867    7.7275   -2.9864 H         1 ILE         0.0235
     46 H          27.2538   10.5586   -2.2897 H         1 ILE         0.0230
     47 H          26.9884   11.6137   -3.6994 H         1 ILE         0.0230
     48 H          25.6031   11.0666   -2.7234 H         1 ILE         0.0230
     49 H          30.2091   11.5066   -4.4029 H         1 ALA         0.1875
     50 H          32.4355    9.9459   -5.6473 H         1 ALA         0.0723
     51 O          33.6212   10.6783   -3.0026 O.co2     1 ALA        -0.5666
     52 H          32.4509   12.3268   -6.2163 H         1 ALA         0.0270
     53 H          32.4298   12.7541   -4.4877 H         1 ALA         0.0270
     54 H          33.8424   11.9211   -5.1818 H         1 ALA         0.0270
@<TRIPOS>BOND
     1    1    2 1  
     2    2    3 1  
     3    2    5 1  
     4    3    4 2  
     5    3   10 am 
     6    5    6 1  
     7    6    7 1  
     8    7    8 1  
     9    8    9 1  
    10   10   11 1  
    11   11   12 1  
    12   11   14 1  
    13   12   13 2  
    14   12   18 am 
    15   14   15 1  
    16   14   16 1  
    17   15   17 1  
    18   18   19 1  
    19   19   20 1  
    20   19   22 1  
    21   20   21 ar 
    22    1   23 1  
    23    1   24 1  
    24    1   25 1  
    25    2   26 1  
    26    5   27 1  
    27    5   28 1  
    28    6   29 1  
    29    6   30 1  
    30    7   31 1  
    31    7   32 1  
    32    8   33 1  
    33    8   34 1  
    34    9   35 1  
    35    9   36 1  
    36    9   37 1  
    37   10   38 1  
    38   11   39 1  
    39   14   40 1  
    40   15   41 1  
    41   15   42 1  
    42   16   43 1  
    43   16   44 1  
    44   16   45 1  
    45   17   46 1  
    46   17   47 1  
    47   17   48 1  
    48   18   49 1  
    49   19   50 1  
    50   20   51 ar 
    51   22   52 1  
    52   22   53 1  
    53   22   54 1  
@<TRIPOS>SUBSTRUCTURE
     1 LYS         1

