### 
### Created by X-TOOL on Mon Sep 10 21:13:04 2018
### 

@<TRIPOS>MOLECULE
3nij_ligand
   49    49     1     0     0
SMALL
GAST_HUCK


@<TRIPOS>ATOM
      1 N          26.3640   12.4030   -9.0050 N.4       1 HIS         0.2390
      2 CA         26.9970   11.1070   -8.6310 C.3       1 HIS         0.0708
      3 C          27.5570   11.1580   -7.2200 C.2       1 HIS         0.2282
      4 O          27.7730   12.2360   -6.6730 O.2       1 HIS        -0.3906
      5 CB         28.0940   10.7320   -9.6300 C.3       1 HIS         0.0347
      6 CG         27.5820   10.4640  -11.0100 C.2       1 HIS         0.0005
      7 ND1        27.3800    9.1900  -11.4940 N.2       1 HIS        -0.3251
      8 CD2        27.2140   11.3070  -12.0030 C.2       1 HIS         0.0293
      9 CE1        26.9160    9.2590  -12.7290 C.2       1 HIS         0.0907
     10 NE2        26.8060   10.5330  -13.0620 N.pl3     1 HIS        -0.2752
     11 N          27.7870    9.9860   -6.6380 N.am      1 ILE        -0.2606
     12 CA         28.3130    9.8910   -5.2810 C.3       1 ILE         0.1336
     13 C          29.7520    9.3590   -5.2880 C.2       1 ILE         0.2036
     14 O          30.2220    8.8480   -6.3090 O.2       1 ILE        -0.3944
     15 CB         27.3710    9.0470   -4.3690 C.3       1 ILE        -0.0037
     16 CG1        27.3150    9.6280   -2.9520 C.3       1 ILE        -0.0491
     17 CG2        27.7380    7.5550   -4.3900 C.3       1 ILE        -0.0582
     18 CD1        26.3960   10.8390   -2.8190 C.3       1 ILE        -0.0648
     19 N          30.4420    9.4970   -4.1550 N.am      1 ALA        -0.2697
     20 CA         31.8510    9.1080   -4.0240 C.3       1 ALA         0.0916
     21 C          32.1050    7.6380   -4.3700 C.2       1 ALA         0.0598
     22 O          32.8981    7.3250   -5.2977 O.co2     1 ALA        -0.5666
     23 CB         32.3540    9.4170   -2.6200 C.3       1 ALA        -0.0300
     24 H          25.6373   12.6332   -8.3272 H         1 HIS         0.2016
     25 H          27.0720   13.1372   -9.0088 H         1 HIS         0.2016
     26 H          25.9509   12.3226   -9.9341 H         1 HIS         0.2016
     27 H          26.2252   10.3379   -8.6604 H         1 HIS         0.1116
     28 H          28.5626    9.8154   -9.2717 H         1 HIS         0.0453
     29 H          28.7798   11.5768   -9.6944 H         1 HIS         0.0453
     30 H          27.2371   12.3962  -11.9688 H         1 HIS         0.0729
     31 H          26.6664    8.4097  -13.3650 H         1 HIS         0.1199
     32 H          26.4724   10.8846  -13.9595 H         1 HIS         0.2361
     33 H          27.5902    9.1288   -7.1546 H         1 ILE         0.1885
     34 H          28.3457   10.8935   -4.8545 H         1 ILE         0.0803
     35 H          26.3622    9.1103   -4.7769 H         1 ILE         0.0345
     36 H          28.3225    9.9546   -2.6945 H         1 ILE         0.0267
     37 H          26.9241    8.8497   -2.2967 H         1 ILE         0.0267
     38 H          27.6565    7.1764   -5.4089 H         1 ILE         0.0235
     39 H          28.7607    7.4287   -4.0348 H         1 ILE         0.0235
     40 H          27.0562    7.0053   -3.7411 H         1 ILE         0.0235
     41 H          26.7438   11.6319   -3.4811 H         1 ILE         0.0230
     42 H          25.3802   10.5545   -3.0932 H         1 ILE         0.0230
     43 H          26.4099   11.1926   -1.7880 H         1 ILE         0.0230
     44 H          29.9685    9.8911   -3.3420 H         1 ALA         0.1875
     45 H          32.4077    9.6983   -4.7519 H         1 ALA         0.0723
     46 O          31.5154    6.7331   -3.7210 O.co2     1 ALA        -0.5666
     47 H          32.2592   10.4858   -2.4285 H         1 ALA         0.0270
     48 H          31.7611    8.8623   -1.8928 H         1 ALA         0.0270
     49 H          33.4004    9.1232   -2.5375 H         1 ALA         0.0270
@<TRIPOS>BOND
     1    1    2 1  
     2    2    3 1  
     3    2    5 1  
     4    3    4 2  
     5    3   11 am 
     6    5    6 1  
     7    6    7 1  
     8    6    8 2  
     9    7    9 2  
    10    8   10 1  
    11    9   10 1  
    12   11   12 1  
    13   12   13 1  
    14   12   15 1  
    15   13   14 2  
    16   13   19 am 
    17   15   16 1  
    18   15   17 1  
    19   16   18 1  
    20   19   20 1  
    21   20   21 1  
    22   20   23 1  
    23   21   22 ar 
    24    1   24 1  
    25    1   25 1  
    26    1   26 1  
    27    2   27 1  
    28    5   28 1  
    29    5   29 1  
    30    8   30 1  
    31    9   31 1  
    32   10   32 1  
    33   11   33 1  
    34   12   34 1  
    35   15   35 1  
    36   16   36 1  
    37   16   37 1  
    38   17   38 1  
    39   17   39 1  
    40   17   40 1  
    41   18   41 1  
    42   18   42 1  
    43   18   43 1  
    44   19   44 1  
    45   20   45 1  
    46   21   46 ar 
    47   23   47 1  
    48   23   48 1  
    49   23   49 1  
@<TRIPOS>SUBSTRUCTURE
     1 HIS         1

