### 
### Created by X-TOOL on Mon Sep 10 21:13:03 2018
### 

@<TRIPOS>MOLECULE
3nik_ligand
   62    61     1     0     0
SMALL
GAST_HUCK


@<TRIPOS>ATOM
      1 N         -39.8440   12.8100   -4.7970 N.4       1 ARG         0.2379
      2 CA        -40.7610   13.0040   -5.9630 C.3       1 ARG         0.0651
      3 C         -41.1250   11.6810   -6.6190 C.2       1 ARG         0.2267
      4 O         -40.4720   10.6650   -6.4060 O.2       1 ARG        -0.3907
      5 CB        -40.1210   13.9130   -7.0200 C.3       1 ARG         0.0110
      6 CG        -39.6460   15.2520   -6.5200 C.3       1 ARG        -0.0125
      7 CD        -40.7960   16.1910   -6.1360 C.3       1 ARG         0.0629
      8 NE        -40.3220   17.5750   -6.0820 N.pl3     1 ARG        -0.2723
      9 CZ        -39.5240   18.0620   -5.1350 C.cat     1 ARG         0.2882
     10 NH1       -39.1440   19.3330   -5.1800 N.pl3     1 ARG        -0.2849
     11 NH2       -39.1090   17.2890   -4.1340 N.pl3     1 ARG        -0.2849
     12 N         -42.1840   11.7010   -7.4190 N.am      1 GLU        -0.2609
     13 CA        -42.5140   10.5730   -8.2690 C.3       1 GLU         0.1326
     14 C         -43.1450   11.1080   -9.5360 C.2       1 GLU         0.2040
     15 O         -44.1390   11.8430   -9.4930 O.2       1 GLU        -0.3944
     16 CB        -43.4690    9.5950   -7.5780 C.3       1 GLU        -0.0008
     17 CG        -43.4940    8.1960   -8.2220 C.3       1 GLU         0.0044
     18 CD        -44.3970    8.0940   -9.4530 C.2       1 GLU         0.0350
     19 OE1       -45.4740    8.7210   -9.4620 O.co2     1 GLU        -0.5690
     20 OE2       -44.0380    7.3680  -10.4080 O.co2     1 GLU        -0.5690
     21 N         -42.5590   10.7340  -10.6620 N.am      1 ALA        -0.2640
     22 CA        -43.1050   11.1090  -11.9550 C.3       1 ALA         0.1282
     23 C         -43.0680    9.8990  -12.8640 C.2       1 ALA         0.2031
     24 O         -42.0270    9.5950  -13.4480 O.2       1 ALA        -0.3944
     25 CB        -42.3070   12.2730  -12.5520 C.3       1 ALA        -0.0244
     26 N         -44.1990    9.1990  -12.9520 N.am      1 ALA        -0.2698
     27 CA        -44.3430    8.0190  -13.8100 C.3       1 ALA         0.0916
     28 C         -44.0730    8.3400  -15.2780 C.2       1 ALA         0.0598
     29 O         -44.4680    9.3860  -15.7960 O.co2     1 ALA        -0.5666
     30 CB        -45.7350    7.4100  -13.6530 C.3       1 ALA        -0.0300
     31 OXT       -43.4460    7.5530  -15.9840 O.co2     1 ALA        -0.5666
     32 H1        -39.6253   13.7054   -4.3890 H         1 ARG         0.2015
     33 H2        -38.9942   12.3660   -5.1080 H         1 ARG         0.2015
     34 H3        -40.2946   12.2280   -4.1083 H         1 ARG         0.2015
     35 H4        -41.6829   13.4804   -5.5981 H         1 ARG         0.1098
     36 H5        -40.8654   14.0907   -7.8101 H         1 ARG         0.0347
     37 H6        -39.2555   13.3829   -7.4441 H         1 ARG         0.0347
     38 H7        -39.0519   15.7312   -7.3121 H         1 ARG         0.0302
     39 H8        -39.0142   15.0913   -5.6340 H         1 ARG         0.0302
     40 H9        -41.1870   15.9021   -5.1493 H         1 ARG         0.0689
     41 H10       -41.5968   16.1102   -6.8857 H         1 ARG         0.0689
     42 H11       -40.6272   18.2159   -6.8283 H         1 ARG         0.2642
     43 H12       -38.5264   19.7121   -4.4481 H         1 ARG         0.2615
     44 H13       -39.4668   19.9402   -5.9468 H         1 ARG         0.2615
     45 H14       -39.3991   16.3016   -4.0914 H         1 ARG         0.2615
     46 H15       -38.4977   17.6782   -3.4020 H         1 ARG         0.2615
     47 H16       -42.7679   12.5127   -7.4361 H         1 GLU         0.1885
     48 H17       -41.5884   10.0359   -8.5233 H         1 GLU         0.0801
     49 H18       -44.4851   10.0143   -7.6186 H         1 GLU         0.0330
     50 H19       -43.1579    9.4887   -6.5283 H         1 GLU         0.0330
     51 H20       -43.8504    7.4757   -7.4709 H         1 GLU         0.0433
     52 H21       -42.4686    7.9351   -8.5226 H         1 GLU         0.0433
     53 H22       -41.7253   10.1833  -10.6222 H         1 ALA         0.1883
     54 H23       -44.1498   11.4283  -11.8266 H         1 ALA         0.0797
     55 H24       -42.7316   12.5454  -13.5295 H         1 ALA         0.0277
     56 H25       -41.2572   11.9705  -12.6797 H         1 ALA         0.0277
     57 H26       -42.3595   13.1387  -11.8754 H         1 ALA         0.0277
     58 H27       -44.9852    9.4921  -12.4079 H         1 ALA         0.1875
     59 H28       -43.6025    7.2734  -13.4848 H         1 ALA         0.0723
     60 H29       -45.8244    6.5272  -14.3032 H         1 ALA         0.0270
     61 H30       -46.4946    8.1531  -13.9372 H         1 ALA         0.0270
     62 H31       -45.8884    7.1110  -12.6056 H         1 ALA         0.0270
@<TRIPOS>BOND
     1    1    2 1  
     2    2    3 1  
     3    2    5 1  
     4    3    4 2  
     5    3   12 am 
     6    5    6 1  
     7    6    7 1  
     8    7    8 1  
     9    8    9 ar 
    10    9   10 ar 
    11    9   11 ar 
    12   12   13 1  
    13   13   14 1  
    14   13   16 1  
    15   14   15 2  
    16   14   21 am 
    17   16   17 1  
    18   17   18 1  
    19   18   19 ar 
    20   18   20 ar 
    21   21   22 1  
    22   22   23 1  
    23   22   25 1  
    24   23   24 2  
    25   23   26 am 
    26   26   27 1  
    27   27   28 1  
    28   27   30 1  
    29   28   29 ar 
    30   28   31 ar 
    31    1   32 1  
    32    1   33 1  
    33    1   34 1  
    34    2   35 1  
    35    5   36 1  
    36    5   37 1  
    37    6   38 1  
    38    6   39 1  
    39    7   40 1  
    40    7   41 1  
    41    8   42 1  
    42   10   43 1  
    43   10   44 1  
    44   11   45 1  
    45   11   46 1  
    46   12   47 1  
    47   13   48 1  
    48   16   49 1  
    49   16   50 1  
    50   17   51 1  
    51   17   52 1  
    52   21   53 1  
    53   22   54 1  
    54   25   55 1  
    55   25   56 1  
    56   25   57 1  
    57   26   58 1  
    58   27   59 1  
    59   30   60 1  
    60   30   61 1  
    61   30   62 1  
@<TRIPOS>SUBSTRUCTURE
     1 ARG         1

