### 
### Created by X-TOOL on Mon Sep 10 21:13:04 2018
### 

@<TRIPOS>MOLECULE
3nil_ligand
   49    48     1     0     0
SMALL
GAST_HUCK


@<TRIPOS>ATOM
      1 N         -39.3400   13.1910   -5.4950 N.4       1 ARG         0.2379
      2 CA        -40.2600   13.2810   -6.6670 C.3       1 ARG         0.0651
      3 C         -40.5660   11.8930   -7.2280 C.2       1 ARG         0.2268
      4 O         -39.8790   10.9220   -6.9030 O.2       1 ARG        -0.3907
      5 CB        -39.6590   14.1760   -7.7680 C.3       1 ARG         0.0110
      6 CG        -39.0440   15.5010   -7.3000 C.3       1 ARG        -0.0125
      7 CD        -40.0760   16.4260   -6.6710 C.3       1 ARG         0.0629
      8 NE        -39.6500   17.8270   -6.6870 N.pl3     1 ARG        -0.2723
      9 CZ        -38.9100   18.4170   -5.7510 C.cat     1 ARG         0.2882
     10 NH1       -38.4840   17.7410   -4.6820 N.pl3     1 ARG        -0.2849
     11 NH2       -38.5930   19.6970   -5.8840 N.pl3     1 ARG        -0.2849
     12 N         -41.6010   11.8020   -8.0630 N.am      1 ASP        -0.2595
     13 CA        -41.9140   10.5600   -8.7710 C.3       1 ASP         0.1424
     14 C         -41.4030   10.5990  -10.2170 C.2       1 ASP         0.2050
     15 O         -41.6270   11.5730  -10.9420 O.2       1 ASP        -0.3943
     16 CB        -43.4220   10.2790   -8.7270 C.3       1 ASP         0.0406
     17 CG        -43.8220    9.0170   -9.4950 C.2       1 ASP         0.0393
     18 OD1       -42.9690    8.3810  -10.1500 O.co2     1 ASP        -0.5688
     19 OD2       -45.0100    8.6550   -9.4490 O.co2     1 ASP        -0.5688
     20 N         -40.7230    9.5240  -10.6190 N.am      1 ALA        -0.2697
     21 CA        -40.1560    9.3960  -11.9610 C.3       1 ALA         0.0916
     22 C         -40.7710    8.2290  -12.7410 C.2       1 ALA         0.0598
     23 O         -41.4437    7.3379  -12.1571 O.co2     1 ALA        -0.5666
     24 CB        -38.6420    9.2540  -11.8840 C.3       1 ALA        -0.0300
     25 H         -39.7583   12.5948   -4.7809 H         1 ARG         0.2015
     26 H         -38.4495   12.7929   -5.7931 H         1 ARG         0.2015
     27 H         -39.1858   14.1241   -5.1129 H         1 ARG         0.2015
     28 H         -41.1924   13.7296   -6.3241 H         1 ARG         0.1098
     29 H         -40.4832   14.4394   -8.4308 H         1 ARG         0.0347
     30 H         -38.8467   13.6041   -8.2165 H         1 ARG         0.0347
     31 H         -38.6238   16.0050   -8.1703 H         1 ARG         0.0302
     32 H         -38.2881   15.2761   -6.5476 H         1 ARG         0.0302
     33 H         -40.2107   16.1254   -5.6319 H         1 ARG         0.0689
     34 H         -40.9975   16.3462   -7.2477 H         1 ARG         0.0689
     35 H         -39.9443   18.3971   -7.4799 H         1 ARG         0.2642
     36 H         -38.7247   16.7559   -4.5723 H         1 ARG         0.2615
     37 H         -37.9178   18.2095   -3.9747 H         1 ARG         0.2615
     38 H         -38.9156   20.2204   -6.6979 H         1 ARG         0.2615
     39 H         -38.0264   20.1587   -5.1725 H         1 ARG         0.2615
     40 H         -42.1910   12.6204   -8.2126 H         1 ASP         0.1886
     41 H         -41.3996    9.7442   -8.2632 H         1 ASP         0.0819
     42 H         -43.9294   11.1240   -9.1924 H         1 ASP         0.0478
     43 H         -43.7008   10.1332   -7.6834 H         1 ASP         0.0478
     44 H         -40.5926    8.7562   -9.9603 H         1 ALA         0.1875
     45 H         -40.4000   10.3075  -12.5066 H         1 ALA         0.0723
     46 O         -40.6011    8.1594  -13.9875 O.co2     1 ALA        -0.5666
     47 H         -38.2198   10.1354  -11.4013 H         1 ALA         0.0270
     48 H         -38.3907    8.3655  -11.3047 H         1 ALA         0.0270
     49 H         -38.2355    9.1598  -12.8910 H         1 ALA         0.0270
@<TRIPOS>BOND
     1    1    2 1  
     2    2    3 1  
     3    2    5 1  
     4    3    4 2  
     5    3   12 am 
     6    5    6 1  
     7    6    7 1  
     8    7    8 1  
     9    8    9 ar 
    10    9   10 ar 
    11    9   11 ar 
    12   12   13 1  
    13   13   14 1  
    14   13   16 1  
    15   14   15 2  
    16   14   20 am 
    17   16   17 1  
    18   17   18 ar 
    19   17   19 ar 
    20   20   21 1  
    21   21   22 1  
    22   21   24 1  
    23   22   23 ar 
    24    1   25 1  
    25    1   26 1  
    26    1   27 1  
    27    2   28 1  
    28    5   29 1  
    29    5   30 1  
    30    6   31 1  
    31    6   32 1  
    32    7   33 1  
    33    7   34 1  
    34    8   35 1  
    35   10   36 1  
    36   10   37 1  
    37   11   38 1  
    38   11   39 1  
    39   12   40 1  
    40   13   41 1  
    41   16   42 1  
    42   16   43 1  
    43   20   44 1  
    44   21   45 1  
    45   22   46 ar 
    46   24   47 1  
    47   24   48 1  
    48   24   49 1  
@<TRIPOS>SUBSTRUCTURE
     1 ARG         1

