### 
### Created by X-TOOL on Mon Sep 10 21:13:03 2018
### 

@<TRIPOS>MOLECULE
3nim_ligand
   71    70     1     0     0
SMALL
GAST_HUCK


@<TRIPOS>ATOM
      1 N         -30.4490   -2.7610   -4.9540 N.4       1 ARG         0.2379
      2 CA        -30.9280   -3.6120   -6.0840 C.3       1 ARG         0.0651
      3 C         -29.8220   -4.5240   -6.6050 C.2       1 ARG         0.2267
      4 O         -28.6550   -4.3700   -6.2400 O.2       1 ARG        -0.3907
      5 CB        -31.4510   -2.7430   -7.2330 C.3       1 ARG         0.0110
      6 CG        -32.2670   -1.5280   -6.8240 C.3       1 ARG        -0.0125
      7 CD        -33.6390   -1.9180   -6.3260 C.3       1 ARG         0.0629
      8 NE        -34.6040   -0.8280   -6.4530 N.pl3     1 ARG        -0.2723
      9 CZ        -34.6530    0.2490   -5.6660 C.cat     1 ARG         0.2882
     10 NH1       -33.7820    0.4120   -4.6730 N.pl3     1 ARG        -0.2849
     11 NH2       -35.5890    1.1700   -5.8720 N.pl3     1 ARG        -0.2849
     12 N         -30.1940   -5.4660   -7.4710 N.am      1 ARG        -0.2610
     13 CA        -29.2300   -6.3540   -8.1100 C.3       1 ARG         0.1312
     14 C         -29.0200   -5.8980   -9.5450 C.2       1 ARG         0.2039
     15 O         -29.9480   -5.3650  -10.1600 O.2       1 ARG        -0.3944
     16 CB        -29.7270   -7.8020   -8.0760 C.3       1 ARG        -0.0092
     17 CG        -30.8860   -8.0870   -9.0190 C.3       1 ARG        -0.0156
     18 CD        -31.7710   -9.2010   -8.5160 C.3       1 ARG         0.0627
     19 NE        -31.2890  -10.5320   -8.8820 N.pl3     1 ARG        -0.2723
     20 CZ        -31.7080  -11.6720   -8.3270 C.cat     1 ARG         0.2882
     21 NH1       -32.6190  -11.6730   -7.3570 N.pl3     1 ARG        -0.2849
     22 NH2       -31.2030  -12.8250   -8.7460 N.pl3     1 ARG        -0.2849
     23 N         -27.8100   -6.1050  -10.0680 N.am      1 ALA        -0.2640
     24 CA        -27.4900   -5.7660  -11.4610 C.3       1 ALA         0.1282
     25 C         -28.2620   -6.6610  -12.4310 C.2       1 ALA         0.2031
     26 O         -28.0160   -7.8710  -12.5080 O.2       1 ALA        -0.3944
     27 CB        -25.9770   -5.8480  -11.7190 C.3       1 ALA        -0.0244
     28 N         -29.2070   -6.0420  -13.1450 N.am      1 ALA        -0.2698
     29 CA        -30.1180   -6.7070  -14.0990 C.3       1 ALA         0.0916
     30 C         -31.0690   -7.7250  -13.4540 C.2       1 ALA         0.0598
     31 O         -30.9050   -8.1230  -12.2970 O.co2     1 ALA        -0.5666
     32 CB        -29.3440   -7.3260  -15.2790 C.3       1 ALA        -0.0300
     33 OXT       -32.0420   -8.1740  -14.0680 O.co2     1 ALA        -0.5666
     34 H1        -31.2020   -2.1722   -4.6342 H         1 ARG         0.2015
     35 H2        -29.6829   -2.1860   -5.2677 H         1 ARG         0.2015
     36 H3        -30.1389   -3.3505   -4.1974 H         1 ARG         0.2015
     37 H4        -31.7524   -4.2399   -5.7153 H         1 ARG         0.1098
     38 H5        -32.0841   -3.3749   -7.8731 H         1 ARG         0.0347
     39 H6        -30.5841   -2.3887   -7.8100 H         1 ARG         0.0347
     40 H7        -32.3790   -0.8644   -7.6941 H         1 ARG         0.0302
     41 H8        -31.7351   -0.9948   -6.0223 H         1 ARG         0.0302
     42 H9        -33.5634   -2.2021   -5.2660 H         1 ARG         0.0689
     43 H10       -33.9970   -2.7777   -6.9114 H         1 ARG         0.0689
     44 H11       -35.3006   -0.8961   -7.2086 H         1 ARG         0.2642
     45 H12       -33.8336    1.2490   -4.0749 H         1 ARG         0.2615
     46 H13       -33.0563   -0.2988   -4.5026 H         1 ARG         0.2615
     47 H14       -36.2674    1.0524   -6.6381 H         1 ARG         0.2615
     48 H15       -35.6359    2.0012   -5.2656 H         1 ARG         0.2615
     49 H16       -31.1646   -5.5671   -7.6895 H         1 ARG         0.1884
     50 H17       -28.2736   -6.2954   -7.5697 H         1 ARG         0.0800
     51 H18       -30.0527   -8.0307   -7.0505 H         1 ARG         0.0313
     52 H19       -28.8896   -8.4604   -8.3502 H         1 ARG         0.0313
     53 H20       -30.4813   -8.3725  -10.0012 H         1 ARG         0.0301
     54 H21       -31.4907   -7.1740   -9.1228 H         1 ARG         0.0301
     55 H22       -32.7774   -9.0656   -8.9389 H         1 ARG         0.0689
     56 H23       -31.8227   -9.1378   -7.4190 H         1 ARG         0.0689
     57 H24       -30.5746  -10.5949   -9.6214 H         1 ARG         0.2642
     58 H25       -32.9287  -12.5635   -6.9422 H         1 ARG         0.2615
     59 H26       -33.0145  -10.7833   -7.0210 H         1 ARG         0.2615
     60 H27       -30.4973  -12.8359   -9.4962 H         1 ARG         0.2615
     61 H28       -31.5166  -13.7093   -8.3211 H         1 ARG         0.2615
     62 H29       -27.0968   -6.5045   -9.4921 H         1 ALA         0.1883
     63 H30       -27.8055   -4.7269  -11.6363 H         1 ALA         0.0797
     64 H31       -25.7694   -5.5894  -12.7678 H         1 ALA         0.0277
     65 H32       -25.6254   -6.8705  -11.5170 H         1 ALA         0.0277
     66 H33       -25.4534   -5.1427  -11.0570 H         1 ALA         0.0277
     67 H34       -29.3048   -5.0541  -13.0244 H         1 ALA         0.1875
     68 H35       -30.7551   -5.9147  -14.5188 H         1 ALA         0.0723
     69 H36       -30.0516   -7.8112  -15.9674 H         1 ALA         0.0270
     70 H37       -28.6317   -8.0730  -14.8988 H         1 ALA         0.0270
     71 H38       -28.7963   -6.5357  -15.8132 H         1 ALA         0.0270
@<TRIPOS>BOND
     1    1    2 1  
     2    2    3 1  
     3    2    5 1  
     4    3    4 2  
     5    3   12 am 
     6    5    6 1  
     7    6    7 1  
     8    7    8 1  
     9    8    9 ar 
    10    9   10 ar 
    11    9   11 ar 
    12   12   13 1  
    13   13   14 1  
    14   13   16 1  
    15   14   15 2  
    16   14   23 am 
    17   16   17 1  
    18   17   18 1  
    19   18   19 1  
    20   19   20 ar 
    21   20   21 ar 
    22   20   22 ar 
    23   23   24 1  
    24   24   25 1  
    25   24   27 1  
    26   25   26 2  
    27   25   28 am 
    28   28   29 1  
    29   29   30 1  
    30   29   32 1  
    31   30   31 ar 
    32   30   33 ar 
    33    1   34 1  
    34    1   35 1  
    35    1   36 1  
    36    2   37 1  
    37    5   38 1  
    38    5   39 1  
    39    6   40 1  
    40    6   41 1  
    41    7   42 1  
    42    7   43 1  
    43    8   44 1  
    44   10   45 1  
    45   10   46 1  
    46   11   47 1  
    47   11   48 1  
    48   12   49 1  
    49   13   50 1  
    50   16   51 1  
    51   16   52 1  
    52   17   53 1  
    53   17   54 1  
    54   18   55 1  
    55   18   56 1  
    56   19   57 1  
    57   21   58 1  
    58   21   59 1  
    59   22   60 1  
    60   22   61 1  
    61   23   62 1  
    62   24   63 1  
    63   27   64 1  
    64   27   65 1  
    65   27   66 1  
    66   28   67 1  
    67   29   68 1  
    68   32   69 1  
    69   32   70 1  
    70   32   71 1  
@<TRIPOS>SUBSTRUCTURE
     1 ARG         1

