### 
### Created by X-TOOL on Mon Sep 10 21:13:04 2018
### 

@<TRIPOS>MOLECULE
3nin_ligand
   68    67     1     0     0
SMALL
GAST_HUCK


@<TRIPOS>ATOM
      1 N           8.1240  -14.6900    4.2010 N.4       1 ARG         0.2379
      2 CA          9.0540  -14.3080    5.2980 C.3       1 ARG         0.0651
      3 C           9.3350  -15.4900    6.2100 C.2       1 ARG         0.2267
      4 O           8.5820  -16.4660    6.2220 O.2       1 ARG        -0.3907
      5 CB          8.4940  -13.1540    6.1410 C.3       1 ARG         0.0110
      6 CG          8.0290  -11.9360    5.3680 C.3       1 ARG        -0.0125
      7 CD          9.1230  -11.3310    4.4960 C.3       1 ARG         0.0629
      8 NE          8.7930   -9.9580    4.1170 N.pl3     1 ARG        -0.2723
      9 CZ          7.9520   -9.6140    3.1430 C.cat     1 ARG         0.2882
     10 NH1         7.3310  -10.5410    2.4190 N.pl3     1 ARG        -0.2849
     11 NH2         7.7290   -8.3280    2.8980 N.pl3     1 ARG        -0.2849
     12 N          10.4280  -15.3910    6.9650 N.am      1 LEU        -0.2610
     13 CA         10.7520  -16.3710    7.9950 C.3       1 LEU         0.1313
     14 C          10.7630  -15.7050    9.3680 C.2       1 LEU         0.2037
     15 O          11.3150  -14.6140    9.5300 O.2       1 LEU        -0.3944
     16 CB         12.1030  -17.0310    7.7120 C.3       1 LEU        -0.0101
     17 CG         12.3810  -18.3530    8.4260 C.3       1 LEU        -0.0425
     18 CD1        11.7050  -19.5230    7.7150 C.3       1 LEU        -0.0625
     19 CD2        13.8820  -18.5790    8.5290 C.3       1 LEU        -0.0625
     20 N          10.1470  -16.3640   10.3480 N.am      1 GLY        -0.2664
     21 CA         10.0930  -15.8430   11.7180 C.3       1 GLY         0.1201
     22 C           9.8210  -16.9000   12.7720 C.2       1 GLY         0.2002
     23 O          10.1570  -18.0760   12.5830 O.2       1 GLY        -0.3947
     24 N           9.2200  -16.4590   13.8830 N.am      1 GLU        -0.2696
     25 CA          8.7420  -17.3230   14.9810 C.3       1 GLU         0.0958
     26 C           9.9010  -17.9230   15.7790 C.2       1 GLU         0.0602
     27 O          11.0448  -18.0454   15.2648 O.co2     1 GLU        -0.5666
     28 CB          7.7650  -18.4070   14.4660 C.3       1 GLU        -0.0064
     29 CG          7.0300  -19.2350   15.5410 C.3       1 GLU         0.0038
     30 CD          7.5810  -20.6500   15.6960 C.2       1 GLU         0.0350
     31 OE1         7.8370  -21.3140   14.6660 O.co2     1 GLU        -0.5690
     32 OE2         7.7430  -21.1080   16.8520 O.co2     1 GLU        -0.5690
     33 H           8.5294  -15.4572    3.6649 H         1 ARG         0.2015
     34 H           7.2330  -14.9859    4.5998 H         1 ARG         0.2015
     35 H           7.9743  -13.8878    3.5890 H         1 ARG         0.2015
     36 H           9.9798  -13.9825    4.8237 H         1 ARG         0.1098
     37 H           9.3088  -12.8183    6.7824 H         1 ARG         0.0347
     38 H           7.6159  -13.5461    6.6541 H         1 ARG         0.0347
     39 H           7.7247  -11.1797    6.0915 H         1 ARG         0.0302
     40 H           7.2166  -12.2490    4.7122 H         1 ARG         0.0302
     41 H           9.2190  -11.9299    3.5904 H         1 ARG         0.0689
     42 H          10.0553  -11.3230    5.0606 H         1 ARG         0.0689
     43 H           9.2416   -9.2052    4.6389 H         1 ARG         0.2642
     44 H           7.4962  -11.5299    2.6066 H         1 ARG         0.2615
     45 H           6.6896  -10.2630    1.6762 H         1 ARG         0.2615
     46 H           8.2000   -7.6139    3.4535 H         1 ARG         0.2615
     47 H           7.0868   -8.0544    2.1543 H         1 ARG         0.2615
     48 H          11.0593  -14.6035    6.8177 H         1 LEU         0.1884
     49 H           9.9865  -17.1469    7.9854 H         1 LEU         0.0800
     50 H          12.8600  -16.3319    8.0673 H         1 LEU         0.0315
     51 H          12.1101  -17.2573    6.6458 H         1 LEU         0.0315
     52 H          11.9610  -18.2954    9.4302 H         1 LEU         0.0298
     53 H          10.6274  -19.3603    7.6942 H         1 LEU         0.0232
     54 H          12.0828  -19.5939    6.6950 H         1 LEU         0.0232
     55 H          11.9240  -20.4471    8.2500 H         1 LEU         0.0232
     56 H          14.3126  -18.6122    7.5282 H         1 LEU         0.0232
     57 H          14.3332  -17.7627    9.0931 H         1 LEU         0.0232
     58 H          14.0718  -19.5234    9.0392 H         1 LEU         0.0232
     59 H           9.6999  -17.2568   10.1397 H         1 GLY         0.1881
     60 H           9.2716  -15.1276   11.7590 H         1 GLY         0.0763
     61 H          11.0696  -15.4119   11.9380 H         1 GLY         0.0763
     62 H           9.0820  -15.4529   13.9785 H         1 GLU         0.1875
     63 H           8.1822  -16.6916   15.6710 H         1 GLU         0.0727
     64 O           9.7094  -18.2997   16.9660 O.co2     1 GLU        -0.5666
     65 H           8.3699  -19.1152   13.8997 H         1 GLU         0.0323
     66 H           6.9911  -17.8775   13.9103 H         1 GLU         0.0323
     67 H           5.9872  -19.3196   15.2352 H         1 GLU         0.0432
     68 H           7.1602  -18.7248   16.4954 H         1 GLU         0.0432
@<TRIPOS>BOND
     1    1    2 1  
     2    2    3 1  
     3    2    5 1  
     4    3    4 2  
     5    3   12 am 
     6    5    6 1  
     7    6    7 1  
     8    7    8 1  
     9    8    9 ar 
    10    9   10 ar 
    11    9   11 ar 
    12   12   13 1  
    13   13   14 1  
    14   13   16 1  
    15   14   15 2  
    16   14   20 am 
    17   16   17 1  
    18   17   18 1  
    19   17   19 1  
    20   20   21 1  
    21   21   22 1  
    22   22   23 2  
    23   22   24 am 
    24   24   25 1  
    25   25   26 1  
    26   25   28 1  
    27   26   27 ar 
    28   28   29 1  
    29   29   30 1  
    30   30   31 ar 
    31   30   32 ar 
    32    1   33 1  
    33    1   34 1  
    34    1   35 1  
    35    2   36 1  
    36    5   37 1  
    37    5   38 1  
    38    6   39 1  
    39    6   40 1  
    40    7   41 1  
    41    7   42 1  
    42    8   43 1  
    43   10   44 1  
    44   10   45 1  
    45   11   46 1  
    46   11   47 1  
    47   12   48 1  
    48   13   49 1  
    49   16   50 1  
    50   16   51 1  
    51   17   52 1  
    52   18   53 1  
    53   18   54 1  
    54   18   55 1  
    55   19   56 1  
    56   19   57 1  
    57   19   58 1  
    58   20   59 1  
    59   21   60 1  
    60   21   61 1  
    61   24   62 1  
    62   25   63 1  
    63   26   64 ar 
    64   28   65 1  
    65   28   66 1  
    66   29   67 1  
    67   29   68 1  
@<TRIPOS>SUBSTRUCTURE
     1 ARG         1

