### 
### Created by X-TOOL on Fri Sep 26 17:34:52 2014
### 

@<TRIPOS>MOLECULE
3njq_ligand
   59    62     1     0     0
SMALL
GAST_HUCK


@<TRIPOS>ATOM
      1 C1          1.1620  -31.1060  -18.0700 C.3       1 NJQ         0.0109
      2 C2          1.3920  -32.2610  -19.0350 C.ar      1 NJQ        -0.0060
      3 C3          1.3980  -31.9550  -20.3860 C.ar      1 NJQ        -0.0572
      4 C4          1.6360  -32.9330  -21.3300 C.ar      1 NJQ        -0.0118
      5 C5          1.8670  -34.2630  -20.9340 C.ar      1 NJQ        -0.0677
      6 C6          1.8720  -34.5550  -19.5730 C.ar      1 NJQ        -0.0428
      7 C7          1.6580  -33.5800  -18.6140 C.ar      1 NJQ         0.0744
      8 N8          1.5610  -33.9090  -17.3190 N.am      1 NJQ        -0.2318
      9 C9          1.6070  -32.5870  -22.7920 C.2       1 NJQ         0.0513
     10 O10         1.7180  -33.5350  -23.5840 O.co2     1 NJQ        -0.5649
     11 O11         1.4260  -31.4030  -23.1320 O.co2     1 NJQ        -0.5649
     12 C15        -0.2510  -31.0110  -17.5890 C.ar      1 NJQ        -0.0342
     13 C18        -2.8420  -30.7820  -16.6410 C.ar      1 NJQ        -0.0686
     14 C19        -2.5700  -31.4650  -17.8000 C.ar      1 NJQ        -0.0683
     15 C20        -1.2770  -31.6090  -18.2780 C.ar      1 NJQ        -0.0588
     16 C21        -0.5110  -30.3060  -16.4260 C.ar      1 NJQ        -0.0588
     17 C22        -1.8080  -30.1970  -15.9500 C.ar      1 NJQ        -0.0683
     18 C28         2.1870  -34.8150  -16.5700 C.2       1 NJQ         0.2486
     19 O29         3.1390  -35.5280  -16.8950 O.2       1 NJQ        -0.3676
     20 C30         1.6240  -34.9190  -15.1950 C.ar      1 NJQ         0.1196
     21 C32         2.0910  -35.9140  -14.3550 C.ar      1 NJQ        -0.0208
     22 C33         1.5610  -35.9840  -13.0990 C.ar      1 NJQ        -0.0434
     23 C34         0.5660  -35.1040  -12.6980 C.ar      1 NJQ        -0.0284
     24 C35         0.1190  -34.1330  -13.5920 C.ar      1 NJQ         0.0335
     25 N36         0.6550  -34.0760  -14.7930 N.ar      1 NJQ        -0.2777
     26 C37        -0.9990  -33.1280  -13.2380 C.3       1 NJQ         0.0003
     27 C41        -2.4990  -33.5880  -13.2580 C.3       1 NJQ        -0.0291
     28 C44        -2.7870  -35.0130  -13.7910 C.3       1 NJQ        -0.0482
     29 C45        -3.4450  -32.4370  -13.7790 C.3       1 NJQ        -0.0482
     30 C47        -5.2370  -34.2820  -13.9530 C.3       1 NJQ        -0.0530
     31 C48        -4.9100  -32.7850  -14.1920 C.3       1 NJQ        -0.0526
     32 C57        -4.1030  -35.1500  -14.5520 C.3       1 NJQ        -0.0526
     33 H1          1.4210  -30.1669  -18.5810 H         1 NJQ         0.0556
     34 H2          1.8192  -31.2426  -17.1986 H         1 NJQ         0.0556
     35 H3          1.2136  -30.9356  -20.7053 H         1 NJQ         0.0549
     36 H4          2.0368  -35.0406  -21.6699 H         1 NJQ         0.0558
     37 H5          2.0487  -35.5761  -19.2547 H         1 NJQ         0.0491
     38 H6          0.8864  -33.3684  -16.8163 H         1 NJQ         0.2251
     39 H7         -3.8595  -30.7049  -16.2753 H         1 NJQ         0.0560
     40 H8         -3.3895  -31.9042  -18.3573 H         1 NJQ         0.0600
     41 H9         -1.0800  -32.1818  -19.1770 H         1 NJQ         0.0559
     42 H10         0.3034  -29.8373  -15.8855 H         1 NJQ         0.0559
     43 H11        -2.0065  -29.6515  -15.0346 H         1 NJQ         0.0600
     44 H12         2.8513  -36.6137  -14.6828 H         1 NJQ         0.0705
     45 H13         1.9218  -36.7360  -12.4066 H         1 NJQ         0.0729
     46 H14         0.1420  -35.1709  -11.7026 H         1 NJQ         0.0684
     47 H15        -0.9129  -32.2930  -13.9489 H         1 NJQ         0.0459
     48 H16        -0.7909  -32.7661  -12.2203 H         1 NJQ         0.0459
     49 H17        -2.7572  -33.6739  -12.1922 H         1 NJQ         0.0326
     50 H18        -2.8125  -35.7019  -12.9338 H         1 NJQ         0.0270
     51 H19        -1.9678  -35.2991  -14.4671 H         1 NJQ         0.0270
     52 H20        -2.9585  -31.9954  -14.6612 H         1 NJQ         0.0270
     53 H21        -3.5066  -31.6845  -12.9791 H         1 NJQ         0.0270
     54 H22        -6.1902  -34.5334  -14.4410 H         1 NJQ         0.0265
     55 H23        -5.3163  -34.4739  -12.8728 H         1 NJQ         0.0265
     56 H24        -5.0420  -32.5582  -15.2602 H         1 NJQ         0.0265
     57 H25        -5.6026  -32.1704  -13.5983 H         1 NJQ         0.0265
     58 H26        -4.4161  -36.2041  -14.5253 H         1 NJQ         0.0265
     59 H27        -3.9391  -34.8425  -15.5953 H         1 NJQ         0.0265
@<TRIPOS>BOND
     1    1    2 1  
     2   12    1 1  
     3    2    3 ar 
     4    2    7 ar 
     5    3    4 ar 
     6    4    5 ar 
     7    4    9 1  
     8    6    5 ar 
     9    7    6 ar 
    10    7    8 1  
    11    8   18 am 
    12    9   10 ar 
    13    9   11 ar 
    14   15   12 ar 
    15   12   16 ar 
    16   14   13 ar 
    17   13   17 ar 
    18   14   15 ar 
    19   16   17 ar 
    20   18   19 2  
    21   18   20 1  
    22   20   21 ar 
    23   20   25 ar 
    24   21   22 ar 
    25   22   23 ar 
    26   23   24 ar 
    27   24   25 ar 
    28   24   26 1  
    29   26   27 1  
    30   27   28 1  
    31   27   29 1  
    32   28   32 1  
    33   29   31 1  
    34   31   30 1  
    35   30   32 1  
    36    1   33 1  
    37    1   34 1  
    38    3   35 1  
    39    5   36 1  
    40    6   37 1  
    41    8   38 1  
    42   13   39 1  
    43   14   40 1  
    44   15   41 1  
    45   16   42 1  
    46   17   43 1  
    47   21   44 1  
    48   22   45 1  
    49   23   46 1  
    50   26   47 1  
    51   26   48 1  
    52   27   49 1  
    53   28   50 1  
    54   28   51 1  
    55   29   52 1  
    56   29   53 1  
    57   30   54 1  
    58   30   55 1  
    59   31   56 1  
    60   31   57 1  
    61   32   58 1  
    62   32   59 1  
@<TRIPOS>SUBSTRUCTURE
     1 NJQ         1

