### 
### Created by X-TOOL on Mon Sep 10 21:13:02 2018
### 

@<TRIPOS>MOLECULE
3njy_ligand
   20    21     1     0     0
SMALL
GAST_HUCK


@<TRIPOS>ATOM
      1 OAA        24.1250  -22.9420   -3.2330 O.co2     1 8XQ        -0.5646
      2 OAB        23.3040  -21.3210   -4.4660 O.co2     1 8XQ        -0.5646
      3 OAC        29.1620  -21.7440   -6.8710 O.3       1 8XQ        -0.3235
      4 CAD        24.8510  -19.2560   -7.2630 C.ar      1 8XQ        -0.0338
      5 CAE        26.0690  -19.1980   -7.9050 C.ar      1 8XQ         0.0097
      6 CAF        27.8230  -22.7330   -5.2340 C.ar      1 8XQ        -0.0238
      7 CAG        26.6040  -22.8130   -4.5570 C.ar      1 8XQ        -0.0544
      8 CAH        24.6630  -20.1800   -6.2560 C.ar      1 8XQ        -0.0374
      9 NAI        27.0460  -20.0150   -7.5690 N.ar      1 8XQ        -0.2924
     10 CAJ        24.2310  -22.0830   -4.1370 C.2       1 8XQ         0.0549
     11 CAK        27.9750  -21.7940   -6.2460 C.ar      1 8XQ         0.1199
     12 CAL        25.5500  -21.9630   -4.8870 C.ar      1 8XQ         0.0104
     13 CAM        25.7090  -21.0280   -5.9040 C.ar      1 8XQ         0.0123
     14 CAN        26.9210  -20.9330   -6.5880 C.ar      1 8XQ         0.0864
     15 H          29.1395  -21.0597   -7.5439 H         1 8XQ         0.2534
     16 H          24.0452  -18.5794   -7.5476 H         1 8XQ         0.0696
     17 H          26.2256  -18.4682   -8.6994 H         1 8XQ         0.0840
     18 H          28.6448  -23.3992   -4.9714 H         1 8XQ         0.0544
     19 H          26.4757  -23.5479   -3.7623 H         1 8XQ         0.0649
     20 H          23.7046  -20.2453   -5.7410 H         1 8XQ         0.0747
@<TRIPOS>BOND
     1   10    1 ar 
     2   10    2 ar 
     3   11    3 1  
     4    5    4 ar 
     5    4    8 ar 
     6    9    5 ar 
     7    6    7 ar 
     8   11    6 ar 
     9    7   12 ar 
    10    8   13 ar 
    11   14    9 ar 
    12   12   10 1  
    13   11   14 ar 
    14   12   13 ar 
    15   13   14 ar 
    16    3   15 1  
    17    4   16 1  
    18    5   17 1  
    19    6   18 1  
    20    7   19 1  
    21    8   20 1  
@<TRIPOS>SUBSTRUCTURE
     1 8XQ         1

