### 
### Created by X-TOOL on Mon Sep 10 21:13:02 2018
### 

@<TRIPOS>MOLECULE
3nk8_ligand
   22    23     1     0     0
SMALL
GAST_HUCK


@<TRIPOS>ATOM
      1 F1         26.8650   14.2780   19.2640 F         1 JKZ        -0.2176
      2 C2         28.1090   13.8570   19.5390 C.3       1 JKZ         0.3751
      3 F3         28.6880   14.9300   20.0840 F         1 JKZ        -0.2176
      4 F4         28.0730   12.8570   20.4570 F         1 JKZ        -0.2176
      5 C5         28.8590   13.4460   18.2800 C.2       1 JKZ         0.0354
      6 C6         29.0950   14.3270   17.2140 C.2       1 JKZ        -0.0164
      7 C7         29.7900   13.8700   16.1040 C.2       1 JKZ         0.0804
      8 N8         30.2460   12.6080   16.0190 N.am      1 JKZ        -0.2161
      9 C9         30.0390   11.7380   17.0380 C.2       1 JKZ         0.2339
     10 C10        29.3460   12.1360   18.1840 C.2       1 JKZ         0.0349
     11 O12        30.5220   10.4400   16.9560 O.2       1 JKZ        -0.3983
     12 C14        29.9670   14.9500   15.0510 C.3       1 JKZ         0.0169
     13 C17        28.9050   15.9810   15.4770 C.3       1 JKZ        -0.0341
     14 C20        28.7090   15.7900   17.0090 C.3       1 JKZ        -0.0321
     15 H1         30.7393   12.3102   15.2017 H         1 JKZ         0.2520
     16 H2         29.1852   11.4314   18.9986 H         1 JKZ         0.0919
     17 H3         29.7664   14.5620   14.0414 H         1 JKZ         0.0501
     18 H4         30.9789   15.3801   15.0842 H         1 JKZ         0.0501
     19 H5         27.9597   15.7974   14.9453 H         1 JKZ         0.0306
     20 H6         29.2550   17.0012   15.2611 H         1 JKZ         0.0306
     21 H7         29.3695   16.4588   17.5803 H         1 JKZ         0.0339
     22 H8         27.6638   15.9697   17.3011 H         1 JKZ         0.0339
@<TRIPOS>BOND
     1    1    2 1  
     2    2    3 1  
     3    2    4 1  
     4    2    5 1  
     5    5    6 1  
     6    5   10 2  
     7    6    7 2  
     8    6   14 1  
     9    7    8 am 
    10    7   12 1  
    11    8    9 am 
    12    9   10 1  
    13    9   11 2  
    14   12   13 1  
    15   13   14 1  
    16    8   15 1  
    17   10   16 1  
    18   12   17 1  
    19   12   18 1  
    20   13   19 1  
    21   13   20 1  
    22   14   21 1  
    23   14   22 1  
@<TRIPOS>SUBSTRUCTURE
     1 JKZ         1

