### 
### Created by X-TOOL on Mon Sep 10 21:13:02 2018
### 

@<TRIPOS>MOLECULE
3nkk_ligand
   21    21     1     0     0
SMALL
GAST_HUCK


@<TRIPOS>ATOM
      1 F1         26.9000   14.8450   19.1010 F         1 JLZ        -0.1891
      2 C2         27.8350   14.4520   18.2380 C.ar      1 JLZ         0.1328
      3 C3         28.5800   13.3020   18.5000 C.ar      1 JLZ        -0.0123
      4 C4         29.5550   12.9020   17.5860 C.ar      1 JLZ        -0.0623
      5 C6         29.7920   13.6370   16.4250 C.ar      1 JLZ        -0.0674
      6 C8         29.0490   14.7880   16.1600 C.ar      1 JLZ         0.0170
      7 C9         28.0690   15.1900   17.0770 C.ar      1 JLZ        -0.0297
      8 C11        29.3350   15.5590   14.8890 C.cat     1 JLZ         0.2309
      9 N12        28.9450   16.7720   14.8650 N.pl3     1 JLZ        -0.2729
     10 N14        29.9550   14.9930   13.8850 N.pl3     1 JLZ        -0.2729
     11 C17        28.3140   12.5010   19.7780 C.3       1 JLZ        -0.0304
     12 H1         30.1361   12.0079   17.7809 H         1 JLZ         0.0545
     13 H2         30.5553   13.3134   15.7266 H         1 JLZ         0.0565
     14 H3         27.4866   16.0834   16.8827 H         1 JLZ         0.0585
     15 H4         29.1101   17.3496   14.0283 H         1 JLZ         0.3180
     16 H5         28.4646   17.1748   15.6823 H         1 JLZ         0.3180
     17 H6         30.2512   14.0087   13.9515 H         1 JLZ         0.3180
     18 H7         30.1468   15.5318   13.0284 H         1 JLZ         0.3180
     19 H8         27.5119   12.9855   20.3541 H         1 JLZ         0.0383
     20 H9         29.2306   12.4641   20.3851 H         1 JLZ         0.0383
     21 H10        28.0084   11.4782   19.5128 H         1 JLZ         0.0383
@<TRIPOS>BOND
     1    1    2 1  
     2    2    3 ar 
     3    2    7 ar 
     4    3    4 ar 
     5    3   11 1  
     6    4    5 ar 
     7    5    6 ar 
     8    6    7 ar 
     9    6    8 1  
    10    8    9 ar 
    11    8   10 ar 
    12    4   12 1  
    13    5   13 1  
    14    7   14 1  
    15    9   15 1  
    16    9   16 1  
    17   10   17 1  
    18   10   18 1  
    19   11   19 1  
    20   11   20 1  
    21   11   21 1  
@<TRIPOS>SUBSTRUCTURE
     1 JLZ         1

