### 
### Created by X-TOOL on Sun Sep  9 21:51:10 2018
### 

@<TRIPOS>MOLECULE
3nm6_ligand
   20    19     1     0     0
SMALL
GAST_HUCK


@<TRIPOS>ATOM
      1 C          38.5880   -4.7330   65.9560 C.3       1 NON         0.0569
      2 C1         40.1030   -5.0570   65.8990 C.3       1 NON         0.0939
      3 C2         37.7950   -5.9940   66.3430 C.3       1 NON         0.0939
      4 C3         38.1600   -3.7170   67.0310 C.3       1 NON         0.0939
      5 N          38.2270   -4.1540   64.6520 N.4       1 NON         0.2279
      6 O1         40.7410   -4.0200   65.1580 O.3       1 NON        -0.3890
      7 O2         37.8710   -6.8030   65.2110 O.3       1 NON        -0.3890
      8 O3         38.8710   -2.5310   66.8740 O.3       1 NON        -0.3890
      9 H1         40.2605   -6.0248   65.4005 H         1 NON         0.0618
     10 H2         40.5159   -5.0977   66.9177 H         1 NON         0.0618
     11 H3         36.7493   -5.7424   66.5738 H         1 NON         0.0618
     12 H4         38.2524   -6.4922   67.2105 H         1 NON         0.0618
     13 H5         38.3631   -4.1343   68.0283 H         1 NON         0.0618
     14 H6         37.0838   -3.5126   66.9313 H         1 NON         0.0618
     15 H7         38.4915   -4.7909   63.9168 H         1 NON         0.2002
     16 H8         38.7103   -3.2782   64.5278 H         1 NON         0.2002
     17 H9         37.2320   -3.9965   64.6182 H         1 NON         0.2002
     18 H10        40.5970   -3.1874   65.5922 H         1 NON         0.2097
     19 H11        38.7817   -6.9969   65.0223 H         1 NON         0.2097
     20 H12        39.8006   -2.7065   66.9611 H         1 NON         0.2097
@<TRIPOS>BOND
     1    1    2 1  
     2    1    3 1  
     3    1    4 1  
     4    1    5 1  
     5    2    6 1  
     6    3    7 1  
     7    4    8 1  
     8    2    9 1  
     9    2   10 1  
    10    3   11 1  
    11    3   12 1  
    12    4   13 1  
    13    4   14 1  
    14    5   15 1  
    15    5   16 1  
    16    5   17 1  
    17    6   18 1  
    18    7   19 1  
    19    8   20 1  
@<TRIPOS>SUBSTRUCTURE
     1 NON         1

