### 
### Created by X-TOOL on Mon Sep 10 21:13:03 2018
### 

@<TRIPOS>MOLECULE
3nmq_ligand
   53    55     1     0     0
SMALL
GAST_HUCK


@<TRIPOS>ATOM
      1 CL         -1.0080    9.1800   28.0850 Cl        1 7PP        -0.0331
      2 C1         -0.7040    9.8680   26.4610 C.ar      1 7PP         0.1155
      3 N5         -1.6830   10.4400   25.7600 N.ar      1 7PP        -0.2538
      4 C21        -1.4380   10.9800   24.5480 C.ar      1 7PP         0.1662
      5 N4         -2.4570   11.5350   23.8540 N.pl3     1 7PP        -0.3095
      6 N3         -0.1860   10.9850   24.0350 N.ar      1 7PP        -0.2514
      7 C20         0.8180   10.4400   24.7030 C.ar      1 7PP         0.1394
      8 C2          0.5600    9.8590   25.9470 C.ar      1 7PP         0.0475
      9 N1          2.1190   10.3280   24.3890 N.pl3     1 7PP        -0.2359
     10 C11         2.7690   10.8640   23.1630 C.3       1 7PP         0.0962
     11 C12         3.8290   11.9130   23.6480 C.ar      1 7PP         0.0413
     12 C18         3.5360   13.1930   24.1520 C.ar      1 7PP         0.0084
     13 C19         2.1270   13.7260   24.2720 C.3       1 7PP        -0.0312
     14 C16         4.6060   14.0670   24.5600 C.ar      1 7PP         0.1076
     15 O2          4.3380   15.3140   25.0370 O.3       1 7PP        -0.3207
     16 C17         4.6230   15.6990   26.3680 C.3       1 7PP         0.0589
     17 C14         5.9390   13.6570   24.4270 C.ar      1 7PP        -0.0029
     18 C15         7.1030   14.5460   24.8330 C.3       1 7PP        -0.0316
     19 C13         6.1620   12.3870   23.9210 C.ar      1 7PP        -0.0142
     20 N2          5.1510   11.5880   23.5700 N.ar      1 7PP        -0.3265
     21 C10         2.7290    9.6650   25.3830 C.2       1 7PP         0.0506
     22 C3          1.7800    9.4190   26.3580 C.2       1 7PP         0.0338
     23 C4          2.0830    8.7440   27.4850 C.1       1 7PP        -0.0959
     24 C5          2.3450    8.1040   28.4390 C.1       1 7PP        -0.1159
     25 C6          2.7330    7.2830   29.6350 C.3       1 7PP         0.0301
     26 C7          2.0140    5.9290   29.7950 C.3       1 7PP         0.0697
     27 C9          2.4570    5.2210   31.0960 C.3       1 7PP        -0.0356
     28 C8          2.2090    5.0250   28.5850 C.3       1 7PP        -0.0356
     29 O1          0.6040    6.1690   29.9420 O.3       1 7PP        -0.3883
     30 H1         -3.4096   11.5305   24.2457 H         1 7PP         0.1806
     31 H2         -2.2807   11.9623   22.9336 H         1 7PP         0.1806
     32 H3          2.0221   11.3485   22.5169 H         1 7PP         0.0773
     33 H4          3.2627   10.0526   22.6081 H         1 7PP         0.0773
     34 H5          1.4151   12.9608   23.9289 H         1 7PP         0.0365
     35 H6          2.0223   14.6285   23.6520 H         1 7PP         0.0365
     36 H7          1.9179   13.9765   25.3225 H         1 7PP         0.0365
     37 H8          4.3207   16.7457   26.5196 H         1 7PP         0.0577
     38 H9          5.7021   15.5981   26.5558 H         1 7PP         0.0577
     39 H10         4.0677   15.0526   27.0636 H         1 7PP         0.0577
     40 H11         8.0501   14.0207   24.6405 H         1 7PP         0.0369
     41 H12         7.0267   14.7836   25.9043 H         1 7PP         0.0369
     42 H13         7.0747   15.4771   24.2480 H         1 7PP         0.0369
     43 H14         7.1804   12.0335   23.8073 H         1 7PP         0.0643
     44 H15         3.7780    9.3742   25.4159 H         1 7PP         0.0981
     45 H16         2.5251    7.8814   30.5343 H         1 7PP         0.0405
     46 H17         3.8127    7.0835   29.5688 H         1 7PP         0.0405
     47 H18         1.9312    4.2591   31.1873 H         1 7PP         0.0257
     48 H19         2.2127    5.8559   31.9604 H         1 7PP         0.0257
     49 H20         3.5423    5.0441   31.0660 H         1 7PP         0.0257
     50 H21         1.8861    5.5541   27.6762 H         1 7PP         0.0257
     51 H22         1.6096    4.1111   28.7096 H         1 7PP         0.0257
     52 H23         3.2720    4.7569   28.4951 H         1 7PP         0.0257
     53 H24         0.4550    6.7186   30.7025 H         1 7PP         0.2102
@<TRIPOS>BOND
     1    1    2 1  
     2    2    3 ar 
     3    2    8 ar 
     4    3    4 ar 
     5    4    5 1  
     6    4    6 ar 
     7    6    7 ar 
     8    7    8 ar 
     9    7    9 1  
    10    8   22 1  
    11    9   10 1  
    12    9   21 1  
    13   10   11 1  
    14   11   12 ar 
    15   11   20 ar 
    16   12   13 1  
    17   12   14 ar 
    18   14   15 1  
    19   14   17 ar 
    20   15   16 1  
    21   17   18 1  
    22   17   19 ar 
    23   19   20 ar 
    24   21   22 2  
    25   22   23 1  
    26   23   24 3  
    27   24   25 1  
    28   25   26 1  
    29   26   27 1  
    30   26   28 1  
    31   26   29 1  
    32    5   30 1  
    33    5   31 1  
    34   10   32 1  
    35   10   33 1  
    36   13   34 1  
    37   13   35 1  
    38   13   36 1  
    39   16   37 1  
    40   16   38 1  
    41   16   39 1  
    42   18   40 1  
    43   18   41 1  
    44   18   42 1  
    45   19   43 1  
    46   21   44 1  
    47   25   45 1  
    48   25   46 1  
    49   27   47 1  
    50   27   48 1  
    51   27   49 1  
    52   28   50 1  
    53   28   51 1  
    54   28   52 1  
    55   29   53 1  
@<TRIPOS>SUBSTRUCTURE
     1 7PP         1

