### 
### Created by X-TOOL on Mon Sep 10 21:13:02 2018
### 

@<TRIPOS>MOLECULE
3nnu_ligand
   49    52     1     0     0
SMALL
GAST_HUCK


@<TRIPOS>ATOM
      1 C1         18.6190   12.3390   29.4570 C.ar      1 EDB        -0.0407
      2 C2         19.3070   11.3800   30.2120 C.ar      1 EDB        -0.0749
      3 C3         18.6330   10.5730   31.1380 C.ar      1 EDB        -0.0629
      4 C4         17.2570   10.7300   31.2760 C.ar      1 EDB         0.0408
      5 C5         16.5780   11.6840   30.5160 C.ar      1 EDB         0.0729
      6 C6         17.2150   12.4790   29.5820 C.ar      1 EDB         0.0818
      7 C13        15.9740   15.6040   23.7850 C.2       1 EDB         0.0192
      8 C14        16.0910   14.5890   24.7260 C.2       1 EDB        -0.0242
      9 C15        15.8340   15.2430   25.9330 C.2       1 EDB         0.1989
     10 N16        15.5810   16.5590   25.6530 N.pl3     1 EDB        -0.1471
     11 N17        15.6540   16.8170   24.2850 N.2       1 EDB        -0.2295
     12 C23        15.3330   17.5750   26.5150 C.ar      1 EDB         0.1018
     13 C24        14.0000   18.5760   26.2800 C.ar      1 EDB        -0.0241
     14 C25        14.1300   19.6350   27.1710 C.ar      1 EDB        -0.0295
     15 C26        14.8570   19.7610   28.3590 C.ar      1 EDB        -0.0657
     16 C27        15.8260   18.7980   28.6240 C.ar      1 EDB        -0.0730
     17 C28        16.0380   17.7520   27.7210 C.ar      1 EDB        -0.0340
     18 N36        15.8350   14.8090   27.2280 N.am      1 EDB        -0.1830
     19 C38        16.5820   13.7780   27.6300 C.2       1 EDB         0.3232
     20 O40        17.3030   13.1630   26.8620 O.2       1 EDB        -0.3786
     21 N42        16.4990   13.4340   28.9100 N.am      1 EDB        -0.2126
     22 C45        16.2240   15.5020   19.8010 C.2       1 EDB        -0.0069
     23 S46        15.9340   16.6140   21.1010 S.3       1 EDB        -0.0403
     24 C47        16.1110   15.3630   22.3120 C.2       1 EDB         0.0327
     25 C48        16.3960   14.1160   21.7700 C.2       1 EDB        -0.0700
     26 C49        16.4460   14.2320   20.3950 C.2       1 EDB        -0.0757
     27 C56        13.0600   20.6610   26.8480 C.3       1 EDB         0.0684
     28 C58        13.6560   21.9340   26.2860 C.2       1 EDB         0.1849
     29 O60        13.2710   23.0280   26.6720 O.2       1 EDB        -0.3943
     30 N62        14.5920   21.7900   25.3630 N.am      1 EDB        -0.2992
     31 CL64       14.8210   11.8790   30.6730 Cl        1 EDB        -0.0825
     32 CL66       16.2990    9.7360   32.4200 Cl        1 EDB        -0.0742
     33 H1         19.1649   12.9782   28.7725 H         1 EDB         0.0503
     34 H2         20.3760   11.2607   30.0778 H         1 EDB         0.0579
     35 H3         19.1706    9.8435   31.7329 H         1 EDB         0.0493
     36 H4         16.3261   13.5383   24.5623 H         1 EDB         0.0158
     37 H5         13.1949   18.4239   25.5702 H         1 EDB         0.0517
     38 H6         14.6727   20.5779   29.0474 H         1 EDB         0.0496
     39 H7         16.4166   18.8589   29.5309 H         1 EDB         0.0581
     40 H8         16.8017   17.0232   27.9675 H         1 EDB         0.0523
     41 H9         15.2579   15.2784   27.8963 H         1 EDB         0.2339
     42 H10        15.8270   13.9371   29.4534 H         1 EDB         0.2268
     43 H11        16.2338   15.7333   18.7369 H         1 EDB         0.0732
     44 H12        16.5538   13.1990   22.3358 H         1 EDB         0.0428
     45 H13        16.6529   13.3611   19.7748 H         1 EDB         0.0419
     46 H14        12.5079   20.9020   27.7683 H         1 EDB         0.0658
     47 H15        12.3686   20.2337   26.1068 H         1 EDB         0.0658
     48 H16        15.0213   22.5964   24.9561 H         1 EDB         0.1816
     49 H17        14.8705   20.8748   25.0719 H         1 EDB         0.1816
@<TRIPOS>BOND
     1    1    2 ar 
     2    6    1 ar 
     3    2    3 ar 
     4    4    3 ar 
     5    5    4 ar 
     6    4   32 1  
     7    6    5 ar 
     8    5   31 1  
     9   21    6 1  
    10    7    8 1  
    11    7   11 2  
    12   24    7 1  
    13    8    9 2  
    14   10    9 1  
    15    9   18 1  
    16   11   10 1  
    17   10   12 1  
    18   12   13 ar 
    19   12   17 ar 
    20   13   14 ar 
    21   14   15 ar 
    22   14   27 1  
    23   16   15 ar 
    24   17   16 ar 
    25   18   19 am 
    26   19   20 2  
    27   19   21 am 
    28   23   22 1  
    29   22   26 2  
    30   23   24 1  
    31   24   25 2  
    32   25   26 1  
    33   27   28 1  
    34   28   29 2  
    35   28   30 am 
    36    1   33 1  
    37    2   34 1  
    38    3   35 1  
    39    8   36 1  
    40   13   37 1  
    41   15   38 1  
    42   16   39 1  
    43   17   40 1  
    44   18   41 1  
    45   21   42 1  
    46   22   43 1  
    47   25   44 1  
    48   26   45 1  
    49   27   46 1  
    50   27   47 1  
    51   30   48 1  
    52   30   49 1  
@<TRIPOS>SUBSTRUCTURE
     1 EDB         1

