### 
### Created by X-TOOL on Mon Sep 10 21:13:03 2018
### 

@<TRIPOS>MOLECULE
3nnv_ligand
   57    60     1     0     0
SMALL
GAST_HUCK


@<TRIPOS>ATOM
      1 C1         18.7220   10.9890   30.8090 C.ar      1 437        -0.0747
      2 C2         19.2770   12.0040   30.0190 C.ar      1 437        -0.0815
      3 C3         18.4360   12.7960   29.2250 C.ar      1 437        -0.0435
      4 C4         17.3470   10.7760   30.7950 C.ar      1 437        -0.0315
      5 C5         16.4990   11.5790   30.0070 C.ar      1 437         0.0113
      6 C6         17.0330   12.6120   29.2050 C.ar      1 437         0.0821
      7 N7         16.2650   13.4830   28.4360 N.am      1 437        -0.2077
      8 C8         16.3960   13.7600   27.1350 C.2       1 437         0.3275
      9 O9         17.2360   13.1860   26.4380 O.2       1 437        -0.3768
     10 N10        15.5630   14.6880   26.6140 N.am      1 437        -0.1786
     11 C11        15.5710   15.0430   25.2870 C.2       1 437         0.2189
     12 C12        15.9030   14.3430   24.1230 C.2       1 437        -0.0194
     13 C13        15.6860   15.2810   23.1050 C.2       1 437        -0.0041
     14 C14        15.8780   14.9880   21.6300 C.3       1 437        -0.0463
     15 C15        17.1910   14.2290   21.3510 C.3       1 437        -0.0859
     16 C16        15.8450   16.2420   20.7370 C.3       1 437        -0.0859
     17 C17        14.6960   14.1050   21.2500 C.3       1 437        -0.0859
     18 N18        15.2250   16.4690   23.5390 N.2       1 437        -0.1672
     19 N19        15.1640   16.2840   24.9100 N.pl3     1 437        -0.1067
     20 C20        14.7560   17.3360   25.6540 C.ar      1 437         0.1228
     21 C21        15.3300   17.7590   26.8550 C.ar      1 437        -0.0264
     22 C22        13.6790   18.1280   25.2050 C.ar      1 437        -0.0264
     23 C23        13.1910   19.2450   25.8860 C.ar      1 437        -0.0584
     24 C24        13.7920   19.6270   27.0670 C.ar      1 437        -0.0210
     25 C25        13.2530   20.8320   27.8160 C.3       1 437         0.0766
     26 C26        14.8750   18.8740   27.5630 C.ar      1 437        -0.0584
     27 O27        12.8460   21.8590   26.9000 O.3       1 437        -0.3830
     28 C28        15.1300   11.3170   30.0400 C.ar      1 437        -0.0551
     29 C29        14.6240   10.2630   30.8200 C.ar      1 437        -0.0647
     30 C30        15.4710    9.4860   31.6060 C.ar      1 437        -0.0656
     31 C31        16.8340    9.7530   31.5940 C.ar      1 437        -0.0608
     32 H1         19.3616   10.3715   31.4292 H         1 437         0.0439
     33 H2         20.3474   12.1755   30.0217 H         1 437         0.0565
     34 H3         18.8734   13.5725   28.6079 H         1 437         0.0440
     35 H4         15.5268   13.9583   28.9148 H         1 437         0.2319
     36 H5         14.9099   15.1375   27.2234 H         1 437         0.2345
     37 H6         16.2479   13.3143   24.0299 H         1 437         0.0221
     38 H7         17.2835   14.0410   20.2711 H         1 437         0.0131
     39 H8         17.1822   13.2705   21.8906 H         1 437         0.0131
     40 H9         18.0439   14.8341   21.6921 H         1 437         0.0131
     41 H10        14.9143   16.7988   20.9211 H         1 437         0.0131
     42 H11        15.8890   15.9407   19.6800 H         1 437         0.0131
     43 H12        16.7079   16.8824   20.9721 H         1 437         0.0131
     44 H13        14.6980   13.2004   21.8759 H         1 437         0.0131
     45 H14        14.7779   13.8184   20.1912 H         1 437         0.0131
     46 H15        13.7588   14.6586   21.4087 H         1 437         0.0131
     47 H16        16.1659   17.1970   27.2556 H         1 437         0.0595
     48 H17        13.1999   17.8523   24.2725 H         1 437         0.0595
     49 H18        12.3506   19.8047   25.4915 H         1 437         0.0551
     50 H19        14.0388   21.2279   28.4761 H         1 437         0.0716
     51 H20        12.3872   20.5237   28.4205 H         1 437         0.0716
     52 H21        15.3542   19.1595   28.4924 H         1 437         0.0551
     53 H22        12.5124   22.6028   27.3878 H         1 437         0.2125
     54 H23        14.4507   11.9309   29.4597 H         1 437         0.0629
     55 H24        13.5607   10.0523   30.8096 H         1 437         0.0578
     56 H25        15.0727    8.6849   32.2180 H         1 437         0.0611
     57 H26        17.5037    9.1630   32.2092 H         1 437         0.0587
@<TRIPOS>BOND
     1    1    2 ar 
     2    1    4 ar 
     3    2    3 ar 
     4    3    6 ar 
     5    4    5 ar 
     6    4   31 ar 
     7    5    6 ar 
     8    5   28 ar 
     9    6    7 1  
    10    7    8 am 
    11    8    9 2  
    12    8   10 am 
    13   10   11 1  
    14   11   12 2  
    15   11   19 1  
    16   12   13 1  
    17   13   14 1  
    18   13   18 2  
    19   14   15 1  
    20   14   16 1  
    21   14   17 1  
    22   18   19 1  
    23   19   20 1  
    24   20   21 ar 
    25   20   22 ar 
    26   21   26 ar 
    27   22   23 ar 
    28   23   24 ar 
    29   24   25 1  
    30   24   26 ar 
    31   25   27 1  
    32   28   29 ar 
    33   29   30 ar 
    34   30   31 ar 
    35    1   32 1  
    36    2   33 1  
    37    3   34 1  
    38    7   35 1  
    39   10   36 1  
    40   12   37 1  
    41   15   38 1  
    42   15   39 1  
    43   15   40 1  
    44   16   41 1  
    45   16   42 1  
    46   16   43 1  
    47   17   44 1  
    48   17   45 1  
    49   17   46 1  
    50   21   47 1  
    51   22   48 1  
    52   23   49 1  
    53   25   50 1  
    54   25   51 1  
    55   26   52 1  
    56   27   53 1  
    57   28   54 1  
    58   29   55 1  
    59   30   56 1  
    60   31   57 1  
@<TRIPOS>SUBSTRUCTURE
     1 437         1

