### 
### Created by X-TOOL on Mon Sep 10 21:13:02 2018
### 

@<TRIPOS>MOLECULE
3nnw_ligand
   54    56     1     0     0
SMALL
GAST_HUCK


@<TRIPOS>ATOM
      1 C1         15.1840   17.2740   26.2830 C.ar      1 EDD         0.1224
      2 C2         15.8840   17.4720   27.4650 C.ar      1 EDD        -0.0273
      3 C3         15.6390   18.5200   28.3480 C.ar      1 EDD        -0.0691
      4 C4         14.6670   19.4500   28.0490 C.ar      1 EDD        -0.0623
      5 C5         13.9510   19.3070   26.8740 C.ar      1 EDD        -0.0257
      6 C6         14.2190   18.2510   26.0160 C.ar      1 EDD        -0.0175
      7 C13        12.9050   20.3290   26.5260 C.3       1 EDD         0.0692
      8 C14        13.5330   21.6070   25.9780 C.2       1 EDD         0.1850
      9 N15        14.4480   21.4820   25.0170 N.am      1 EDD        -0.2992
     10 O19        13.1700   22.6880   26.3990 O.2       1 EDD        -0.3943
     11 N21        15.4070   16.2570   25.4140 N.pl3     1 EDD        -0.1048
     12 N23        15.4240   16.5250   24.0330 N.2       1 EDD        -0.1654
     13 C24        15.6800   15.3330   23.4980 C.2       1 EDD        -0.0024
     14 C25        15.8200   14.3360   24.4360 C.2       1 EDD        -0.0187
     15 C26        15.6600   14.9550   25.6590 C.2       1 EDD         0.2196
     16 C32        15.7620   15.1040   21.9950 C.3       1 EDD        -0.0451
     17 C34        15.8070   16.4900   21.3210 C.3       1 EDD        -0.0851
     18 C36        14.5240   14.3360   21.5320 C.3       1 EDD        -0.0851
     19 C38        16.9720   14.2380   21.6450 C.3       1 EDD        -0.0851
     20 N40        15.6730   14.4550   26.9340 N.am      1 EDD        -0.1792
     21 C42        16.4850   13.4900   27.3720 C.2       1 EDD         0.3237
     22 N43        16.3100   13.1580   28.6880 N.am      1 EDD        -0.2125
     23 C44        17.0730   12.2890   29.4200 C.ar      1 EDD         0.0818
     24 O48        17.2960   12.9290   26.6230 O.2       1 EDD        -0.3785
     25 C50        18.4630   12.1430   29.2640 C.ar      1 EDD        -0.0407
     26 C51        19.1920   11.2480   30.0630 C.ar      1 EDD        -0.0749
     27 C52        18.5560   10.4590   31.0160 C.ar      1 EDD        -0.0629
     28 C53        17.1910   10.5950   31.1790 C.ar      1 EDD         0.0408
     29 C54        16.4680   11.4980   30.4030 C.ar      1 EDD         0.0729
     30 CL61       14.6980   11.5900   30.6560 Cl        1 EDD        -0.0825
     31 CL63       16.2740    9.6390   32.4030 Cl        1 EDD        -0.0742
     32 H1         16.6691   16.7679   27.7158 H         1 EDD         0.0554
     33 H2         16.2097   18.6040   29.2658 H         1 EDD         0.0590
     34 H3         14.4675   20.2769   28.7209 H         1 EDD         0.0524
     35 H4         13.6535   18.1791   25.0940 H         1 EDD         0.0548
     36 H5         12.3289   20.5733   27.4306 H         1 EDD         0.0658
     37 H6         12.2318   19.9069   25.7653 H         1 EDD         0.0658
     38 H7         14.8829   22.2959   24.6317 H         1 EDD         0.1816
     39 H8         14.6997   20.5743   24.6812 H         1 EDD         0.1816
     40 H9         16.0158   13.2807   24.2520 H         1 EDD         0.0222
     41 H10        15.8668   16.3652   20.2297 H         1 EDD         0.0133
     42 H11        16.6899   17.0418   21.6758 H         1 EDD         0.0133
     43 H12        14.8964   17.0517   21.5765 H         1 EDD         0.0133
     44 H13        14.5014   13.3495   22.0182 H         1 EDD         0.0133
     45 H14        14.5602   14.2059   20.4403 H         1 EDD         0.0133
     46 H15        13.6196   14.8998   21.8044 H         1 EDD         0.0133
     47 H16        17.8930   14.7503   21.9601 H         1 EDD         0.0133
     48 H17        17.0000   14.0689   20.5584 H         1 EDD         0.0133
     49 H18        16.8939   13.2716   22.1646 H         1 EDD         0.0133
     50 H19        15.0236   14.8431   27.5879 H         1 EDD         0.2345
     51 H20        15.5465   13.5951   29.1635 H         1 EDD         0.2268
     52 H21        18.9800   12.7312   28.5145 H         1 EDD         0.0503
     53 H22        20.2657   11.1706   29.9355 H         1 EDD         0.0579
     54 H23        19.1186    9.7537   31.6169 H         1 EDD         0.0493
@<TRIPOS>BOND
     1    1    2 ar 
     2    1    6 ar 
     3    1   11 1  
     4    2    3 ar 
     5    3    4 ar 
     6    4    5 ar 
     7    5    6 ar 
     8    5    7 1  
     9    7    8 1  
    10    8    9 am 
    11    8   10 2  
    12   11   12 1  
    13   11   15 1  
    14   12   13 2  
    15   13   14 1  
    16   13   16 1  
    17   14   15 2  
    18   15   20 1  
    19   16   17 1  
    20   16   18 1  
    21   16   19 1  
    22   20   21 am 
    23   21   22 am 
    24   21   24 2  
    25   22   23 1  
    26   23   25 ar 
    27   23   29 ar 
    28   25   26 ar 
    29   26   27 ar 
    30   27   28 ar 
    31   28   29 ar 
    32   28   31 1  
    33   29   30 1  
    34    2   32 1  
    35    3   33 1  
    36    4   34 1  
    37    6   35 1  
    38    7   36 1  
    39    7   37 1  
    40    9   38 1  
    41    9   39 1  
    42   14   40 1  
    43   17   41 1  
    44   17   42 1  
    45   17   43 1  
    46   18   44 1  
    47   18   45 1  
    48   18   46 1  
    49   19   47 1  
    50   19   48 1  
    51   19   49 1  
    52   20   50 1  
    53   22   51 1  
    54   25   52 1  
    55   26   53 1  
    56   27   54 1  
@<TRIPOS>SUBSTRUCTURE
     1 EDD         1

