### 
### Created by X-TOOL on Mon Sep 10 21:13:04 2018
### 

@<TRIPOS>MOLECULE
3nnx_ligand
   54    56     1     0     0
SMALL
GAST_HUCK


@<TRIPOS>ATOM
      1 C1          6.6480  -38.1000  -25.7670 C.ar      1 EDD         0.1224
      2 C2          5.5570  -38.9210  -25.5680 C.ar      1 EDD        -0.0273
      3 C3          5.4490  -40.1810  -26.1580 C.ar      1 EDD        -0.0691
      4 C4          6.4490  -40.6340  -27.0080 C.ar      1 EDD        -0.0623
      5 C5          7.5410  -39.8190  -27.2560 C.ar      1 EDD        -0.0257
      6 C6          7.6370  -38.5850  -26.6300 C.ar      1 EDD        -0.0175
      7 C13         8.6200  -40.2950  -28.1760 C.3       1 EDD         0.0692
      8 C14         8.1810  -40.0840  -29.6170 C.2       1 EDD         0.1850
      9 N15         7.6860  -38.9170  -30.0140 N.am      1 EDD        -0.2992
     10 O19         8.3330  -40.9780  -30.3990 O.2       1 EDD        -0.3943
     11 N21         6.7590  -36.9070  -25.2230 N.pl3     1 EDD        -0.1048
     12 N23         7.1720  -35.8710  -26.0150 N.2       1 EDD        -0.1654
     13 C24         7.1240  -34.8630  -25.1360 C.2       1 EDD        -0.0024
     14 C25         6.7100  -35.1890  -23.8570 C.2       1 EDD        -0.0187
     15 C26         6.4750  -36.5460  -23.9520 C.2       1 EDD         0.2196
     16 C32         7.5260  -33.4760  -25.5320 C.3       1 EDD        -0.0451
     17 C34         7.5610  -33.4350  -27.0720 C.3       1 EDD        -0.0851
     18 C36         8.9090  -33.1420  -24.9500 C.3       1 EDD        -0.0851
     19 C38         6.4860  -32.5220  -24.9620 C.3       1 EDD        -0.0851
     20 N40         6.0800  -37.4770  -23.0330 N.am      1 EDD        -0.1792
     21 C42         5.1870  -37.1660  -22.0990 C.2       1 EDD         0.3237
     22 N43         4.7530  -38.2230  -21.3620 N.am      1 EDD        -0.2125
     23 C44         3.8200  -38.1750  -20.3620 C.ar      1 EDD         0.0818
     24 O48         4.8210  -35.9820  -22.0290 O.2       1 EDD        -0.3785
     25 C50         2.5650  -37.5930  -20.5820 C.ar      1 EDD        -0.0407
     26 C51         1.6420  -37.5540  -19.5600 C.ar      1 EDD        -0.0749
     27 C52         1.9440  -38.0880  -18.3020 C.ar      1 EDD        -0.0629
     28 C53         3.1820  -38.6900  -18.0380 C.ar      1 EDD         0.0408
     29 C54         4.0980  -38.6990  -19.0850 C.ar      1 EDD         0.0729
     30 CL61        5.6710  -39.4670  -18.7640 Cl        1 EDD        -0.0825
     31 CL63        3.5980  -39.4360  -16.3960 Cl        1 EDD        -0.0742
     32 H1          4.7531  -38.5740  -24.9290 H         1 EDD         0.0554
     33 H2          4.5863  -40.8046  -25.9531 H         1 EDD         0.0590
     34 H3          6.3761  -41.6115  -27.4709 H         1 EDD         0.0524
     35 H4          8.5119  -37.9727  -26.8165 H         1 EDD         0.0548
     36 H5          8.8062  -41.3650  -28.0015 H         1 EDD         0.0658
     37 H6          9.5423  -39.7265  -27.9859 H         1 EDD         0.0658
     38 H7          7.4012  -38.7920  -30.9644 H         1 EDD         0.1816
     39 H8          7.5981  -38.1635  -29.3625 H         1 EDD         0.1816
     40 H9          6.5976  -34.5378  -22.9914 H         1 EDD         0.0222
     41 H10         7.8535  -32.4284  -27.4054 H         1 EDD         0.0133
     42 H11         6.5637  -33.6771  -27.4680 H         1 EDD         0.0133
     43 H12         8.2908  -34.1702  -27.4419 H         1 EDD         0.0133
     44 H13         8.8626  -33.1766  -23.8515 H         1 EDD         0.0133
     45 H14         9.2090  -32.1341  -25.2727 H         1 EDD         0.0133
     46 H15         9.6451  -33.8763  -25.3092 H         1 EDD         0.0133
     47 H16         5.4980  -32.7640  -25.3806 H         1 EDD         0.0133
     48 H17         6.7529  -31.4881  -25.2263 H         1 EDD         0.0133
     49 H18         6.4554  -32.6244  -23.8672 H         1 EDD         0.0133
     50 H19         6.4657  -38.3991  -23.0634 H         1 EDD         0.2345
     51 H20         5.1517  -39.1163  -21.5695 H         1 EDD         0.2268
     52 H21         2.3212  -37.1752  -21.5521 H         1 EDD         0.0503
     53 H22         0.6707  -37.1046  -19.7321 H         1 EDD         0.0579
     54 H23         1.2027  -38.0347  -17.5129 H         1 EDD         0.0493
@<TRIPOS>BOND
     1    1    2 ar 
     2    1    6 ar 
     3    1   11 1  
     4    2    3 ar 
     5    3    4 ar 
     6    4    5 ar 
     7    5    6 ar 
     8    5    7 1  
     9    7    8 1  
    10    8    9 am 
    11    8   10 2  
    12   11   12 1  
    13   11   15 1  
    14   12   13 2  
    15   13   14 1  
    16   13   16 1  
    17   14   15 2  
    18   15   20 1  
    19   16   17 1  
    20   16   18 1  
    21   16   19 1  
    22   20   21 am 
    23   21   22 am 
    24   21   24 2  
    25   22   23 1  
    26   23   25 ar 
    27   23   29 ar 
    28   25   26 ar 
    29   26   27 ar 
    30   27   28 ar 
    31   28   29 ar 
    32   28   31 1  
    33   29   30 1  
    34    2   32 1  
    35    3   33 1  
    36    4   34 1  
    37    6   35 1  
    38    7   36 1  
    39    7   37 1  
    40    9   38 1  
    41    9   39 1  
    42   14   40 1  
    43   17   41 1  
    44   17   42 1  
    45   17   43 1  
    46   18   44 1  
    47   18   45 1  
    48   18   46 1  
    49   19   47 1  
    50   19   48 1  
    51   19   49 1  
    52   20   50 1  
    53   22   51 1  
    54   25   52 1  
    55   26   53 1  
    56   27   54 1  
@<TRIPOS>SUBSTRUCTURE
     1 EDD         1

