### 
### Created by X-TOOL on Mon Sep 10 21:13:03 2018
### 

@<TRIPOS>MOLECULE
3nok_ligand
   41    40     1     0     0
SMALL
GAST_HUCK


@<TRIPOS>ATOM
      1 N1          4.9990   10.9430   15.1360 N.2       1 DDQ         0.0235
      2 O1          4.4400    9.8300   15.3900 O.2       1 DDQ         0.5593
      3 CM1         4.9310   12.1380   16.0060 C.3       1 DDQ         0.1707
      4 CM2         5.2980   11.2270   13.7320 C.3       1 DDQ         0.1707
      5 C1          6.3650   10.4090   15.3980 C.3       1 DDQ         0.1804
      6 C2          6.6300    9.6800   16.7250 C.3       1 DDQ         0.0085
      7 C3          7.9870    8.9590   16.8170 C.3       1 DDQ        -0.0473
      8 C4          8.1080    8.0950   18.1080 C.3       1 DDQ        -0.0529
      9 C5          9.4980    7.4990   18.4170 C.3       1 DDQ        -0.0531
     10 C6          9.4960    6.6860   19.7390 C.3       1 DDQ        -0.0531
     11 C7         10.8610    6.2390   20.2980 C.3       1 DDQ        -0.0531
     12 C8         10.6800    5.3480   21.5390 C.3       1 DDQ        -0.0533
     13 C9         11.9570    5.1490   22.3550 C.3       1 DDQ        -0.0559
     14 C10        11.9100    4.0340   23.4070 C.3       1 DDQ        -0.0653
     15 H1          5.5020   12.9586   15.5471 H         1 DDQ         0.1010
     16 H2          5.3591   11.8995   16.9908 H         1 DDQ         0.1010
     17 H3          3.8815   12.4444   16.1268 H         1 DDQ         0.1010
     18 H4          5.7768   12.2140   13.6515 H         1 DDQ         0.1010
     19 H5          4.3644   11.2239   13.1504 H         1 DDQ         0.1010
     20 H6          5.9776   10.4567   13.3387 H         1 DDQ         0.1010
     21 H7          7.0600   11.2604   15.3519 H         1 DDQ         0.1047
     22 H8          6.5972    9.7018   14.5881 H         1 DDQ         0.1047
     23 H9          5.8366    8.9313   16.8664 H         1 DDQ         0.0327
     24 H10         6.5831   10.4216   17.5360 H         1 DDQ         0.0327
     25 H11         8.7889    9.7120   16.8183 H         1 DDQ         0.0267
     26 H12         8.1003    8.3040   15.9405 H         1 DDQ         0.0267
     27 H13         7.3998    7.2583   18.0165 H         1 DDQ         0.0265
     28 H14         7.8199    8.7277   18.9605 H         1 DDQ         0.0265
     29 H15        10.2256    8.3193   18.5047 H         1 DDQ         0.0265
     30 H16         9.7921    6.8347   17.5911 H         1 DDQ         0.0265
     31 H17         8.8965    5.7797   19.5683 H         1 DDQ         0.0265
     32 H18         9.0119    7.3066   20.5074 H         1 DDQ         0.0265
     33 H19        11.4456    7.1286   20.5754 H         1 DDQ         0.0265
     34 H20        11.3996    5.6731   19.5237 H         1 DDQ         0.0265
     35 H21        10.3247    4.3613   21.2072 H         1 DDQ         0.0265
     36 H22         9.9230    5.8107   22.1893 H         1 DDQ         0.0265
     37 H23        12.1765    6.0936   22.8741 H         1 DDQ         0.0263
     38 H24        12.7727    4.9176   21.6542 H         1 DDQ         0.0263
     39 H25        12.8766    3.9820   23.9296 H         1 DDQ         0.0230
     40 H26        11.7080    3.0721   22.9131 H         1 DDQ         0.0230
     41 H27        11.1118    4.2482   24.1329 H         1 DDQ         0.0230
@<TRIPOS>BOND
     1    1    2 2  
     2    1    3 1  
     3    1    4 1  
     4    1    5 1  
     5    5    6 1  
     6    6    7 1  
     7    7    8 1  
     8    8    9 1  
     9    9   10 1  
    10   10   11 1  
    11   11   12 1  
    12   12   13 1  
    13   13   14 1  
    14    3   15 1  
    15    3   16 1  
    16    3   17 1  
    17    4   18 1  
    18    4   19 1  
    19    4   20 1  
    20    5   21 1  
    21    5   22 1  
    22    6   23 1  
    23    6   24 1  
    24    7   25 1  
    25    7   26 1  
    26    8   27 1  
    27    8   28 1  
    28    9   29 1  
    29    9   30 1  
    30   10   31 1  
    31   10   32 1  
    32   11   33 1  
    33   11   34 1  
    34   12   35 1  
    35   12   36 1  
    36   13   37 1  
    37   13   38 1  
    38   14   39 1  
    39   14   40 1  
    40   14   41 1  
@<TRIPOS>SUBSTRUCTURE
     1 DDQ         1

