### 
### Created by X-TOOL on Mon Sep 10 21:13:03 2018
### 

@<TRIPOS>MOLECULE
3nox_ligand
   48    51     1     0     0
SMALL
GAST_HUCK


@<TRIPOS>ATOM
      1 C1         48.1540   50.3100   35.2880 C.2       1 6A5         0.1404
      2 C2         47.2010   51.0410   34.6220 C.2       1 6A5         0.0782
      3 C3         47.4770   51.4530   33.2910 C.2       1 6A5         0.0387
      4 N4         48.6000   51.2270   32.6210 N.2       1 6A5        -0.2660
      5 N5         49.3290   50.0910   34.6430 N.pl3     1 6A5        -0.1859
      6 C6         49.5760   50.5180   33.3080 C.2       1 6A5         0.1941
      7 N7         50.8150   50.1370   32.8850 N.2       1 6A5        -0.3175
      8 C8         51.3350   49.4630   33.9980 C.2       1 6A5         0.0787
      9 C9         50.4660   49.4170   35.0680 C.2       1 6A5         0.0743
     10 C10        52.6830   48.8490   33.9770 C.2       1 6A5         0.1958
     11 O11        52.9220   47.9170   33.1820 O.2       1 6A5        -0.3941
     12 N12        53.4980   49.0970   35.0940 N.am      1 6A5        -0.2710
     13 C13        46.4760   52.2450   32.5260 C.3       1 6A5        -0.0096
     14 C14        48.0450   49.8540   36.6840 C.ar      1 6A5         0.0400
     15 C15        45.8560   51.3180   35.2360 C.3       1 6A5         0.0036
     16 N16        45.9790   52.4820   36.0670 N.4       1 6A5         0.2296
     17 C17        47.5080   48.6080   36.9530 C.ar      1 6A5        -0.0470
     18 C18        47.4380   48.1760   38.2730 C.ar      1 6A5        -0.0451
     19 C19        47.9180   49.0080   39.2870 C.ar      1 6A5         0.0429
     20 C20        48.4480   50.2400   39.0530 C.ar      1 6A5        -0.0313
     21 C21        48.5140   50.6430   37.7480 C.ar      1 6A5         0.0551
     22 CL22       49.1940   52.1670   37.4450 Cl        1 6A5        -0.0670
     23 CL23       47.8960   48.4690   40.8970 Cl        1 6A5        -0.0685
     24 C24        53.6990   50.4300   35.7030 C.3       1 6A5         0.0564
     25 C25        55.0610   51.0460   35.1930 C.3       1 6A5         0.0680
     26 O26        56.1770   50.1340   35.2950 O.3       1 6A5        -0.3758
     27 C27        55.9270   48.7740   34.8570 C.3       1 6A5         0.0680
     28 C28        54.6050   48.1690   35.4070 C.3       1 6A5         0.0564
     29 H1         50.6353   48.9519   36.0380 H         1 6A5         0.0902
     30 H2         46.8715   52.4655   31.5235 H         1 6A5         0.0451
     31 H3         46.2722   53.1876   33.0552 H         1 6A5         0.0451
     32 H4         45.5444   51.6674   32.4337 H         1 6A5         0.0451
     33 H5         45.5386   50.4576   35.8434 H         1 6A5         0.0958
     34 H6         45.1148   51.5013   34.4442 H         1 6A5         0.0958
     35 H7         45.0879   52.6881   36.4906 H         1 6A5         0.2006
     36 H8         46.2735   53.2659   35.5059 H         1 6A5         0.2006
     37 H9         46.6619   52.3095   36.7881 H         1 6A5         0.2006
     38 H10        47.1475   47.9783   36.1477 H         1 6A5         0.0642
     39 H11        47.0164   47.2063   38.5118 H         1 6A5         0.0629
     40 H12        48.8003   50.8704   39.8614 H         1 6A5         0.0634
     41 H13        53.7293   50.3313   36.7981 H         1 6A5         0.0544
     42 H14        52.8682   51.0920   35.4173 H         1 6A5         0.0544
     43 H15        55.2856   51.9402   35.7929 H         1 6A5         0.0580
     44 H16        54.9405   51.3329   34.1380 H         1 6A5         0.0580
     45 H17        56.7629   48.1427   35.1926 H         1 6A5         0.0580
     46 H18        55.8804   48.7669   33.7580 H         1 6A5         0.0580
     47 H19        54.4175   47.1945   34.9326 H         1 6A5         0.0544
     48 H20        54.6822   48.0377   36.4964 H         1 6A5         0.0544
@<TRIPOS>BOND
     1    1    2 2  
     2    1    5 1  
     3    1   14 1  
     4    2    3 1  
     5    2   15 1  
     6    3    4 2  
     7    3   13 1  
     8    4    6 1  
     9    5    6 1  
    10    5    9 1  
    11    6    7 2  
    12    7    8 1  
    13    8    9 2  
    14    8   10 1  
    15   10   11 2  
    16   10   12 am 
    17   12   24 1  
    18   12   28 1  
    19   14   17 ar 
    20   14   21 ar 
    21   15   16 1  
    22   17   18 ar 
    23   18   19 ar 
    24   19   20 ar 
    25   19   23 1  
    26   20   21 ar 
    27   21   22 1  
    28   24   25 1  
    29   25   26 1  
    30   26   27 1  
    31   27   28 1  
    32    9   29 1  
    33   13   30 1  
    34   13   31 1  
    35   13   32 1  
    36   15   33 1  
    37   15   34 1  
    38   16   35 1  
    39   16   36 1  
    40   16   37 1  
    41   17   38 1  
    42   18   39 1  
    43   20   40 1  
    44   24   41 1  
    45   24   42 1  
    46   25   43 1  
    47   25   44 1  
    48   27   45 1  
    49   27   46 1  
    50   28   47 1  
    51   28   48 1  
@<TRIPOS>SUBSTRUCTURE
     1 6A5         1

