### 
### Created by X-TOOL on Mon Sep 10 21:13:06 2018
### 

@<TRIPOS>MOLECULE
3np7_ligand
   35    36     1     0     0
SMALL
GAST_HUCK


@<TRIPOS>ATOM
      1 C1          7.0580   24.5830   32.1970 C.ar      1 Z15         0.0811
      2 O1          6.6790   24.2560   33.4700 O.3       1 Z15        -0.3440
      3 C2          7.5850   23.6210   31.3240 C.ar      1 Z15         0.0093
      4 C3          7.9780   23.9680   30.0280 C.ar      1 Z15        -0.0367
      5 C4          7.8320   25.2840   29.6080 C.ar      1 Z15         0.0842
      6 O4          8.1930   25.6720   28.3580 O.3       1 Z15        -0.3411
      7 C5          7.3100   26.2310   30.4750 C.ar      1 Z15         0.0518
      8 CL5         7.1580   27.8430   29.8960 Cl        1 Z15        -0.0878
      9 C6          6.9180   25.9010   31.7690 C.ar      1 Z15        -0.0343
     10 C1'         7.7450   22.1740   31.7840 C.3       1 Z15         0.1177
     11 C2'         7.0930   21.1790   30.8090 C.3       1 Z15         0.1176
     12 O2'         5.6900   21.4150   30.7070 O.3       1 Z15        -0.3847
     13 C3'         7.3120   19.7590   31.3100 C.3       1 Z15         0.1134
     14 O3'         6.8030   18.8450   30.3470 O.3       1 Z15        -0.3863
     15 C4'         8.7960   19.5050   31.5360 C.3       1 Z15         0.1121
     16 O4'         8.9390   18.2170   32.1220 O.3       1 Z15        -0.3865
     17 C5'         9.3950   20.5800   32.4560 C.3       1 Z15         0.1127
     18 O5'         9.1570   21.8840   31.8700 O.3       1 Z15        -0.3553
     19 C6'        10.9080   20.4670   32.6260 C.3       1 Z15         0.0731
     20 O6'        11.5190   20.7460   31.3470 O.3       1 Z15        -0.3924
     21 H1          7.4284   23.9166   33.9450 H         1 Z15         0.2420
     22 H2          8.3909   23.2206   29.3602 H         1 Z15         0.0455
     23 H3          7.6904   25.1820   27.7180 H         1 Z15         0.2448
     24 H4          6.5111   26.6561   32.4318 H         1 Z15         0.0501
     25 H5          7.2810   22.0586   32.7747 H         1 Z15         0.0764
     26 H6          7.5534   21.2937   29.8166 H         1 Z15         0.0667
     27 H7          5.3082   20.7907   30.1011 H         1 Z15         0.2102
     28 H8          6.7752   19.6224   32.2604 H         1 Z15         0.0648
     29 H9          5.8743   19.0020   30.2229 H         1 Z15         0.2100
     30 H10         9.3218   19.5284   30.5701 H         1 Z15         0.0647
     31 H11         8.5797   17.5618   31.5354 H         1 Z15         0.2100
     32 H12         8.9120   20.5107   33.4418 H         1 Z15         0.0648
     33 H13        11.1728   19.4507   32.9532 H         1 Z15         0.0584
     34 H14        11.2559   21.1952   33.3734 H         1 Z15         0.0584
     35 H15        11.2829   21.6233   31.0691 H         1 Z15         0.2095
@<TRIPOS>BOND
     1    1    2 1  
     2    1    3 ar 
     3    1    9 ar 
     4    3    4 ar 
     5    3   10 1  
     6    4    5 ar 
     7    5    6 1  
     8    5    7 ar 
     9    7    8 1  
    10    7    9 ar 
    11   10   11 1  
    12   10   18 1  
    13   11   12 1  
    14   11   13 1  
    15   13   14 1  
    16   13   15 1  
    17   15   16 1  
    18   15   17 1  
    19   17   18 1  
    20   17   19 1  
    21   19   20 1  
    22    2   21 1  
    23    4   22 1  
    24    6   23 1  
    25    9   24 1  
    26   10   25 1  
    27   11   26 1  
    28   12   27 1  
    29   13   28 1  
    30   14   29 1  
    31   15   30 1  
    32   16   31 1  
    33   17   32 1  
    34   19   33 1  
    35   19   34 1  
    36   20   35 1  
@<TRIPOS>SUBSTRUCTURE
     1 Z15         1

