### 
### Created by X-TOOL on Mon Sep 10 21:13:06 2018
### 

@<TRIPOS>MOLECULE
3np9_ligand
   38    39     1     0     0
SMALL
GAST_HUCK


@<TRIPOS>ATOM
      1 C1         33.6380   23.9780   30.1330 C.ar      1 Z2T         0.0947
      2 O1         32.2910   24.1350   30.3350 O.3       1 Z2T        -0.3431
      3 C2         34.1270   23.4390   28.9460 C.ar      1 Z2T         0.0097
      4 C3         35.5020   23.2860   28.7630 C.ar      1 Z2T        -0.0371
      5 C4         36.3960   23.6840   29.7580 C.ar      1 Z2T         0.0734
      6 O4         37.7290   23.5250   29.5380 O.3       1 Z2T        -0.3301
      7 C5         35.9080   24.2310   30.9460 C.ar      1 Z2T        -0.0348
      8 C6         34.5320   24.3760   31.1220 C.ar      1 Z2T         0.0531
      9 CL6        33.9050   25.0340   32.5820 Cl        1 Z2T        -0.0836
     10 C7         38.5320   23.6890   30.7100 C.3       1 Z2T         0.0568
     11 C1'        33.1460   22.9830   27.8670 C.3       1 Z2T         0.1175
     12 C2'        33.6100   23.1590   26.4150 C.3       1 Z2T         0.1175
     13 O2'        33.8650   24.5470   26.1360 O.3       1 Z2T        -0.3847
     14 C3'        32.5490   22.5680   25.4640 C.3       1 Z2T         0.1134
     15 O3'        33.0070   22.6420   24.1130 O.3       1 Z2T        -0.3863
     16 C4'        32.2430   21.1030   25.8230 C.3       1 Z2T         0.1121
     17 O4'        31.0830   20.6640   25.1110 O.3       1 Z2T        -0.3865
     18 C5'        31.9980   20.9180   27.3370 C.3       1 Z2T         0.1127
     19 O5'        33.0380   21.5490   28.1290 O.3       1 Z2T        -0.3554
     20 C6'        31.9260   19.4360   27.7480 C.3       1 Z2T         0.0731
     21 O6'        33.0400   18.7210   27.1960 O.3       1 Z2T        -0.3924
     22 H1         32.1427   24.5142   31.1933 H         1 Z2T         0.2424
     23 H2         35.8781   22.8552   27.8421 H         1 Z2T         0.0457
     24 H3         36.5937   24.5409   31.7263 H         1 Z2T         0.0463
     25 H4         39.5916   23.5459   30.4514 H         1 Z2T         0.0573
     26 H5         38.2352   22.9459   31.4648 H         1 Z2T         0.0573
     27 H6         38.3869   24.7013   31.1152 H         1 Z2T         0.0573
     28 H7         32.1807   23.4941   27.9973 H         1 Z2T         0.0762
     29 H8         34.5487   22.6029   26.2755 H         1 Z2T         0.0666
     30 H9         33.0686   25.0473   26.2701 H         1 Z2T         0.2102
     31 H10        31.6243   23.1560   25.5600 H         1 Z2T         0.0648
     32 H11        33.1629   23.5501   23.8820 H         1 Z2T         0.2100
     33 H12        33.1030   20.4842   25.5273 H         1 Z2T         0.0647
     34 H13        30.3418   21.2084   25.3491 H         1 Z2T         0.2100
     35 H14        31.0358   21.3926   27.5796 H         1 Z2T         0.0648
     36 H15        30.9895   18.9984   27.3720 H         1 Z2T         0.0584
     37 H16        31.9516   19.3602   28.8451 H         1 Z2T         0.0584
     38 H17        33.8492   19.0977   27.5212 H         1 Z2T         0.2095
@<TRIPOS>BOND
     1    1    2 1  
     2    1    3 ar 
     3    1    8 ar 
     4    3    4 ar 
     5    3   11 1  
     6    4    5 ar 
     7    5    6 1  
     8    5    7 ar 
     9    6   10 1  
    10    7    8 ar 
    11    8    9 1  
    12   11   12 1  
    13   11   19 1  
    14   12   13 1  
    15   12   14 1  
    16   14   15 1  
    17   14   16 1  
    18   16   17 1  
    19   16   18 1  
    20   18   19 1  
    21   18   20 1  
    22   20   21 1  
    23    2   22 1  
    24    4   23 1  
    25    7   24 1  
    26   10   25 1  
    27   10   26 1  
    28   10   27 1  
    29   11   28 1  
    30   12   29 1  
    31   13   30 1  
    32   14   31 1  
    33   15   32 1  
    34   16   33 1  
    35   17   34 1  
    36   18   35 1  
    37   20   36 1  
    38   20   37 1  
    39   21   38 1  
@<TRIPOS>SUBSTRUCTURE
     1 Z2T         1

