### 
### Created by X-TOOL on Mon Sep 10 21:13:06 2018
### 

@<TRIPOS>MOLECULE
3npa_ligand
   35    36     1     0     0
SMALL
GAST_HUCK


@<TRIPOS>ATOM
      1 C1         33.8110   24.1870   30.1340 C.ar      1 Z57         0.0832
      2 O1         32.4740   24.4190   30.2620 O.3       1 Z57        -0.3433
      3 C2         34.3050   23.4920   29.0230 C.ar      1 Z57         0.0119
      4 C3         35.6740   23.2530   28.9100 C.ar      1 Z57        -0.0346
      5 C4         36.5440   23.7240   29.8910 C.ar      1 Z57         0.0799
      6 O4         37.8750   23.4950   29.7850 O.3       1 Z57        -0.3399
      7 C5         36.0570   24.4210   30.9890 C.ar      1 Z57         0.0245
      8 BR5        37.2820   25.0400   32.3050 Br        1 Z57        -0.0668
      9 C6         34.6880   24.6530   31.1200 C.ar      1 Z57        -0.0387
     10 C1'        33.3440   22.9600   27.9460 C.3       1 Z57         0.1189
     11 C2'        33.7390   23.1860   26.4730 C.3       1 Z57         0.1179
     12 O2'        33.9490   24.5850   26.2070 O.3       1 Z57        -0.3846
     13 C3'        32.6560   22.5750   25.5490 C.3       1 Z57         0.1134
     14 O3'        33.0590   22.6660   24.1780 O.3       1 Z57        -0.3863
     15 C4'        32.3780   21.1030   25.9190 C.3       1 Z57         0.1121
     16 O4'        31.2100   20.6220   25.2360 O.3       1 Z57        -0.3865
     17 C5'        32.1910   20.9270   27.4450 C.3       1 Z57         0.1128
     18 O5'        33.3120   21.5170   28.1430 O.3       1 Z57        -0.3549
     19 C6'        32.1040   19.4560   27.8750 C.3       1 Z57         0.0731
     20 O6'        33.2010   18.7370   27.3040 O.3       1 Z57        -0.3924
     21 H1         32.3125   24.8987   31.0659 H         1 Z57         0.2420
     22 H2         36.0607   22.7018   28.0605 H         1 Z57         0.0461
     23 H3         38.0337   22.5585   29.7680 H         1 Z57         0.2458
     24 H4         34.3057   25.1908   31.9800 H         1 Z57         0.0520
     25 H5         32.3502   23.4014   28.1118 H         1 Z57         0.0769
     26 H6         34.6867   22.6607   26.2837 H         1 Z57         0.0667
     27 H7         34.1909   24.7001   25.2955 H         1 Z57         0.2102
     28 H8         31.7262   23.1481   25.6795 H         1 Z57         0.0648
     29 H9         33.1849   23.5786   23.9460 H         1 Z57         0.2100
     30 H10        33.2423   20.5004   25.6030 H         1 Z57         0.0647
     31 H11        30.4597   21.1493   25.4843 H         1 Z57         0.2100
     32 H12        31.2634   21.4383   27.7418 H         1 Z57         0.0648
     33 H13        31.1562   19.0240   27.5213 H         1 Z57         0.0584
     34 H14        32.1507   19.3893   28.9720 H         1 Z57         0.0584
     35 H15        34.0181   19.1127   27.6102 H         1 Z57         0.2095
@<TRIPOS>BOND
     1    1    2 1  
     2    1    3 ar 
     3    1    9 ar 
     4    3    4 ar 
     5    3   10 1  
     6    4    5 ar 
     7    5    6 1  
     8    5    7 ar 
     9    7    8 1  
    10    7    9 ar 
    11   10   11 1  
    12   10   18 1  
    13   11   12 1  
    14   11   13 1  
    15   13   14 1  
    16   13   15 1  
    17   15   16 1  
    18   15   17 1  
    19   17   18 1  
    20   17   19 1  
    21   19   20 1  
    22    2   21 1  
    23    4   22 1  
    24    6   23 1  
    25    9   24 1  
    26   10   25 1  
    27   11   26 1  
    28   12   27 1  
    29   13   28 1  
    30   14   29 1  
    31   15   30 1  
    32   16   31 1  
    33   17   32 1  
    34   19   33 1  
    35   19   34 1  
    36   20   35 1  
@<TRIPOS>SUBSTRUCTURE
     1 Z57         1

