### 
### Created by X-TOOL on Mon Sep 10 21:13:04 2018
### 

@<TRIPOS>MOLECULE
3npc_ligand
   77    81     1     0     0
SMALL
GAST_HUCK


@<TRIPOS>ATOM
      1 C1         55.1090   47.7460   10.1500 C.2       1 B96         0.3230
      2 O1         53.9930   48.1800    9.9410 O.2       1 B96        -0.3787
      3 N2         55.8600   48.2360   11.1640 N.am      1 B96        -0.2165
      4 C3         55.3960   49.1900   12.0890 C.ar      1 B96         0.0681
      5 C4         56.1180   50.3550   12.4040 C.ar      1 B96         0.0044
      6 C5         55.5790   51.2550   13.3750 C.ar      1 B96         0.0053
      7 C6         54.3430   50.9590   14.0150 C.ar      1 B96         0.0840
      8 C31        57.3380   50.6560   11.7700 C.ar      1 B96        -0.0590
      9 C32        57.9950   51.7930   12.0920 C.ar      1 B96        -0.0670
     10 C33        57.4780   52.6710   13.0470 C.ar      1 B96        -0.0672
     11 C34        56.2960   52.4300   13.6800 C.ar      1 B96        -0.0593
     12 C7         53.6760   49.8000   13.6980 C.ar      1 B96        -0.0528
     13 C8         54.2040   48.9310   12.7500 C.ar      1 B96        -0.0551
     14 N9         55.6480   46.7770    9.3860 N.am      1 B96        -0.1794
     15 C10        55.0160   46.0950    8.3370 C.2       1 B96         0.2188
     16 C14        54.2400   46.5870    7.3270 C.2       1 B96        -0.0194
     17 C13        53.8390   45.5070    6.5200 C.2       1 B96        -0.0041
     18 N12        54.3430   44.4170    7.0110 N.2       1 B96        -0.1672
     19 N11        55.0820   44.7430    8.1500 N.pl3     1 B96        -0.1067
     20 C15        55.7500   43.7760    8.9090 C.ar      1 B96         0.1228
     21 C17        53.8320   45.9910    4.1080 C.3       1 B96        -0.0859
     22 C18        52.3840   44.1580    5.0340 C.3       1 B96        -0.0859
     23 C19        51.8030   46.5280    5.4910 C.3       1 B96        -0.0859
     24 C16        52.9670   45.5500    5.2890 C.3       1 B96        -0.0463
     25 C20        56.4310   42.7670    8.2300 C.ar      1 B96        -0.0265
     26 C21        57.0790   41.7790    8.9380 C.ar      1 B96        -0.0608
     27 C22        57.0340   41.7900   10.3270 C.ar      1 B96        -0.0493
     28 C23        56.3450   42.7890   11.0040 C.ar      1 B96        -0.0608
     29 C24        55.6950   43.7860   10.2950 C.ar      1 B96        -0.0265
     30 C25        57.7560   40.7120   11.1040 C.3       1 B96        -0.0327
     31 O41        53.8680   51.8360   14.9470 O.3       1 B96        -0.3216
     32 C42        52.5070   51.6030   15.3470 C.3       1 B96         0.1073
     33 C43        52.0470   52.8360   16.1360 C.3       1 B96        -0.0036
     34 N44        51.2040   53.7350   15.3300 N.4       1 B96         0.2404
     35 C45        52.0140   54.3100   14.2390 C.3       1 B96        -0.0077
     36 C46        51.1380   55.2660   13.4220 C.3       1 B96         0.0878
     37 O47        50.7840   56.3550   14.2750 O.3       1 B96        -0.3693
     38 C48        49.9840   55.8710   15.3710 C.3       1 B96         0.0878
     39 C49        50.7740   54.8450   16.1980 C.3       1 B96        -0.0077
     40 H1         56.7973   47.9013   11.2614 H         1 B96         0.2264
     41 H2         57.7483   49.9805   11.0282 H         1 B96         0.0609
     42 H3         58.9341   52.0258   11.6031 H         1 B96         0.0577
     43 H4         58.0328   53.5696   13.2915 H         1 B96         0.0587
     44 H5         55.9113   53.1334   14.4096 H         1 B96         0.0598
     45 H6         52.7381   49.5634   14.1872 H         1 B96         0.0454
     46 H7         53.6655   48.0190   12.5191 H         1 B96         0.0411
     47 H8         56.5928   46.5183    9.5869 H         1 B96         0.2343
     48 H9         53.9775   47.6326    7.1732 H         1 B96         0.0221
     49 H10        53.2166   46.0298    3.1971 H         1 B96         0.0131
     50 H11        54.6524   45.2722    3.9658 H         1 B96         0.0131
     51 H12        54.2493   46.9883    4.3113 H         1 B96         0.0131
     52 H13        51.7654   43.8568    5.8922 H         1 B96         0.0131
     53 H14        53.2032   43.4360    4.9012 H         1 B96         0.0131
     54 H15        51.7644   44.1808    4.1254 H         1 B96         0.0131
     55 H16        52.1999   47.5370    5.6762 H         1 B96         0.0131
     56 H17        51.2000   46.2072    6.3532 H         1 B96         0.0131
     57 H18        51.1744   46.5413    4.5884 H         1 B96         0.0131
     58 H19        56.4506   42.7599    7.1462 H         1 B96         0.0595
     59 H20        57.6202   40.9985    8.4155 H         1 B96         0.0550
     60 H21        56.3161   42.7882   12.0876 H         1 B96         0.0550
     61 H22        55.1501   44.5643   10.8169 H         1 B96         0.0595
     62 H23        58.2394   40.0159   10.4027 H         1 B96         0.0385
     63 H24        57.0343   40.1629   11.7266 H         1 B96         0.0385
     64 H25        58.5196   41.1730   11.7478 H         1 B96         0.0385
     65 H26        52.4492   50.7066   15.9819 H         1 B96         0.0664
     66 H27        51.8719   51.4654   14.4595 H         1 B96         0.0664
     67 H28        52.9347   53.3915   16.4727 H         1 B96         0.0841
     68 H29        51.4705   52.5009   17.0108 H         1 B96         0.0841
     69 H30        50.4089   53.2387   14.9591 H         1 B96         0.2036
     70 H31        52.3852   53.5033   13.5898 H         1 B96         0.0837
     71 H32        52.8664   54.8612   14.6628 H         1 B96         0.0837
     72 H33        50.2310   54.7458   13.0804 H         1 B96         0.0613
     73 H34        51.6978   55.6373   12.5509 H         1 B96         0.0613
     74 H35        49.0756   55.3944   14.9740 H         1 B96         0.0613
     75 H36        49.7026   56.7167   16.0156 H         1 B96         0.0613
     76 H37        51.6584   55.3310   16.6358 H         1 B96         0.0837
     77 H38        50.1346   54.4536   17.0029 H         1 B96         0.0837
@<TRIPOS>BOND
     1    1    2 2  
     2    1    3 am 
     3    1   14 am 
     4    3    4 1  
     5    4    5 ar 
     6    4   13 ar 
     7    5    6 ar 
     8    5    8 ar 
     9    6    7 ar 
    10    6   11 ar 
    11    7   12 ar 
    12    7   31 1  
    13    8    9 ar 
    14    9   10 ar 
    15   10   11 ar 
    16   12   13 ar 
    17   14   15 1  
    18   15   16 2  
    19   15   19 1  
    20   16   17 1  
    21   17   18 2  
    22   17   24 1  
    23   18   19 1  
    24   19   20 1  
    25   20   25 ar 
    26   20   29 ar 
    27   24   21 1  
    28   24   22 1  
    29   24   23 1  
    30   25   26 ar 
    31   26   27 ar 
    32   27   28 ar 
    33   27   30 1  
    34   28   29 ar 
    35   31   32 1  
    36   32   33 1  
    37   33   34 1  
    38   34   35 1  
    39   34   39 1  
    40   35   36 1  
    41   36   37 1  
    42   37   38 1  
    43   38   39 1  
    44    3   40 1  
    45    8   41 1  
    46    9   42 1  
    47   10   43 1  
    48   11   44 1  
    49   12   45 1  
    50   13   46 1  
    51   14   47 1  
    52   16   48 1  
    53   21   49 1  
    54   21   50 1  
    55   21   51 1  
    56   22   52 1  
    57   22   53 1  
    58   22   54 1  
    59   23   55 1  
    60   23   56 1  
    61   23   57 1  
    62   25   58 1  
    63   26   59 1  
    64   28   60 1  
    65   29   61 1  
    66   30   62 1  
    67   30   63 1  
    68   30   64 1  
    69   32   65 1  
    70   32   66 1  
    71   33   67 1  
    72   33   68 1  
    73   34   69 1  
    74   35   70 1  
    75   35   71 1  
    76   36   72 1  
    77   36   73 1  
    78   38   74 1  
    79   38   75 1  
    80   39   76 1  
    81   39   77 1  
@<TRIPOS>SUBSTRUCTURE
     1 B96         1

