### 
### Created by X-TOOL on Mon Sep 10 21:13:04 2018
### 

@<TRIPOS>MOLECULE
3nq3_ligand
   31    30     1     0     0
SMALL
GAST_HUCK


@<TRIPOS>ATOM
      1 C1          8.0400   -0.6010    0.8160 C.2       1 DKA         0.0348
      2 O1          7.2490   -1.1220   -0.0040 O.co2     1 DKA        -0.5690
      3 C2          9.5150   -0.6680    0.5160 C.3       1 DKA         0.0002
      4 C3         10.0030   -2.1100    0.5520 C.3       1 DKA        -0.0414
      5 C4         11.3370   -2.2170   -0.1660 C.3       1 DKA        -0.0516
      6 C5         12.1390   -3.4130    0.3320 C.3       1 DKA        -0.0530
      7 C6         13.5250   -3.3600   -0.2960 C.3       1 DKA        -0.0531
      8 C7         14.2350   -4.6990   -0.1840 C.3       1 DKA        -0.0531
      9 C8         15.2240   -4.8530   -1.3220 C.3       1 DKA        -0.0533
     10 C9         16.6060   -5.2280   -0.8400 C.3       1 DKA        -0.0559
     11 C10        17.6060   -5.1560   -1.9730 C.3       1 DKA        -0.0653
     12 O2          7.6730   -0.0190    1.8620 O.co2     1 DKA        -0.5690
     13 H1         10.0640   -0.0815    1.2674 H         1 DKA         0.0430
     14 H2          9.7003   -0.2483   -0.4838 H         1 DKA         0.0430
     15 H3          9.2667   -2.7578    0.0538 H         1 DKA         0.0283
     16 H4         10.1240   -2.4291    1.5977 H         1 DKA         0.0283
     17 H5         11.9150   -1.2984    0.0129 H         1 DKA         0.0266
     18 H6         11.1552   -2.3316   -1.2448 H         1 DKA         0.0266
     19 H7         11.6346   -4.3458    0.0397 H         1 DKA         0.0265
     20 H8         12.2262   -3.3711    1.4277 H         1 DKA         0.0265
     21 H9         14.1226   -2.5937    0.2194 H         1 DKA         0.0265
     22 H10        13.4266   -3.0947   -1.3590 H         1 DKA         0.0265
     23 H11        13.4939   -5.5104   -0.2322 H         1 DKA         0.0265
     24 H12        14.7714   -4.7487    0.7750 H         1 DKA         0.0265
     25 H13        15.2869   -3.8992   -1.8663 H         1 DKA         0.0265
     26 H14        14.8616   -5.6393   -2.0005 H         1 DKA         0.0265
     27 H15        16.5839   -6.2535   -0.4428 H         1 DKA         0.0263
     28 H16        16.9117   -4.5330   -0.0441 H         1 DKA         0.0263
     29 H17        18.6032   -5.4324   -1.6000 H         1 DKA         0.0230
     30 H18        17.6349   -4.1313   -2.3720 H         1 DKA         0.0230
     31 H19        17.3071   -5.8519   -2.7707 H         1 DKA         0.0230
@<TRIPOS>BOND
     1    1    2 ar 
     2    1    3 1  
     3    1   12 ar 
     4    3    4 1  
     5    4    5 1  
     6    5    6 1  
     7    6    7 1  
     8    7    8 1  
     9    8    9 1  
    10    9   10 1  
    11   10   11 1  
    12    3   13 1  
    13    3   14 1  
    14    4   15 1  
    15    4   16 1  
    16    5   17 1  
    17    5   18 1  
    18    6   19 1  
    19    6   20 1  
    20    7   21 1  
    21    7   22 1  
    22    8   23 1  
    23    8   24 1  
    24    9   25 1  
    25    9   26 1  
    26   10   27 1  
    27   10   28 1  
    28   11   29 1  
    29   11   30 1  
    30   11   31 1  
@<TRIPOS>SUBSTRUCTURE
     1 DKA         1

