### 
### Created by X-TOOL on Mon Sep 10 21:13:04 2018
### 

@<TRIPOS>MOLECULE
3nq9_ligand
   25    24     1     0     0
SMALL
GAST_HUCK


@<TRIPOS>ATOM
      1 C1         -3.1830   -3.2620  -17.0780 C.2       1 OCA         0.0348
      2 C2         -2.6540   -4.5610  -17.6350 C.3       1 OCA         0.0002
      3 C3         -3.8030   -5.5260  -17.9290 C.3       1 OCA        -0.0414
      4 C4         -3.9210   -6.5870  -16.8450 C.3       1 OCA        -0.0516
      5 C5         -5.3290   -7.1720  -16.8130 C.3       1 OCA        -0.0530
      6 C6         -5.7850   -7.6230  -18.1890 C.3       1 OCA        -0.0533
      7 C7         -7.3050   -7.7030  -18.2680 C.3       1 OCA        -0.0559
      8 C8         -7.7110   -9.0490  -18.8230 C.3       1 OCA        -0.0653
      9 O1         -4.3080   -2.8480  -17.4500 O.co2     1 OCA        -0.5690
     10 O2         -2.4750   -2.6460  -16.2560 O.co2     1 OCA        -0.5690
     11 H1         -1.9752   -5.0197  -16.9010 H         1 OCA         0.0430
     12 H2         -2.1045   -4.3584  -18.5661 H         1 OCA         0.0430
     13 H3         -3.6194   -6.0189  -18.8951 H         1 OCA         0.0283
     14 H4         -4.7440   -4.9587  -17.9798 H         1 OCA         0.0283
     15 H5         -3.6969   -6.1322  -15.8688 H         1 OCA         0.0266
     16 H6         -3.2001   -7.3925  -17.0484 H         1 OCA         0.0266
     17 H7         -6.0246   -6.4052  -16.4413 H         1 OCA         0.0265
     18 H8         -5.3396   -8.0370  -16.1335 H         1 OCA         0.0265
     19 H9         -5.3622   -8.6165  -18.3992 H         1 OCA         0.0265
     20 H10        -5.4242   -6.9046  -18.9398 H         1 OCA         0.0265
     21 H11        -7.6803   -6.9064  -18.9272 H         1 OCA         0.0263
     22 H12        -7.7315   -7.5776  -17.2618 H         1 OCA         0.0263
     23 H13        -8.8080   -9.1064  -18.8799 H         1 OCA         0.0230
     24 H14        -7.3359   -9.8457  -18.1638 H         1 OCA         0.0230
     25 H15        -7.2847   -9.1745  -19.8292 H         1 OCA         0.0230
@<TRIPOS>BOND
     1    1    2 1  
     2    1    9 ar 
     3    1   10 ar 
     4    2    3 1  
     5    3    4 1  
     6    4    5 1  
     7    5    6 1  
     8    6    7 1  
     9    7    8 1  
    10    2   11 1  
    11    2   12 1  
    12    3   13 1  
    13    3   14 1  
    14    4   15 1  
    15    4   16 1  
    16    5   17 1  
    17    5   18 1  
    18    6   19 1  
    19    6   20 1  
    20    7   21 1  
    21    7   22 1  
    22    8   23 1  
    23    8   24 1  
    24    8   25 1  
@<TRIPOS>SUBSTRUCTURE
     1 OCA         1

