### 
### Created by X-TOOL on Mon Sep 10 21:13:04 2018
### 

@<TRIPOS>MOLECULE
3nrm_ligand
   32    35     1     0     0
SMALL
GAST_HUCK


@<TRIPOS>ATOM
      1 C1          6.4020   29.3950    8.9170 C.2       1 NRM         0.0207
      2 N1          2.4980   33.5140    6.4530 N.pl3     1 NRM        -0.2182
      3 S1          2.2010   33.7390    3.6730 S.3       1 NRM         0.0204
      4 C2          5.3720   30.5230    6.1490 C.2       1 NRM         0.0766
      5 N2          3.7520   32.1270    8.8740 N.2       1 NRM        -0.3274
      6 C3          4.8580   31.1130    4.9800 C.2       1 NRM         0.0129
      7 N3          4.9360   30.9400    7.3780 N.pl3     1 NRM        -0.2042
      8 N4          7.5540   27.7000    9.7990 N.2       1 NRM        -0.2180
      9 C5          3.4410   32.5050    6.3770 C.2       1 NRM         0.1966
     10 N5          8.3230   28.2510    8.8450 N.pl3     1 NRM        -0.2206
     11 C6          3.9900   31.8990    7.5240 C.2       1 NRM         0.2014
     12 N6          1.3140   34.8800    3.0740 N.2       1 NRM        -0.3116
     13 C7          5.3470   30.4430    8.6050 C.2       1 NRM         0.0835
     14 N7          3.9160   32.0750    5.1300 N.2       1 NRM        -0.2904
     15 C8          7.6390   29.2720    8.2950 C.2       1 NRM         0.0567
     16 C9          4.5770   31.2260    9.4880 C.2       1 NRM        -0.0198
     17 C10         6.3780   28.3720    9.8550 C.2       1 NRM         0.0051
     18 C11         1.9870   34.1420    5.3480 C.2       1 NRM         0.1476
     19 C12         1.1470   35.2420    5.3560 C.2       1 NRM        -0.0112
     20 C13        -0.1190   36.8070    3.7680 C.3       1 NRM        -0.0192
     21 C14         0.7800   35.6500    4.0720 C.2       1 NRM        -0.0145
     22 H           2.1681   33.8036    7.3737 H         1 NRM         0.2326
     23 H           6.1188   29.7324    6.0762 H         1 NRM         0.1051
     24 H           5.2040   30.8081    3.9924 H         1 NRM         0.0661
     25 H           9.2613   27.9486    8.5831 H         1 NRM         0.2578
     26 H           8.0003   29.9058    7.4851 H         1 NRM         0.0978
     27 H           4.6344   31.1219   10.5715 H         1 NRM         0.0476
     28 H           5.5495   28.1461   10.5264 H         1 NRM         0.0661
     29 H           0.8084   35.7365    6.2665 H         1 NRM         0.0278
     30 H           0.4171   37.5304    3.1537 H         1 NRM         0.0442
     31 H          -0.9974   36.4513    3.2295 H         1 NRM         0.0442
     32 H          -0.4293   37.2791    4.7002 H         1 NRM         0.0442
@<TRIPOS>BOND
     1   13    1 1  
     2    1   15 2  
     3    1   17 1  
     4    9    2 1  
     5    2   18 1  
     6    3   12 1  
     7   18    3 1  
     8    4    6 2  
     9    7    4 1  
    10   11    5 2  
    11    5   16 1  
    12    6   14 1  
    13   11    7 1  
    14    7   13 1  
    15    8   10 1  
    16   17    8 2  
    17    9   11 1  
    18    9   14 2  
    19   10   15 1  
    20   12   21 2  
    21   13   16 2  
    22   18   19 2  
    23   19   21 1  
    24   21   20 1  
    25    2   22 1  
    26    4   23 1  
    27    6   24 1  
    28   10   25 1  
    29   15   26 1  
    30   16   27 1  
    31   17   28 1  
    32   19   29 1  
    33   20   30 1  
    34   20   31 1  
    35   20   32 1  
@<TRIPOS>SUBSTRUCTURE
     1 NRM         1

