### 
### Created by X-TOOL on Mon Sep 10 21:13:03 2018
### 

@<TRIPOS>MOLECULE
3nrz_ligand
   14    15     1     0     0
SMALL
GAST_HUCK


@<TRIPOS>ATOM
      1 N1         37.7640   22.0610   17.9170 N.2       1 HPA        -0.2563
      2 C2         38.4060   21.5760   19.0290 C.2       1 HPA         0.1219
      3 N3         38.5010   20.2340   19.3120 N.pl3     1 HPA        -0.2354
      4 C4         37.9070   19.4080   18.3990 C.2       1 HPA         0.1468
      5 C5         37.2590   19.8730   17.3010 C.2       1 HPA         0.1536
      6 C6         37.1690   21.1970   17.0300 C.2       1 HPA         0.1735
      7 O6         36.5510   21.4920   15.9730 O.2       1 HPA        -0.4154
      8 N7         36.7580   18.8330   16.5990 N.pl3     1 HPA        -0.2591
      9 C8         37.0490   17.7980   17.2900 C.2       1 HPA         0.0996
     10 N9         37.7560   18.0660   18.3320 N.2       1 HPA        -0.2803
     11 H          38.8610   22.2868   19.7188 H         1 HPA         0.1558
     12 H          38.9789   19.8811   20.1411 H         1 HPA         0.2331
     13 H          36.2569   18.8666   15.7112 H         1 HPA         0.2347
     14 H          36.7307   16.7900   17.0239 H         1 HPA         0.1276
@<TRIPOS>BOND
     1    1    2 2  
     2    1    6 1  
     3    2    3 1  
     4    3    4 1  
     5    4    5 2  
     6    4   10 1  
     7    5    6 1  
     8    5    8 1  
     9    6    7 2  
    10    8    9 1  
    11    9   10 2  
    12    2   11 1  
    13    3   12 1  
    14    8   13 1  
    15    9   14 1  
@<TRIPOS>SUBSTRUCTURE
     1 HPA         1

