### 
### Created by X-TOOL on Mon Sep 10 21:13:06 2018
### 

@<TRIPOS>MOLECULE
3ns7_ligand
   59    60     1     0     0
SMALL
GAST_HUCK


@<TRIPOS>ATOM
      1 C1         28.3110    1.1930   51.0270 C.3       1 3NS         0.0772
      2 C2         28.7020    1.4260   49.5640 C.3       1 3NS         0.0575
      3 N1         29.9980    0.8300   49.3020 N.am      1 3NS        -0.2843
      4 C14        25.3980    3.3750   51.6540 C.ar      1 3NS         0.0209
      5 C15        24.8560    4.6290   51.6040 C.ar      1 3NS        -0.0656
      6 C16        25.6280    5.7130   51.1940 C.ar      1 3NS        -0.0786
      7 C17        26.9520    5.5180   50.8100 C.ar      1 3NS        -0.0766
      8 C18        27.5020    4.2410   50.8620 C.ar      1 3NS        -0.0420
      9 C19        26.7450    3.1670   51.2490 C.ar      1 3NS         0.0811
     10 N3         24.8760    2.1380   51.9730 N.2       1 3NS        -0.3182
     11 N4         27.0100    1.8080   51.3680 N.pl3     1 3NS        -0.2306
     12 C20        25.8600    1.2470   51.7830 C.2       1 3NS         0.1199
     13 C21        25.6490   -0.2460   51.9470 C.3       1 3NS         0.0184
     14 C3         30.8870    1.4240   48.4880 C.2       1 3NS         0.1786
     15 O1         30.7870    2.5610   48.0430 O.2       1 3NS        -0.3969
     16 C4         32.1220    0.5570   48.2580 C.3       1 3NS         0.0571
     17 C5         33.3070    1.4370   47.8180 C.3       1 3NS         0.0676
     18 C6         34.6320    1.0330   48.5110 C.3       1 3NS        -0.0249
     19 C7         33.3760    1.5010   46.2820 C.2       1 3NS         0.1820
     20 O2         32.7010    0.7600   45.5640 O.2       1 3NS        -0.3966
     21 C8         34.8940   -0.4860   48.5620 C.3       1 3NS        -0.0602
     22 C9         34.7060    1.6600   49.9170 C.3       1 3NS        -0.0602
     23 C13        35.8640    3.1580   44.1870 C.3       1 3NS         0.0687
     24 N2         34.2060    2.4550   45.8270 N.am      1 3NS        -0.2797
     25 O5         36.7280    2.0330   44.1730 O.3       1 3NS        -0.3926
     26 C10        34.4050    2.7480   44.4090 C.3       1 3NS         0.0764
     27 C11        33.4520    3.8880   44.0140 C.3       1 3NS         0.0254
     28 C12        33.1470    3.9080   42.5160 C.2       1 3NS         0.0371
     29 O3         32.3670    3.1220   42.0390 O.co2     1 3NS        -0.5689
     30 O4         33.5860    4.8570   41.8760 O.co2     1 3NS        -0.5689
     31 H          29.0749    1.6490   51.6568 H         1 3NS         0.0622
     32 H          28.2279    0.1180   51.1866 H         1 3NS         0.0622
     33 H          28.7518    2.4975   49.3701 H         1 3NS         0.0546
     34 H          27.9563    0.9682   48.9140 H         1 3NS         0.0546
     35 H          30.2393   -0.0570   49.7441 H         1 3NS         0.1852
     36 H          23.8143    4.7811   51.8865 H         1 3NS         0.0535
     37 H          25.1960    6.7135   51.1737 H         1 3NS         0.0516
     38 H          27.5542    6.3608   50.4706 H         1 3NS         0.0528
     39 H          28.5476    4.0935   50.5916 H         1 3NS         0.0541
     40 H          25.3291   -0.4565   52.9675 H         1 3NS         0.0497
     41 H          24.8831   -0.5823   51.2481 H         1 3NS         0.0497
     42 H          26.5837   -0.7683   51.7428 H         1 3NS         0.0497
     43 H          31.9078   -0.1733   47.4777 H         1 3NS         0.0530
     44 H          32.3795    0.0454   49.1854 H         1 3NS         0.0530
     45 H          33.1380    2.4580   48.1603 H         1 3NS         0.0565
     46 H          35.4318    1.4310   47.8864 H         1 3NS         0.0324
     47 H          34.0885   -0.9741   49.1107 H         1 3NS         0.0234
     48 H          34.9350   -0.8806   47.5468 H         1 3NS         0.0234
     49 H          35.8430   -0.6730   49.0645 H         1 3NS         0.0234
     50 H          34.6623    2.7458   49.8320 H         1 3NS         0.0234
     51 H          33.8661    1.3071   50.5155 H         1 3NS         0.0234
     52 H          35.6417    1.3690   50.3944 H         1 3NS         0.0234
     53 H          35.9371    3.6595   43.2220 H         1 3NS         0.0581
     54 H          36.1653    3.8127   45.0048 H         1 3NS         0.0581
     55 H          34.7265    3.0057   46.5098 H         1 3NS         0.1856
     56 H          36.4685    1.4404   43.4637 H         1 3NS         0.2095
     57 H          34.1924    1.8733   43.7943 H         1 3NS         0.0597
     58 H          33.9337    4.8315   44.2706 H         1 3NS         0.0454
     59 H          32.5121    3.7384   44.5454 H         1 3NS         0.0454
@<TRIPOS>BOND
     1    2    1 1  
     2    1   11 1  
     3    3    2 1  
     4   14    3 am 
     5    4    5 ar 
     6    9    4 ar 
     7   10    4 1  
     8    5    6 ar 
     9    7    6 ar 
    10    8    7 ar 
    11    9    8 ar 
    12   11    9 1  
    13   12   10 2  
    14   11   12 1  
    15   12   13 1  
    16   14   15 2  
    17   16   14 1  
    18   17   16 1  
    19   17   18 1  
    20   19   17 1  
    21   18   21 1  
    22   18   22 1  
    23   19   20 2  
    24   24   19 am 
    25   23   25 1  
    26   26   23 1  
    27   24   26 1  
    28   26   27 1  
    29   27   28 1  
    30   28   29 ar 
    31   28   30 ar 
    32    1   31 1  
    33    1   32 1  
    34    2   33 1  
    35    2   34 1  
    36    3   35 1  
    37    5   36 1  
    38    6   37 1  
    39    7   38 1  
    40    8   39 1  
    41   13   40 1  
    42   13   41 1  
    43   13   42 1  
    44   16   43 1  
    45   16   44 1  
    46   17   45 1  
    47   18   46 1  
    48   21   47 1  
    49   21   48 1  
    50   21   49 1  
    51   22   50 1  
    52   22   51 1  
    53   22   52 1  
    54   23   53 1  
    55   23   54 1  
    56   24   55 1  
    57   25   56 1  
    58   26   57 1  
    59   27   58 1  
    60   27   59 1  
@<TRIPOS>SUBSTRUCTURE
     1 3NS         1

