### 
### Created by X-TOOL on Mon Sep 10 21:13:03 2018
### 

@<TRIPOS>MOLECULE
3ns9_ligand
   55    57     1     0     0
SMALL
GAST_HUCK


@<TRIPOS>ATOM
      1 N1          1.6430   -4.8010  -29.2550 N.2       1 NS9        -0.2274
      2 N2          1.5250   -5.9400  -28.7130 N.pl3     1 NS9        -0.1275
      3 C3          2.4420   -6.9660  -28.5960 C.2       1 NS9         0.2158
      4 C4          2.0800   -8.0990  -27.8330 C.2       1 NS9         0.0368
      5 C5          0.7660   -8.2020  -27.2370 C.2       1 NS9         0.0850
      6 N6         -0.1350   -7.1610  -27.3200 N.2       1 NS9        -0.2990
      7 C7          0.2530   -6.0650  -28.0560 C.2       1 NS9         0.1315
      8 C8         -0.3640   -4.8510  -28.3800 C.2       1 NS9        -0.0307
      9 C9          0.5030   -4.1160  -29.1010 C.2       1 NS9        -0.0250
     10 N10         3.6520   -6.8040  -29.1880 N.pl3     1 NS9        -0.2612
     11 C11         4.7830   -7.7640  -28.9660 C.3       1 NS9         0.0691
     12 C12         4.7230   -8.8550  -30.0140 C.ar      1 NS9        -0.0199
     13 C13         4.7350   -8.4860  -31.3650 C.ar      1 NS9        -0.0583
     14 C14         4.6810   -9.4500  -32.3650 C.ar      1 NS9        -0.0685
     15 C15         4.6150  -10.8130  -32.0080 C.ar      1 NS9        -0.0687
     16 C16         4.6220  -11.1410  -30.6740 C.ar      1 NS9        -0.0685
     17 C17         4.6650  -10.1900  -29.6460 C.ar      1 NS9        -0.0583
     18 N18         0.4920   -9.3120  -26.5190 N.pl3     1 NS9        -0.2994
     19 C19        -0.9020   -9.5720  -26.0100 C.3       1 NS9         0.0907
     20 C20        -1.0830   -9.2120  -24.5500 C.3       1 NS9         0.1031
     21 C21        -0.7310   -7.7240  -24.1800 C.3       1 NS9         0.0724
     22 O22        -1.5920   -6.9460  -24.9620 O.3       1 NS9        -0.3924
     23 C23        -1.1950  -11.0980  -26.1930 C.3       1 NS9         0.0696
     24 O24        -0.0090  -11.8870  -25.9210 O.3       1 NS9        -0.3926
     25 O25        -2.4850   -9.5190  -24.2100 O.3       1 NS9        -0.3871
     26 C26        -1.7460   -4.4110  -27.9630 C.3       1 NS9        -0.0357
     27 C27        -1.7530   -4.0710  -26.4490 C.3       1 NS9        -0.0607
     28 C28        -2.8670   -5.4870  -28.1990 C.3       1 NS9        -0.0607
     29 H1          2.7991   -8.9045  -27.6920 H         1 NS9         0.0368
     30 H2          0.3078   -3.1205  -29.4969 H         1 NS9         0.0579
     31 H3          3.7987   -5.9960  -29.8097 H         1 NS9         0.1964
     32 H4          4.6953   -8.2106  -27.9646 H         1 NS9         0.0697
     33 H5          5.7408   -7.2291  -29.0463 H         1 NS9         0.0697
     34 H6          4.7870   -7.4371  -31.6338 H         1 NS9         0.0557
     35 H7          4.6895   -9.1572  -33.4087 H         1 NS9         0.0599
     36 H8          4.5600  -11.5836  -32.7684 H         1 NS9         0.0559
     37 H9          4.5927  -12.1901  -30.4026 H         1 NS9         0.0599
     38 H10         4.6534  -10.4868  -28.6035 H         1 NS9         0.0557
     39 H11         1.2430   -9.9874  -26.3173 H         1 NS9         0.1836
     40 H12        -1.6136   -8.9830  -26.6072 H         1 NS9         0.0606
     41 H13        -0.4223   -9.8601  -23.9555 H         1 NS9         0.0640
     42 H14         0.3188   -7.5026  -24.4229 H         1 NS9         0.0584
     43 H15        -0.9067   -7.5392  -23.1100 H         1 NS9         0.0584
     44 H16        -1.4337   -7.1270  -25.8810 H         1 NS9         0.2095
     45 H17        -1.5203  -11.2811  -27.2277 H         1 NS9         0.0581
     46 H18        -1.9941  -11.3974  -25.4990 H         1 NS9         0.0581
     47 H19         0.2735  -11.7341  -25.0270 H         1 NS9         0.2095
     48 H20        -2.6180   -9.3952  -23.2775 H         1 NS9         0.2100
     49 H21        -2.0023   -3.5102  -28.5399 H         1 NS9         0.0344
     50 H22        -2.7620   -3.7509  -26.1498 H         1 NS9         0.0242
     51 H23        -1.0374   -3.2591  -26.2522 H         1 NS9         0.0242
     52 H24        -1.4647   -4.9619  -25.8718 H         1 NS9         0.0242
     53 H25        -2.8967   -5.7579  -29.2647 H         1 NS9         0.0242
     54 H26        -3.8411   -5.0737  -27.8985 H         1 NS9         0.0242
     55 H27        -2.6478   -6.3826  -27.5991 H         1 NS9         0.0242
@<TRIPOS>BOND
     1    1    2 1  
     2    1    9 2  
     3    2    3 1  
     4    2    7 1  
     5    3    4 2  
     6    3   10 1  
     7    4    5 1  
     8    5    6 2  
     9    5   18 1  
    10    6    7 1  
    11    7    8 2  
    12    8    9 1  
    13    8   26 1  
    14   10   11 1  
    15   11   12 1  
    16   12   13 ar 
    17   12   17 ar 
    18   13   14 ar 
    19   14   15 ar 
    20   15   16 ar 
    21   16   17 ar 
    22   18   19 1  
    23   19   20 1  
    24   19   23 1  
    25   20   21 1  
    26   20   25 1  
    27   21   22 1  
    28   23   24 1  
    29   26   27 1  
    30   26   28 1  
    31    4   29 1  
    32    9   30 1  
    33   10   31 1  
    34   11   32 1  
    35   11   33 1  
    36   13   34 1  
    37   14   35 1  
    38   15   36 1  
    39   16   37 1  
    40   17   38 1  
    41   18   39 1  
    42   19   40 1  
    43   20   41 1  
    44   21   42 1  
    45   21   43 1  
    46   22   44 1  
    47   23   45 1  
    48   23   46 1  
    49   24   47 1  
    50   25   48 1  
    51   26   49 1  
    52   27   50 1  
    53   27   51 1  
    54   27   52 1  
    55   28   53 1  
    56   28   54 1  
    57   28   55 1  
@<TRIPOS>SUBSTRUCTURE
     1 NS9         1

