### 
### Created by X-TOOL on Mon Sep 10 21:13:04 2018
### 

@<TRIPOS>MOLECULE
3nsh_ligand
   64    66     1     0     0
SMALL
GAST_HUCK


@<TRIPOS>ATOM
      1 C1          0.3830   33.6660   32.5710 C.3       1 957         0.0257
      2 C2         -0.7050   33.6730   33.6010 C.2       1 957         0.1733
      3 N3         -1.9480   33.5270   33.1460 N.am      1 957        -0.2795
      4 C4         -3.1010   33.6380   34.0050 C.3       1 957         0.0821
      5 C5         -3.6050   32.2450   34.2490 C.3       1 957         0.1194
      6 C6         -2.5650   31.2950   34.8130 C.3       1 957        -0.0119
      7 N7         -3.2580   30.1540   35.3910 N.4       1 957         0.1470
      8 C8         -2.5150   29.4740   36.4780 C.3       1 957        -0.0394
      9 C9         -2.4600   30.2150   37.7800 C.2       1 957         0.0382
     10 C10        -3.5500   30.8160   38.3510 C.2       1 957        -0.0160
     11 C11        -3.2090   31.4760   39.5480 C.2       1 957         0.0167
     12 C12        -1.8550   31.4210   39.8520 C.2       1 957         0.0559
     13 S13        -1.0070   30.5300   38.6330 S.3       1 957        -0.0022
     14 C14        -4.2190   32.2090   40.3830 C.3       1 957        -0.0078
     15 C15        -4.9860   31.3940   41.3920 C.3       1 957        -0.0292
     16 C16        -4.0310   30.8410   42.4380 C.3       1 957        -0.0585
     17 C17        -5.7900   30.3280   40.6490 C.3       1 957        -0.0585
     18 C18        -5.9290   32.2990   42.1920 C.3       1 957        -0.0585
     19 O19        -0.4630   33.7920   34.8000 O.2       1 957        -0.3974
     20 C20        -4.1240   34.4870   33.2960 C.3       1 957         0.0048
     21 C21        -3.4270   35.8270   33.0100 C.ar      1 957        -0.0445
     22 C22        -3.3210   36.2840   31.6910 C.ar      1 957        -0.0310
     23 C23        -2.6700   37.4900   31.4380 C.ar      1 957         0.1242
     24 C24        -2.1040   38.2270   32.4760 C.ar      1 957        -0.0019
     25 C25        -2.2010   37.7700   33.7900 C.ar      1 957         0.1242
     26 C26        -2.8760   36.5650   34.0570 C.ar      1 957        -0.0310
     27 F27        -2.5440   38.0560   30.1100 F         1 957        -0.1863
     28 F28        -1.5710   38.6430   34.8310 F         1 957        -0.1863
     29 O29        -4.6770   32.3020   35.1800 O.3       1 957        -0.3840
     30 C30        -1.2310   28.7090   36.1210 C.3       1 957        -0.0604
     31 C31        -2.4770   27.9450   36.5960 C.3       1 957        -0.0604
     32 H1          1.3571   33.7935   33.0658 H         1 957         0.0467
     33 H2          0.2215   34.4909   31.8614 H         1 957         0.0467
     34 H3          0.3693   32.7086   32.0296 H         1 957         0.0467
     35 H4         -2.0867   33.3336   32.1747 H         1 957         0.1857
     36 H5         -2.8280   34.1085   34.9611 H         1 957         0.0606
     37 H6         -3.9674   31.8382   33.2934 H         1 957         0.0672
     38 H7         -1.9763   31.8055   35.5894 H         1 957         0.0842
     39 H8         -1.8954   30.9558   34.0089 H         1 957         0.0842
     40 H9         -3.4279   29.4835   34.6577 H         1 957         0.1948
     41 H10        -4.1380   30.4749   35.7633 H         1 957         0.1948
     42 H11        -4.5548   30.7873   37.9321 H         1 957         0.0936
     43 H12        -1.3937   31.8724   40.7292 H         1 957         0.1245
     44 H13        -4.9497   32.6641   39.6982 H         1 957         0.0410
     45 H14        -3.6867   33.0009   40.9303 H         1 957         0.0410
     46 H15        -4.5952   30.2470   43.1721 H         1 957         0.0236
     47 H16        -3.5261   31.6733   42.9501 H         1 957         0.0236
     48 H17        -3.2808   30.2025   41.9486 H         1 957         0.0236
     49 H18        -6.4513   30.8125   39.9155 H         1 957         0.0236
     50 H19        -6.3959   29.7578   41.3686 H         1 957         0.0236
     51 H20        -5.1016   29.6464   40.1279 H         1 957         0.0236
     52 H21        -5.3416   33.0625   42.7230 H         1 957         0.0236
     53 H22        -6.4875   31.6935   42.9210 H         1 957         0.0236
     54 H23        -6.6348   32.7906   41.5063 H         1 957         0.0236
     55 H24        -5.0044   34.6419   33.9369 H         1 957         0.0448
     56 H25        -4.4346   34.0080   32.3557 H         1 957         0.0448
     57 H26        -3.7406   35.7062   30.8755 H         1 957         0.0508
     58 H27        -1.5880   39.1560   32.2622 H         1 957         0.0532
     59 H28        -2.9678   36.2100   35.0771 H         1 957         0.0508
     60 H29        -5.3471   32.8913   34.8540 H         1 957         0.2101
     61 H30        -0.3480   28.7813   36.7730 H         1 957         0.0137
     62 H31        -0.9074   28.6361   35.0722 H         1 957         0.0137
     63 H32        -3.0449   27.3245   35.8872 H         1 957         0.0137
     64 H33        -2.4855   27.4697   37.5880 H         1 957         0.0137
@<TRIPOS>BOND
     1    1    2 1  
     2    2    3 am 
     3    2   19 2  
     4    3    4 1  
     5    4    5 1  
     6    4   20 1  
     7    5    6 1  
     8    5   29 1  
     9    6    7 1  
    10    7    8 1  
    11    8    9 1  
    12    8   30 1  
    13    8   31 1  
    14    9   10 2  
    15    9   13 1  
    16   10   11 1  
    17   11   12 2  
    18   11   14 1  
    19   12   13 1  
    20   14   15 1  
    21   15   16 1  
    22   15   17 1  
    23   15   18 1  
    24   20   21 1  
    25   21   22 ar 
    26   21   26 ar 
    27   22   23 ar 
    28   23   24 ar 
    29   23   27 1  
    30   24   25 ar 
    31   25   26 ar 
    32   25   28 1  
    33   30   31 1  
    34    1   32 1  
    35    1   33 1  
    36    1   34 1  
    37    3   35 1  
    38    4   36 1  
    39    5   37 1  
    40    6   38 1  
    41    6   39 1  
    42    7   40 1  
    43    7   41 1  
    44   10   42 1  
    45   12   43 1  
    46   14   44 1  
    47   14   45 1  
    48   16   46 1  
    49   16   47 1  
    50   16   48 1  
    51   17   49 1  
    52   17   50 1  
    53   17   51 1  
    54   18   52 1  
    55   18   53 1  
    56   18   54 1  
    57   20   55 1  
    58   20   56 1  
    59   22   57 1  
    60   24   58 1  
    61   26   59 1  
    62   29   60 1  
    63   30   61 1  
    64   30   62 1  
    65   31   63 1  
    66   31   64 1  
@<TRIPOS>SUBSTRUCTURE
     1 957         1

