### 
### Created by X-TOOL on Mon Sep 10 21:13:03 2018
### 

@<TRIPOS>MOLECULE
3nsn_ligand
  116   119     1     0     0
SMALL
GAST_HUCK


@<TRIPOS>ATOM
      1 C11        35.9850    2.6440   13.2710 C.3       1 CTO         0.1854
      2 C21        37.4400    2.9630   13.6510 C.3       1 CTO         0.1210
      3 N21        37.6890    4.3940   13.4050 N.am      1 CTO        -0.2766
      4 C71        37.7810    5.3260   14.3750 C.2       1 CTO         0.1733
      5 O71        37.9820    6.5250   14.1590 O.2       1 CTO        -0.3974
      6 C81        37.6120    4.8310   15.8020 C.3       1 CTO         0.0257
      7 C31        38.4290    2.1210   12.8210 C.3       1 CTO         0.1114
      8 O31        39.7680    2.2530   13.3470 O.3       1 CTO        -0.3867
      9 C41        38.0470    0.6260   12.7630 C.3       1 CTO         0.1183
     10 O41        38.8480    0.0420   11.7290 O.3       1 CTO        -0.3377
     11 C51        36.5520    0.4830   12.4340 C.3       1 CTO         0.1134
     12 O51        35.7590    1.2360   13.3660 O.3       1 CTO        -0.3408
     13 C61        36.0990   -0.9650   12.5820 C.3       1 CTO         0.0730
     14 O61        34.8110   -1.1020   12.0000 O.3       1 CTO        -0.3924
     15 C12        31.0540    4.1730   14.6930 C.3       1 CTO         0.1854
     16 C22        31.3750    2.7020   14.5150 C.3       1 CTO         0.1210
     17 N22        30.6630    1.9200   15.5410 N.am      1 CTO        -0.2766
     18 C72        29.5660    1.1990   15.2590 C.2       1 CTO         0.1733
     19 O72        29.0610    1.1150   14.1390 O.2       1 CTO        -0.3974
     20 C82        28.9570    0.4550   16.4560 C.3       1 CTO         0.0257
     21 C32        32.8820    2.4440   14.6310 C.3       1 CTO         0.1114
     22 O32        33.1420    1.0820   14.2590 O.3       1 CTO        -0.3867
     23 C42        33.7160    3.3750   13.7290 C.3       1 CTO         0.1181
     24 O42        35.0900    3.3380   14.1740 O.3       1 CTO        -0.3404
     25 C52        33.2120    4.8270   13.7830 C.3       1 CTO         0.1134
     26 O52        31.7650    4.9190   13.6970 O.3       1 CTO        -0.3408
     27 C62        33.7690    5.5840   12.5810 C.3       1 CTO         0.0730
     28 O62        34.1450    6.8880   13.0020 O.3       1 CTO        -0.3924
     29 C13        27.9930    8.0450   16.0110 C.3       1 CTO         0.1823
     30 O13        26.9210    8.5050   16.8530 O.3       1 CTO        -0.3651
     31 C23        29.0920    7.3370   16.8850 C.3       1 CTO         0.1208
     32 N23        30.2920    8.2070   16.8850 N.am      1 CTO        -0.2766
     33 C73        31.2640    8.1770   17.8210 C.2       1 CTO         0.1733
     34 O73        31.2920    7.4130   18.7870 O.2       1 CTO        -0.3974
     35 C83        32.3900    9.1880   17.5990 C.3       1 CTO         0.0257
     36 C33        29.4840    5.8560   16.4890 C.3       1 CTO         0.1114
     37 O33        29.1590    4.9680   17.5770 O.3       1 CTO        -0.3867
     38 C43        28.8330    5.3350   15.1820 C.3       1 CTO         0.1181
     39 O43        29.6420    4.3370   14.4500 O.3       1 CTO        -0.3404
     40 C53        28.4830    6.5180   14.2880 C.3       1 CTO         0.1133
     41 O53        27.4360    7.2330   14.9430 O.3       1 CTO        -0.3409
     42 C63        28.0510    6.0500   12.9000 C.3       1 CTO         0.0730
     43 O63        29.1920    6.1280   12.0460 O.3       1 CTO        -0.3924
     44 C1         39.2880   -1.3360   11.9010 C.3       1 TMX         0.2060
     45 C2         40.2860   -1.6910   10.7400 C.3       1 TMX         0.0613
     46 N2         40.2100   -3.1160   10.2670 N.4       1 TMX         0.2445
     47 C3         41.7390   -1.1950   11.0580 C.3       1 TMX         0.1306
     48 O3         42.2240   -0.3680    9.9830 O.3       1 TMX        -0.3834
     49 C4         41.8210   -0.4130   12.3710 C.3       1 TMX         0.1147
     50 O4         43.1980   -0.1200   12.6430 O.3       1 TMX        -0.3864
     51 C5         41.2170   -1.2510   13.5070 C.3       1 TMX         0.1132
     52 O5         39.8250   -1.6150   13.2390 O.3       1 TMX        -0.3381
     53 C6         41.2770   -0.5020   14.8350 C.3       1 TMX         0.0730
     54 O6         40.8730   -1.3900   15.8850 O.3       1 TMX        -0.3924
     55 C7         38.9190   -3.3920    9.6250 C.3       1 TMX        -0.0413
     56 C8         40.3760   -4.1200   11.3310 C.3       1 TMX        -0.0413
     57 C9         41.2380   -3.3960    9.2470 C.3       1 TMX        -0.0413
     58 H1         35.7952    2.9758   12.2396 H         1 CTO         0.0935
     59 H2         37.5904    2.7427   14.7181 H         1 CTO         0.0633
     60 H3         37.7968    4.6936   12.4570 H         1 CTO         0.1857
     61 H4         37.7071    5.6779   16.4975 H         1 CTO         0.0467
     62 H5         38.3881    4.0842   16.0254 H         1 CTO         0.0467
     63 H6         36.6185    4.3728   15.9159 H         1 CTO         0.0467
     64 H7         38.4198    2.5121   11.7929 H         1 CTO         0.0645
     65 H8         40.3649    1.7291   12.8257 H         1 CTO         0.2100
     66 H9         38.2589    0.1400   13.7268 H         1 CTO         0.0650
     67 H10        36.3709    0.8346   11.4076 H         1 CTO         0.0647
     68 H11        36.0533   -1.2312   13.6483 H         1 CTO         0.0584
     69 H12        36.8096   -1.6293   12.0684 H         1 CTO         0.0584
     70 H13        34.8542   -0.8697   11.0798 H         1 CTO         0.2095
     71 H14        31.3233    4.5147   15.7033 H         1 CTO         0.0935
     72 H15        31.0366    2.3831   13.5181 H         1 CTO         0.0633
     73 H16        31.0086    1.9265   16.4794 H         1 CTO         0.1857
     74 H17        28.0683   -0.1035   16.1270 H         1 CTO         0.0467
     75 H18        28.6679    1.1808   17.2304 H         1 CTO         0.0467
     76 H19        29.6983   -0.2453   16.8682 H         1 CTO         0.0467
     77 H20        33.1869    2.6026   15.6759 H         1 CTO         0.0645
     78 H21        34.0736    0.9088   14.3266 H         1 CTO         0.2100
     79 H22        33.6555    3.0155   12.6912 H         1 CTO         0.0650
     80 H23        33.5547    5.2922   14.7190 H         1 CTO         0.0647
     81 H24        32.9994    5.6547   11.7983 H         1 CTO         0.0584
     82 H25        34.6479    5.0547   12.1843 H         1 CTO         0.0584
     83 H26        34.8080    6.8220   13.6792 H         1 CTO         0.2095
     84 H27        28.4663    8.9208   15.5431 H         1 CTO         0.0932
     85 H28        26.3147    9.0235   16.3371 H         1 CTO         0.2126
     86 H29        28.7014    7.2894   17.9122 H         1 CTO         0.0633
     87 H30        30.3885    8.8639   16.1372 H         1 CTO         0.1857
     88 H31        33.1326    9.0925   18.4048 H         1 CTO         0.0467
     89 H32        31.9743   10.2064   17.6023 H         1 CTO         0.0467
     90 H33        32.8729    8.9922   16.6303 H         1 CTO         0.0467
     91 H34        30.5737    5.8359   16.3401 H         1 CTO         0.0645
     92 H35        29.3942    4.0788   17.3396 H         1 CTO         0.2100
     93 H36        27.8936    4.8371   15.4642 H         1 CTO         0.0650
     94 H37        29.3620    7.1706   14.1809 H         1 CTO         0.0647
     95 H38        27.2503    6.6997   12.5170 H         1 CTO         0.0584
     96 H39        27.6892    5.0124   12.9493 H         1 CTO         0.0584
     97 H40        29.8798    5.5680   12.3864 H         1 CTO         0.2095
     98 H41        38.4040   -1.9796   11.7813 H         1 CTO         0.0970
     99 H42        39.9553   -1.0914    9.8792 H         1 CTO         0.0929
    100 H43        42.3887   -2.0784   11.1439 H         1 CTO         0.0679
    101 H44        42.2345   -0.8716    9.1775 H         1 CTO         0.2102
    102 H45        41.2586    0.5276   12.2761 H         1 CTO         0.0648
    103 H46        43.2624    0.3659   13.4567 H         1 CTO         0.2100
    104 H47        41.8072   -2.1748   13.5977 H         1 CTO         0.0647
    105 H48        40.5994    0.3639   14.8020 H         1 CTO         0.0584
    106 H49        42.3050   -0.1563   15.0184 H         1 CTO         0.0584
    107 H50        40.9073   -0.9318   16.7165 H         1 CTO         0.2095
    108 H51        38.8926   -4.4394    9.2900 H         1 CTO         0.0778
    109 H52        38.7907   -2.7266    8.7585 H         1 CTO         0.0778
    110 H53        38.1064   -3.2169   10.3454 H         1 CTO         0.0778
    111 H54        41.3344   -3.9546   11.8449 H         1 CTO         0.0778
    112 H55        40.3659   -5.1274   10.8894 H         1 CTO         0.0778
    113 H56        39.5519   -4.0281   12.0537 H         1 CTO         0.0778
    114 H57        41.1508   -2.6662    8.4286 H         1 CTO         0.0778
    115 H58        41.0933   -4.4114    8.8496 H         1 CTO         0.0778
    116 H59        42.2365   -3.3191    9.7020 H         1 CTO         0.0778
@<TRIPOS>BOND
     1    1    2 1  
     2    1   12 1  
     3   24    1 1  
     4    2    3 1  
     5    2    7 1  
     6    3    4 am 
     7    4    5 2  
     8    4    6 1  
     9    7    8 1  
    10    7    9 1  
    11    9   10 1  
    12   11    9 1  
    13   10   44 1  
    14   12   11 1  
    15   11   13 1  
    16   13   14 1  
    17   15   16 1  
    18   15   26 1  
    19   39   15 1  
    20   16   17 1  
    21   16   21 1  
    22   17   18 am 
    23   18   19 2  
    24   18   20 1  
    25   21   22 1  
    26   21   23 1  
    27   23   24 1  
    28   25   23 1  
    29   26   25 1  
    30   25   27 1  
    31   27   28 1  
    32   29   30 1  
    33   31   29 1  
    34   29   41 1  
    35   31   32 1  
    36   36   31 1  
    37   32   33 am 
    38   33   34 2  
    39   33   35 1  
    40   36   37 1  
    41   38   36 1  
    42   38   39 1  
    43   38   40 1  
    44   40   41 1  
    45   40   42 1  
    46   42   43 1  
    47   44   45 1  
    48   44   52 1  
    49   45   46 1  
    50   45   47 1  
    51   46   55 1  
    52   46   56 1  
    53   46   57 1  
    54   47   48 1  
    55   47   49 1  
    56   49   50 1  
    57   49   51 1  
    58   51   52 1  
    59   51   53 1  
    60   53   54 1  
    61    1   58 1  
    62    2   59 1  
    63    3   60 1  
    64    6   61 1  
    65    6   62 1  
    66    6   63 1  
    67    7   64 1  
    68    8   65 1  
    69    9   66 1  
    70   11   67 1  
    71   13   68 1  
    72   13   69 1  
    73   14   70 1  
    74   15   71 1  
    75   16   72 1  
    76   17   73 1  
    77   20   74 1  
    78   20   75 1  
    79   20   76 1  
    80   21   77 1  
    81   22   78 1  
    82   23   79 1  
    83   25   80 1  
    84   27   81 1  
    85   27   82 1  
    86   28   83 1  
    87   29   84 1  
    88   30   85 1  
    89   31   86 1  
    90   32   87 1  
    91   35   88 1  
    92   35   89 1  
    93   35   90 1  
    94   36   91 1  
    95   37   92 1  
    96   38   93 1  
    97   40   94 1  
    98   42   95 1  
    99   42   96 1  
   100   43   97 1  
   101   44   98 1  
   102   45   99 1  
   103   47  100 1  
   104   48  101 1  
   105   49  102 1  
   106   50  103 1  
   107   51  104 1  
   108   53  105 1  
   109   53  106 1  
   110   54  107 1  
   111   55  108 1  
   112   55  109 1  
   113   55  110 1  
   114   56  111 1  
   115   56  112 1  
   116   56  113 1  
   117   57  114 1  
   118   57  115 1  
   119   57  116 1  
@<TRIPOS>SUBSTRUCTURE
     1 CTO         1

