### 
### Created by X-TOOL on Mon Sep 10 21:13:04 2018
### 

@<TRIPOS>MOLECULE
3nsq_ligand
   26    28     1     0     0
SMALL
GAST_HUCK


@<TRIPOS>ATOM
      1 OAA        52.7090  -16.0920    6.9920 O.2       1 CHZ        -0.3616
      2 CAM        53.5360  -16.4780    7.8160 C.2       1 CHZ         0.1634
      3 CAO        54.4960  -17.4180    7.4590 C.ar      1 CHZ         0.0432
      4 CAI        54.5290  -17.9290    6.1670 C.ar      1 CHZ        -0.0491
      5 CAE        55.4900  -18.8710    5.8160 C.ar      1 CHZ        -0.0602
      6 CAG        56.4200  -19.3000    6.7550 C.ar      1 CHZ        -0.0225
      7 CAK        56.3840  -18.7840    8.0450 C.ar      1 CHZ         0.1125
      8 OAC        57.2860  -19.1940    8.9700 O.3       1 CHZ        -0.3264
      9 CAQ        55.4260  -17.8460    8.3970 C.ar      1 CHZ         0.0777
     10 CAN        55.4010  -17.3390    9.6910 C.2       1 CHZ         0.1566
     11 OAB        56.2260  -17.7200   10.5220 O.2       1 CHZ        -0.3754
     12 CAR        54.4400  -16.3990   10.0450 C.ar      1 CHZ         0.0777
     13 CAP        53.5100  -15.9690    9.1070 C.ar      1 CHZ         0.0432
     14 CAJ        52.5480  -15.0310    9.4560 C.ar      1 CHZ        -0.0491
     15 CAF        52.5200  -14.5230   10.7460 C.ar      1 CHZ        -0.0602
     16 CAH        53.4500  -14.9500   11.6860 C.ar      1 CHZ        -0.0225
     17 CAL        54.4120  -15.8890   11.3360 C.ar      1 CHZ         0.1125
     18 OAD        55.3250  -16.3080   12.2540 O.3       1 CHZ        -0.3264
     19 H          53.8016  -17.5914    5.4287 H         1 CHZ         0.0592
     20 H          55.5137  -19.2732    4.8032 H         1 CHZ         0.0637
     21 H          57.1742  -20.0377    6.4812 H         1 CHZ         0.0592
     22 H          57.1196  -18.7415    9.8001 H         1 CHZ         0.2511
     23 H          51.8180  -14.6953    8.7194 H         1 CHZ         0.0592
     24 H          51.7660  -13.7864   11.0235 H         1 CHZ         0.0637
     25 H          53.4247  -14.5478   12.6988 H         1 CHZ         0.0592
     26 H          55.9110  -16.9521   11.8499 H         1 CHZ         0.2511
@<TRIPOS>BOND
     1    1    2 2  
     2    2    3 1  
     3    2   13 1  
     4    3    4 ar 
     5    3    9 ar 
     6    4    5 ar 
     7    5    6 ar 
     8    6    7 ar 
     9    7    8 1  
    10    7    9 ar 
    11    9   10 1  
    12   10   11 2  
    13   10   12 1  
    14   12   13 ar 
    15   12   17 ar 
    16   13   14 ar 
    17   14   15 ar 
    18   15   16 ar 
    19   16   17 ar 
    20   17   18 1  
    21    4   19 1  
    22    5   20 1  
    23    6   21 1  
    24    8   22 1  
    25   14   23 1  
    26   15   24 1  
    27   16   25 1  
    28   18   26 1  
@<TRIPOS>SUBSTRUCTURE
     1 CHZ         1

