### 
### Created by X-TOOL on Mon Sep 10 21:13:02 2018
### 

@<TRIPOS>MOLECULE
3nu3_ligand
   70    72     1     0     0
SMALL
GAST_HUCK


@<TRIPOS>ATOM
      1 C1         12.4560   18.0160   19.7620 C.3       1 478         0.0782
      2 C2         14.4290   18.7200   20.8760 C.3       1 478         0.0034
      3 C3         14.6150   20.5140   18.2890 C.2       1 478         0.3203
      4 C4         13.8340   18.5760   19.4830 C.3       1 478         0.1134
      5 C5         15.1800   22.6440   17.1740 C.3       1 478         0.0807
      6 C6         15.6420   23.7670   18.0870 C.3       1 478         0.0967
      7 C7         14.4840   23.1260   15.9110 C.3       1 478         0.0064
      8 C8         14.0720   21.9840   14.9890 C.ar      1 478        -0.0408
      9 C9         12.7980   21.4770   14.9830 C.ar      1 478        -0.0603
     10 C10        15.0220   21.3710   14.1580 C.ar      1 478        -0.0603
     11 C11        12.4520   20.3800   14.2270 C.ar      1 478        -0.0686
     12 C12        14.6940   20.2900   13.3760 C.ar      1 478        -0.0686
     13 C13        13.4110   19.8100   13.4310 C.ar      1 478        -0.0687
     14 C14        16.7590   24.6690   17.5750 C.3       1 478         0.0578
     15 C15        19.0180   24.3960   18.5690 C.3       1 478         0.0319
     16 C16        18.6750   23.8240   19.9270 C.3       1 478        -0.0296
     17 C17        19.5070   25.0860   15.3930 C.ar      1 478         0.0949
     18 C18        18.7370   26.0010   14.6500 C.ar      1 478        -0.0471
     19 C19        19.2680   27.1610   14.1740 C.ar      1 478        -0.0429
     20 C20        20.6050   27.4550   14.3740 C.ar      1 478         0.0353
     21 C21        21.4030   26.5730   15.1280 C.ar      1 478        -0.0429
     22 C22        20.8550   25.3770   15.6600 C.ar      1 478        -0.0471
     23 C23        18.6000   22.2940   19.9200 C.3       1 478        -0.0612
     24 C24        19.6840   24.2860   20.9880 C.3       1 478        -0.0612
     25 C25        13.2970   18.3110   21.8450 C.3       1 478         0.0505
     26 N1         14.2780   21.7450   17.9010 N.am      1 478        -0.2550
     27 N2         18.0690   24.0060   17.5200 N.am      1 478        -0.2327
     28 N3         21.1080   28.6900   14.0090 N.pl3     1 478        -0.3369
     29 O1         13.5750   19.8880   18.8630 O.3       1 478        -0.2582
     30 O2         15.7730   19.9990   18.1850 O.2       1 478        -0.3775
     31 O3         14.4720   24.5600   18.4230 O.3       1 478        -0.3877
     32 O4         17.6060   23.4010   15.1600 O.2       1 478        -0.1518
     33 O5         19.7300   22.6620   16.2780 O.2       1 478        -0.1518
     34 O6         12.0980   18.4530   21.0540 O.3       1 478        -0.3768
     35 S1         18.7070   23.6850   16.0520 S.o2      1 478         0.0648
     36 H1         12.4784   16.9168   19.7257 H         1 478         0.0589
     37 H2         11.7359   18.3928   19.0208 H         1 478         0.0589
     38 H3         14.7358   19.7604   21.0587 H         1 478         0.0316
     39 H4         15.2974   18.0554   20.9950 H         1 478         0.0316
     40 H5         14.4484   17.9329   18.8357 H         1 478         0.0671
     41 H6         16.0710   22.0750   16.8703 H         1 478         0.0604
     42 H7         16.0190   23.2974   19.0075 H         1 478         0.0634
     43 H8         15.1697   23.7893   15.3635 H         1 478         0.0449
     44 H9         13.5829   23.6872   16.1990 H         1 478         0.0449
     45 H10        12.0397   21.9550   15.5926 H         1 478         0.0557
     46 H11        16.0343   21.7578   14.1325 H         1 478         0.0557
     47 H12        11.4462   19.9771   14.2604 H         1 478         0.0599
     48 H13        15.4322   19.8276   12.7308 H         1 478         0.0599
     49 H14        13.1463   18.9512   12.8248 H         1 478         0.0559
     50 H15        16.8372   25.5396   18.2428 H         1 478         0.0504
     51 H16        16.4969   25.0067   16.5615 H         1 478         0.0504
     52 H17        20.0195   24.0417   18.2834 H         1 478         0.0480
     53 H18        19.0247   25.4934   18.6436 H         1 478         0.0480
     54 H19        17.6832   24.2080   20.2077 H         1 478         0.0311
     55 H20        17.6952   25.7764   14.4519 H         1 478         0.0602
     56 H21        18.6385   27.8593   13.6344 H         1 478         0.0515
     57 H22        22.4461   26.8100   15.3037 H         1 478         0.0515
     58 H23        21.4611   24.7052   16.2571 H         1 478         0.0602
     59 H24        18.3485   21.9346   20.9288 H         1 478         0.0233
     60 H25        19.5728   21.8806   19.6155 H         1 478         0.0233
     61 H26        17.8248   21.9681   19.2109 H         1 478         0.0233
     62 H27        19.7358   25.3848   20.9908 H         1 478         0.0233
     63 H28        20.6764   23.8728   20.7548 H         1 478         0.0233
     64 H29        19.3627   23.9316   21.9785 H         1 478         0.0233
     65 H30        13.2703   18.9772   22.7199 H         1 478         0.0561
     66 H31        13.4245   17.2710   22.1798 H         1 478         0.0561
     67 H32        13.3587   22.0732   18.1181 H         1 478         0.1873
     68 H33        20.5291   29.3393   13.4575 H         1 478         0.1719
     69 H34        22.0617   28.9607   14.2885 H         1 478         0.1719
     70 H35        14.1704   25.0210   17.6491 H         1 478         0.2100
@<TRIPOS>BOND
     1    4    1 1  
     2    1   34 1  
     3    4    2 1  
     4    2   25 1  
     5   26    3 am 
     6    3   29 1  
     7    3   30 2  
     8   29    4 1  
     9    6    5 1  
    10    5    7 1  
    11    5   26 1  
    12   14    6 1  
    13    6   31 1  
    14    7    8 1  
    15    8    9 ar 
    16    8   10 ar 
    17    9   11 ar 
    18   10   12 ar 
    19   11   13 ar 
    20   12   13 ar 
    21   27   14 1  
    22   15   16 1  
    23   27   15 1  
    24   16   23 1  
    25   16   24 1  
    26   17   18 ar 
    27   17   22 ar 
    28   35   17 1  
    29   18   19 ar 
    30   19   20 ar 
    31   21   20 ar 
    32   20   28 1  
    33   22   21 ar 
    34   25   34 1  
    35   27   35 am 
    36   35   32 2  
    37   35   33 2  
    38    1   36 1  
    39    1   37 1  
    40    2   38 1  
    41    2   39 1  
    42    4   40 1  
    43    5   41 1  
    44    6   42 1  
    45    7   43 1  
    46    7   44 1  
    47    9   45 1  
    48   10   46 1  
    49   11   47 1  
    50   12   48 1  
    51   13   49 1  
    52   14   50 1  
    53   14   51 1  
    54   15   52 1  
    55   15   53 1  
    56   16   54 1  
    57   18   55 1  
    58   19   56 1  
    59   21   57 1  
    60   22   58 1  
    61   23   59 1  
    62   23   60 1  
    63   23   61 1  
    64   24   62 1  
    65   24   63 1  
    66   24   64 1  
    67   25   65 1  
    68   25   66 1  
    69   26   67 1  
    70   28   68 1  
    71   28   69 1  
    72   31   70 1  
@<TRIPOS>SUBSTRUCTURE
     1 478         1

