### 
### Created by X-TOOL on Mon Sep 10 21:13:02 2018
### 

@<TRIPOS>MOLECULE
3nu4_ligand
   70    72     1     0     0
SMALL
GAST_HUCK


@<TRIPOS>ATOM
      1 C1         12.4140   18.1580   19.8240 C.3       1 478         0.0782
      2 C2         14.3460   19.0590   20.8790 C.3       1 478         0.0034
      3 C3         14.5170   20.7300   18.2950 C.2       1 478         0.3203
      4 C4         13.7610   18.8090   19.4840 C.3       1 478         0.1134
      5 C5         15.0150   22.9050   17.1380 C.3       1 478         0.0807
      6 C6         15.4490   23.9970   18.0940 C.3       1 478         0.0967
      7 C7         14.2540   23.3390   15.8940 C.3       1 478         0.0064
      8 C8         13.8220   22.2310   14.9890 C.ar      1 478        -0.0408
      9 C9         12.5230   21.7390   15.0190 C.ar      1 478        -0.0603
     10 C10        14.7520   21.6390   14.1380 C.ar      1 478        -0.0603
     11 C11        12.2260   20.6070   14.2360 C.ar      1 478        -0.0686
     12 C12        14.4620   20.5580   13.3160 C.ar      1 478        -0.0686
     13 C13        13.1790   20.0540   13.3860 C.ar      1 478        -0.0687
     14 C14        16.5710   24.8860   17.5760 C.3       1 478         0.0578
     15 C15        18.7870   24.6260   18.5170 C.3       1 478         0.0319
     16 C16        18.4920   23.9600   19.8900 C.3       1 478        -0.0296
     17 C17        19.3390   25.3170   15.3460 C.ar      1 478         0.0949
     18 C18        18.6440   26.2570   14.6090 C.ar      1 478        -0.0471
     19 C19        19.1700   27.4660   14.1590 C.ar      1 478        -0.0429
     20 C20        20.4910   27.7420   14.4800 C.ar      1 478         0.0353
     21 C21        21.2190   26.7810   15.1570 C.ar      1 478        -0.0429
     22 C22        20.6840   25.6050   15.6650 C.ar      1 478        -0.0471
     23 C23        18.5910   22.4550   19.7440 C.3       1 478        -0.0612
     24 C24        19.5610   24.4480   20.9010 C.3       1 478        -0.0612
     25 C25        13.2710   18.5670   21.8440 C.3       1 478         0.0505
     26 N1         14.1800   21.9600   17.8550 N.am      1 478        -0.2550
     27 N2         17.8500   24.2330   17.4690 N.am      1 478        -0.2327
     28 N3         21.0690   28.8790   14.0010 N.pl3     1 478        -0.3369
     29 O1         13.4800   20.0940   18.9260 O.3       1 478        -0.2582
     30 O2         15.6260   20.2270   18.2190 O.2       1 478        -0.3775
     31 O3         14.3320   24.8170   18.4480 O.3       1 478        -0.3877
     32 O4         17.4450   23.6140   15.0580 O.2       1 478        -0.1518
     33 O5         19.5550   22.8550   16.2380 O.2       1 478        -0.1518
     34 O6         12.0330   18.6730   21.1260 O.3       1 478        -0.3768
     35 S1         18.5320   23.9100   16.0040 S.o2      1 478         0.0648
     36 H1         12.5182   17.0636   19.8624 H         1 478         0.0589
     37 H2         11.6589   18.4283   19.0711 H         1 478         0.0589
     38 H3         14.5425   20.1306   21.0309 H         1 478         0.0316
     39 H4         15.2787   18.4922   21.0158 H         1 478         0.0316
     40 H5         14.4008   18.1927   18.8353 H         1 478         0.0671
     41 H6         15.9269   22.3908   16.8004 H         1 478         0.0604
     42 H7         15.8161   23.5025   19.0055 H         1 478         0.0634
     43 H8         14.9028   24.0148   15.3175 H         1 478         0.0449
     44 H9         13.3545   23.8826   16.2186 H         1 478         0.0449
     45 H10        11.7608   22.2125   15.6271 H         1 478         0.0557
     46 H11        15.7572   22.0442   14.1161 H         1 478         0.0557
     47 H12        11.2404   20.1597   14.2962 H         1 478         0.0599
     48 H13        15.2058   20.1315   12.6528 H         1 478         0.0599
     49 H14        12.9075   19.2082   12.7647 H         1 478         0.0559
     50 H15        16.6775   25.7394   18.2618 H         1 478         0.0504
     51 H16        16.2871   25.2508   16.5779 H         1 478         0.0504
     52 H17        19.8018   24.3412   18.2021 H         1 478         0.0480
     53 H18        18.7342   25.7178   18.6405 H         1 478         0.0480
     54 H19        17.4863   24.2378   20.2383 H         1 478         0.0311
     55 H20        17.6116   26.0370   14.3624 H         1 478         0.0602
     56 H21        18.5719   28.1620   13.5820 H         1 478         0.0515
     57 H22        22.2788   26.9577   15.3008 H         1 478         0.0515
     58 H23        21.2741   24.9359   16.2808 H         1 478         0.0602
     59 H24        18.3830   21.9782   20.7132 H         1 478         0.0233
     60 H25        19.6043   22.1846   19.4123 H         1 478         0.0233
     61 H26        17.8575   22.1097   19.0006 H         1 478         0.0233
     62 H27        19.4916   25.5405   21.0092 H         1 478         0.0233
     63 H28        20.5625   24.1787   20.5343 H         1 478         0.0233
     64 H29        19.3874   23.9712   21.8770 H         1 478         0.0233
     65 H30        13.2472   19.1961   22.7460 H         1 478         0.0561
     66 H31        13.4608   17.5221   22.1305 H         1 478         0.0561
     67 H32        13.2438   22.2552   18.0457 H         1 478         0.1873
     68 H33        20.4984   29.5754   13.5007 H         1 478         0.1719
     69 H34        22.0766   29.0421   14.1391 H         1 478         0.1719
     70 H35        14.0358   25.2945   17.6821 H         1 478         0.2100
@<TRIPOS>BOND
     1    4    1 1  
     2    1   34 1  
     3    4    2 1  
     4    2   25 1  
     5   26    3 am 
     6    3   29 1  
     7    3   30 2  
     8   29    4 1  
     9    6    5 1  
    10    5    7 1  
    11    5   26 1  
    12   14    6 1  
    13    6   31 1  
    14    7    8 1  
    15    8    9 ar 
    16    8   10 ar 
    17    9   11 ar 
    18   10   12 ar 
    19   11   13 ar 
    20   12   13 ar 
    21   27   14 1  
    22   15   16 1  
    23   27   15 1  
    24   16   23 1  
    25   16   24 1  
    26   17   18 ar 
    27   17   22 ar 
    28   35   17 1  
    29   18   19 ar 
    30   19   20 ar 
    31   21   20 ar 
    32   20   28 1  
    33   22   21 ar 
    34   25   34 1  
    35   27   35 am 
    36   35   32 2  
    37   35   33 2  
    38    1   36 1  
    39    1   37 1  
    40    2   38 1  
    41    2   39 1  
    42    4   40 1  
    43    5   41 1  
    44    6   42 1  
    45    7   43 1  
    46    7   44 1  
    47    9   45 1  
    48   10   46 1  
    49   11   47 1  
    50   12   48 1  
    51   13   49 1  
    52   14   50 1  
    53   14   51 1  
    54   15   52 1  
    55   15   53 1  
    56   16   54 1  
    57   18   55 1  
    58   19   56 1  
    59   21   57 1  
    60   22   58 1  
    61   23   59 1  
    62   23   60 1  
    63   23   61 1  
    64   24   62 1  
    65   24   63 1  
    66   24   64 1  
    67   25   65 1  
    68   25   66 1  
    69   26   67 1  
    70   28   68 1  
    71   28   69 1  
    72   31   70 1  
@<TRIPOS>SUBSTRUCTURE
     1 478         1

