### 
### Created by X-TOOL on Mon Sep 10 21:13:02 2018
### 

@<TRIPOS>MOLECULE
3nu5_ligand
   70    72     1     0     0
SMALL
GAST_HUCK


@<TRIPOS>ATOM
      1 C1         12.2590   18.0790   19.6550 C.3       1 478         0.0782
      2 C2         14.2270   18.9110   20.7220 C.3       1 478         0.0034
      3 C3         14.2680   20.6920   18.1470 C.2       1 478         0.3203
      4 C4         13.5910   18.7730   19.3470 C.3       1 478         0.1134
      5 C5         14.8880   22.8250   17.0530 C.3       1 478         0.0807
      6 C6         15.3150   23.9780   17.9440 C.3       1 478         0.0967
      7 C7         14.1940   23.3080   15.7640 C.3       1 478         0.0064
      8 C8         13.7020   22.1790   14.8740 C.ar      1 478        -0.0408
      9 C9         12.4060   21.6680   14.9230 C.ar      1 478        -0.0603
     10 C10        14.6020   21.5360   14.0300 C.ar      1 478        -0.0603
     11 C11        12.0540   20.6190   14.0760 C.ar      1 478        -0.0686
     12 C12        14.2960   20.4480   13.2210 C.ar      1 478        -0.0686
     13 C13        13.0140   19.9680   13.3370 C.ar      1 478        -0.0687
     14 C14        16.4030   24.8650   17.3430 C.3       1 478         0.0578
     15 C15        18.5990   24.6540   18.3040 C.3       1 478         0.0319
     16 C16        18.3630   24.0210   19.6900 C.3       1 478        -0.0296
     17 C17        19.1580   25.3320   15.1520 C.ar      1 478         0.0949
     18 C18        18.4640   26.3220   14.4760 C.ar      1 478        -0.0471
     19 C19        19.0550   27.5090   14.0460 C.ar      1 478        -0.0429
     20 C20        20.3860   27.7650   14.3370 C.ar      1 478         0.0353
     21 C21        21.0890   26.7950   15.0530 C.ar      1 478        -0.0429
     22 C22        20.4660   25.6380   15.4930 C.ar      1 478        -0.0471
     23 C23        18.3950   22.4820   19.6160 C.3       1 478        -0.0612
     24 C24        19.4180   24.4780   20.7050 C.3       1 478        -0.0612
     25 C25        13.1390   18.4280   21.7020 C.3       1 478         0.0505
     26 N1         13.9610   21.9440   17.7890 N.am      1 478        -0.2550
     27 N2         17.6870   24.2050   17.2780 N.am      1 478        -0.2327
     28 N3         20.9780   28.8990   13.9660 N.pl3     1 478        -0.3369
     29 O1         13.2540   20.0560   18.7630 O.3       1 478        -0.2582
     30 O2         15.3510   20.1330   17.9320 O.2       1 478        -0.3775
     31 O3         14.1660   24.7470   18.3090 O.3       1 478        -0.3877
     32 O4         17.2420   23.5470   14.8720 O.2       1 478        -0.1518
     33 O5         19.3230   22.7810   15.9720 O.2       1 478        -0.1518
     34 O6         11.9120   18.5810   20.9540 O.3       1 478        -0.3768
     35 S1         18.3540   23.9210   15.7970 S.o2      1 478         0.0648
     36 H1         12.3807   16.9860   19.6756 H         1 478         0.0589
     37 H2         11.4940   18.3489   18.9120 H         1 478         0.0589
     38 H3         14.4939   19.9590   20.9234 H         1 478         0.0316
     39 H4         15.1263   18.2823   20.7991 H         1 478         0.0316
     40 H5         14.2276   18.1890   18.6660 H         1 478         0.0671
     41 H6         15.7844   22.2515   16.7745 H         1 478         0.0604
     42 H7         15.7323   23.5407   18.8630 H         1 478         0.0634
     43 H8         14.9102   23.9149   15.1907 H         1 478         0.0449
     44 H9         13.3308   23.9287   16.0462 H         1 478         0.0449
     45 H10        11.6796   22.0823   15.6128 H         1 478         0.0557
     46 H11        15.6184   21.9119   14.0012 H         1 478         0.0557
     47 H12        11.0166   20.3140   13.9991 H         1 478         0.0599
     48 H13        15.0198   20.0081   12.5445 H         1 478         0.0599
     49 H14        12.7507   19.0468   12.8299 H         1 478         0.0559
     50 H15        16.5026   25.7685   17.9624 H         1 478         0.0504
     51 H16        16.1018   25.1502   16.3242 H         1 478         0.0504
     52 H17        19.6229   24.4099   17.9845 H         1 478         0.0480
     53 H18        18.4957   25.7447   18.4022 H         1 478         0.0480
     54 H19        17.3713   24.3371   20.0459 H         1 478         0.0311
     55 H20        17.4109   26.1662   14.2716 H         1 478         0.0602
     56 H21        18.4741   28.2316   13.4843 H         1 478         0.0515
     57 H22        22.1401   26.9492   15.2686 H         1 478         0.0515
     58 H23        21.0189   24.9510   16.1234 H         1 478         0.0602
     59 H24        18.2238   22.0631   20.6186 H         1 478         0.0233
     60 H25        19.3765   22.1531   19.2439 H         1 478         0.0233
     61 H26        17.6075   22.1313   18.9328 H         1 478         0.0233
     62 H27        19.4107   25.5759   20.7723 H         1 478         0.0233
     63 H28        20.4119   24.1373   20.3794 H         1 478         0.0233
     64 H29        19.1881   24.0487   21.6913 H         1 478         0.0233
     65 H30        13.1250   19.0491   22.6098 H         1 478         0.0561
     66 H31        13.3004   17.3760   21.9799 H         1 478         0.0561
     67 H32        13.0588   22.3003   18.0322 H         1 478         0.1873
     68 H33        20.4487   29.6074   13.4379 H         1 478         0.1719
     69 H34        21.9651   29.0675   14.2072 H         1 478         0.1719
     70 H35        13.8161   25.1771   17.5376 H         1 478         0.2100
@<TRIPOS>BOND
     1    4    1 1  
     2    1   34 1  
     3    4    2 1  
     4    2   25 1  
     5   26    3 am 
     6    3   29 1  
     7    3   30 2  
     8   29    4 1  
     9    6    5 1  
    10    5    7 1  
    11    5   26 1  
    12   14    6 1  
    13    6   31 1  
    14    7    8 1  
    15    8    9 ar 
    16    8   10 ar 
    17    9   11 ar 
    18   10   12 ar 
    19   11   13 ar 
    20   12   13 ar 
    21   27   14 1  
    22   15   16 1  
    23   27   15 1  
    24   16   23 1  
    25   16   24 1  
    26   17   18 ar 
    27   17   22 ar 
    28   35   17 1  
    29   18   19 ar 
    30   19   20 ar 
    31   21   20 ar 
    32   20   28 1  
    33   22   21 ar 
    34   25   34 1  
    35   27   35 am 
    36   35   32 2  
    37   35   33 2  
    38    1   36 1  
    39    1   37 1  
    40    2   38 1  
    41    2   39 1  
    42    4   40 1  
    43    5   41 1  
    44    6   42 1  
    45    7   43 1  
    46    7   44 1  
    47    9   45 1  
    48   10   46 1  
    49   11   47 1  
    50   12   48 1  
    51   13   49 1  
    52   14   50 1  
    53   14   51 1  
    54   15   52 1  
    55   15   53 1  
    56   16   54 1  
    57   18   55 1  
    58   19   56 1  
    59   21   57 1  
    60   22   58 1  
    61   23   59 1  
    62   23   60 1  
    63   23   61 1  
    64   24   62 1  
    65   24   63 1  
    66   24   64 1  
    67   25   65 1  
    68   25   66 1  
    69   26   67 1  
    70   28   68 1  
    71   28   69 1  
    72   31   70 1  
@<TRIPOS>SUBSTRUCTURE
     1 478         1

