### 
### Created by X-TOOL on Mon Sep 10 21:13:02 2018
### 

@<TRIPOS>MOLECULE
3nu6_ligand
   70    72     1     0     0
SMALL
GAST_HUCK


@<TRIPOS>ATOM
      1 C1        -11.9900  -24.6880  -19.3970 C.3       1 478         0.0782
      2 C2        -13.9150  -23.8220  -20.4540 C.3       1 478         0.0034
      3 C3        -14.1500  -22.1040  -18.0070 C.2       1 478         0.3203
      4 C4        -13.3290  -24.0650  -19.0430 C.3       1 478         0.1134
      5 C5        -14.8120  -19.9740  -16.9220 C.3       1 478         0.0807
      6 C6        -15.2430  -18.8940  -17.8970 C.3       1 478         0.0967
      7 C7        -14.1110  -19.4660  -15.6390 C.3       1 478         0.0064
      8 C8        -13.7570  -20.5460  -14.6760 C.ar      1 478        -0.0408
      9 C9        -12.4640  -21.0160  -14.6270 C.ar      1 478        -0.0603
     10 C10       -14.7220  -21.1090  -13.8230 C.ar      1 478        -0.0603
     11 C11       -12.1550  -22.0800  -13.7810 C.ar      1 478        -0.0686
     12 C12       -14.4480  -22.1370  -12.9470 C.ar      1 478        -0.0686
     13 C13       -13.1640  -22.6300  -13.0040 C.ar      1 478        -0.0687
     14 C14       -16.3410  -17.9990  -17.3190 C.3       1 478         0.0578
     15 C15       -18.5200  -18.2820  -18.3750 C.3       1 478         0.0319
     16 C16       -18.2440  -18.9080  -19.7560 C.3       1 478        -0.0296
     17 C17       -19.1650  -17.5650  -15.1850 C.ar      1 478         0.0949
     18 C18       -18.5000  -16.6370  -14.3990 C.ar      1 478        -0.0471
     19 C19       -19.1630  -15.4690  -14.0710 C.ar      1 478        -0.0429
     20 C20       -20.4160  -15.1460  -14.4700 C.ar      1 478         0.0353
     21 C21       -21.1480  -16.1320  -15.1350 C.ar      1 478        -0.0429
     22 C22       -20.4640  -17.2830  -15.5600 C.ar      1 478        -0.0471
     23 C23       -18.3640  -20.4250  -19.7600 C.3       1 478        -0.0612
     24 C24       -19.3300  -18.3640  -20.7300 C.3       1 478        -0.0612
     25 C25       -12.8910  -24.3020  -21.4370 C.3       1 478         0.0505
     26 N1        -13.8630  -20.9040  -17.5620 N.am      1 478        -0.2550
     27 N2        -17.6260  -18.6760  -17.3080 N.am      1 478        -0.2327
     28 N3        -21.0460  -14.0390  -14.0480 N.pl3     1 478        -0.3369
     29 O1        -13.0710  -22.7430  -18.4930 O.3       1 478        -0.2582
     30 O2        -15.2620  -22.6230  -17.9670 O.2       1 478        -0.3775
     31 O3        -14.1470  -18.0060  -18.2340 O.3       1 478        -0.3877
     32 O4        -17.1940  -19.2070  -14.8590 O.2       1 478        -0.1518
     33 O5        -19.2940  -20.0140  -16.0470 O.2       1 478        -0.1518
     34 O6        -11.6830  -24.1780  -20.7150 O.3       1 478        -0.3768
     35 S1        -18.3260  -18.9540  -15.8220 S.o2      1 478         0.0648
     36 H1        -12.0653  -25.7853  -19.4139 H         1 478         0.0589
     37 H2        -11.2181  -24.3845  -18.6745 H         1 478         0.0589
     38 H3        -14.1099  -22.7498  -20.6035 H         1 478         0.0316
     39 H4        -14.8515  -24.3857  -20.5773 H         1 478         0.0316
     40 H5        -13.9558  -24.6893  -18.3893 H         1 478         0.0671
     41 H6        -15.7153  -20.5269  -16.6248 H         1 478         0.0604
     42 H7        -15.6132  -19.3828  -18.8103 H         1 478         0.0634
     43 H8        -14.7846  -18.7585  -15.1334 H         1 478         0.0449
     44 H9        -13.1866  -18.9467  -15.9320 H         1 478         0.0449
     45 H10       -11.6935  -20.5630  -15.2404 H         1 478         0.0557
     46 H11       -15.7314  -20.7152  -13.8558 H         1 478         0.0557
     47 H12       -11.1449  -22.4704  -13.7312 H         1 478         0.0599
     48 H13       -15.1907  -22.5294  -12.2618 H         1 478         0.0599
     49 H14       -12.9268  -23.5017  -12.4048 H         1 478         0.0559
     50 H15       -16.4211  -17.0894  -17.9324 H         1 478         0.0504
     51 H16       -16.0728  -17.7238  -16.2883 H         1 478         0.0504
     52 H17       -19.5417  -18.5608  -18.0776 H         1 478         0.0480
     53 H18       -18.4545  -17.1892  -18.4821 H         1 478         0.0480
     54 H19       -17.2381  -18.6190  -20.0946 H         1 478         0.0311
     55 H20       -17.4899  -16.8216  -14.0517 H         1 478         0.0602
     56 H21       -18.6386  -14.7558  -13.4453 H         1 478         0.0515
     57 H22       -22.2099  -16.0130  -15.3174 H         1 478         0.0515
     58 H23       -20.9784  -17.9806  -16.2110 H         1 478         0.0602
     59 H24       -18.1559  -20.8066  -20.7705 H         1 478         0.0233
     60 H25       -19.3829  -20.7130  -19.4619 H         1 478         0.0233
     61 H26       -17.6399  -20.8520  -19.0506 H         1 478         0.0233
     62 H27       -19.2797  -17.2655  -20.7587 H         1 478         0.0233
     63 H28       -20.3253  -18.6764  -20.3809 H         1 478         0.0233
     64 H29       -19.1524  -18.7656  -21.7385 H         1 478         0.0233
     65 H30       -12.8806  -23.6714  -22.3383 H         1 478         0.0561
     66 H31       -13.0760  -25.3478  -21.7233 H         1 478         0.0561
     67 H32       -12.9184  -20.5926  -17.6657 H         1 478         0.1873
     68 H33       -20.5198  -13.3028  -13.5560 H         1 478         0.1719
     69 H34       -22.0558  -13.9254  -14.2160 H         1 478         0.1719
     70 H35       -13.8508  -17.5586  -17.4499 H         1 478         0.2100
@<TRIPOS>BOND
     1    4    1 1  
     2    1   34 1  
     3    4    2 1  
     4    2   25 1  
     5   26    3 am 
     6    3   29 1  
     7    3   30 2  
     8   29    4 1  
     9    6    5 1  
    10    5    7 1  
    11    5   26 1  
    12   14    6 1  
    13    6   31 1  
    14    7    8 1  
    15    8    9 ar 
    16    8   10 ar 
    17    9   11 ar 
    18   10   12 ar 
    19   11   13 ar 
    20   12   13 ar 
    21   27   14 1  
    22   15   16 1  
    23   27   15 1  
    24   16   23 1  
    25   16   24 1  
    26   17   18 ar 
    27   17   22 ar 
    28   35   17 1  
    29   18   19 ar 
    30   19   20 ar 
    31   21   20 ar 
    32   20   28 1  
    33   22   21 ar 
    34   25   34 1  
    35   27   35 am 
    36   35   32 2  
    37   35   33 2  
    38    1   36 1  
    39    1   37 1  
    40    2   38 1  
    41    2   39 1  
    42    4   40 1  
    43    5   41 1  
    44    6   42 1  
    45    7   43 1  
    46    7   44 1  
    47    9   45 1  
    48   10   46 1  
    49   11   47 1  
    50   12   48 1  
    51   13   49 1  
    52   14   50 1  
    53   14   51 1  
    54   15   52 1  
    55   15   53 1  
    56   16   54 1  
    57   18   55 1  
    58   19   56 1  
    59   21   57 1  
    60   22   58 1  
    61   23   59 1  
    62   23   60 1  
    63   23   61 1  
    64   24   62 1  
    65   24   63 1  
    66   24   64 1  
    67   25   65 1  
    68   25   66 1  
    69   26   67 1  
    70   28   68 1  
    71   28   69 1  
    72   31   70 1  
@<TRIPOS>SUBSTRUCTURE
     1 478         1

