### 
### Created by X-TOOL on Mon Sep 10 21:13:03 2018
### 

@<TRIPOS>MOLECULE
3nu9_ligand
   70    72     1     0     0
SMALL
GAST_HUCK


@<TRIPOS>ATOM
      1 C1         17.1050   25.3570   18.6600 C.3       1 478         0.0782
      2 C2         15.1580   24.5540   19.8520 C.3       1 478         0.0034
      3 C3         14.8220   22.7010   17.4170 C.2       1 478         0.3203
      4 C4         15.7230   24.7330   18.4450 C.3       1 478         0.1134
      5 C5         14.1860   20.5200   16.4720 C.3       1 478         0.0807
      6 C6         13.7730   19.4420   17.4770 C.3       1 478         0.0967
      7 C7         14.8270   19.9860   15.1780 C.3       1 478         0.0064
      8 C8         15.1930   21.1350   14.2640 C.ar      1 478        -0.0408
      9 C9         16.4970   21.6270   14.2470 C.ar      1 478        -0.0603
     10 C10        14.2200   21.7130   13.4400 C.ar      1 478        -0.0603
     11 C11        16.8420   22.6940   13.4160 C.ar      1 478        -0.0686
     12 C12        14.5450   22.7920   12.6110 C.ar      1 478        -0.0686
     13 C13        15.8570   23.2750   12.6040 C.ar      1 478        -0.0687
     14 C14        12.6420   18.5160   17.0120 C.3       1 478         0.0578
     15 C15        10.4250   19.1550   18.1220 C.3       1 478         0.0319
     16 C16        11.0040   19.7630   19.3990 C.3       1 478        -0.0296
     17 C17         9.9340   18.1410   15.0860 C.ar      1 478         0.0949
     18 C18        10.5890   17.1810   14.3070 C.ar      1 478        -0.0471
     19 C19         9.9470   16.0090   13.8900 C.ar      1 478        -0.0429
     20 C20         8.6350   15.7530   14.2700 C.ar      1 478         0.0353
     21 C21         7.9550   16.7100   15.0280 C.ar      1 478        -0.0429
     22 C22         8.6080   17.8940   15.4350 C.ar      1 478        -0.0471
     23 C23        11.1940   21.2720   19.3110 C.3       1 478        -0.0612
     24 C24         9.9950   19.4420   20.4900 C.3       1 478        -0.0612
     25 C25        16.2990   24.9320   20.8000 C.3       1 478         0.0505
     26 N1         15.0990   21.4320   17.1390 N.am      1 478        -0.2550
     27 N2         11.3000   19.1120   16.9590 N.am      1 478        -0.2327
     28 N3          8.0050   14.6090   13.8580 N.pl3     1 478        -0.3369
     29 O1         15.9820   23.4470   17.8920 O.3       1 478        -0.2582
     30 O2         13.7190   23.2350   17.3230 O.2       1 478        -0.3775
     31 O3         14.9210   18.6190   17.7610 O.3       1 478        -0.3877
     32 O4         11.7900   19.7810   14.6570 O.2       1 478        -0.1518
     33 O5          9.7180   20.5240   15.6980 O.2       1 478        -0.1518
     34 O6         17.4780   24.9720   19.9860 O.3       1 478        -0.3768
     35 S1         10.7060   19.4960   15.5710 S.o2      1 478         0.0648
     36 H1         17.0530   26.4525   18.5749 H         1 478         0.0589
     37 H2         17.8251   24.9660   17.9261 H         1 478         0.0589
     38 H3         14.8531   23.5096   20.0142 H         1 478         0.0316
     39 H4         14.2937   25.2166   20.0068 H         1 478         0.0316
     40 H5         15.0680   25.3406   17.8034 H         1 478         0.0671
     41 H6         13.2806   21.0748   16.1849 H         1 478         0.0604
     42 H7         13.4458   19.9453   18.3987 H         1 478         0.0634
     43 H8         14.1126   19.3261   14.6640 H         1 478         0.0449
     44 H9         15.7350   19.4183   15.4296 H         1 478         0.0449
     45 H10        17.2495   21.1772   14.8845 H         1 478         0.0557
     46 H11        13.2089   21.3222   13.4443 H         1 478         0.0557
     47 H12        17.8589   23.0691   13.3984 H         1 478         0.0599
     48 H13        13.7890   23.2479   11.9819 H         1 478         0.0599
     49 H14        16.1164   24.1095   11.9626 H         1 478         0.0559
     50 H15        12.6028   17.6604   17.7022 H         1 478         0.0504
     51 H16        12.8922   18.1609   16.0014 H         1 478         0.0504
     52 H17         9.5359   19.7417   17.8477 H         1 478         0.0480
     53 H18        10.1259   18.1216   18.3515 H         1 478         0.0480
     54 H19        11.9739   19.2955   19.6243 H         1 478         0.0311
     55 H20        11.6204   17.3491   14.0189 H         1 478         0.0602
     56 H21        10.4763   15.2970   13.2671 H         1 478         0.0515
     57 H22         6.9205   16.5425   15.3051 H         1 478         0.0515
     58 H23         8.0686   18.6229   16.0289 H         1 478         0.0602
     59 H24        11.6117   21.6448   20.2579 H         1 478         0.0233
     60 H25        10.2229   21.7536   19.1239 H         1 478         0.0233
     61 H26        11.8846   21.5072   18.4878 H         1 478         0.0233
     62 H27         9.8579   18.3524   20.5535 H         1 478         0.0233
     63 H28         9.0330   19.9193   20.2518 H         1 478         0.0233
     64 H29        10.3641   19.8219   21.4541 H         1 478         0.0233
     65 H30        16.4053   24.1774   21.5932 H         1 478         0.0561
     66 H31        16.1116   25.9166   21.2533 H         1 478         0.0561
     67 H32        15.9962   21.0809   17.4068 H         1 478         0.1873
     68 H33         8.5174   13.9114   13.2997 H         1 478         0.1719
     69 H34         7.0187   14.4462   14.1064 H         1 478         0.1719
     70 H35        15.1769   18.1522   16.9743 H         1 478         0.2100
@<TRIPOS>BOND
     1    4    1 1  
     2    1   34 1  
     3    4    2 1  
     4    2   25 1  
     5   26    3 am 
     6    3   29 1  
     7    3   30 2  
     8   29    4 1  
     9    6    5 1  
    10    5    7 1  
    11    5   26 1  
    12   14    6 1  
    13    6   31 1  
    14    7    8 1  
    15    8    9 ar 
    16    8   10 ar 
    17    9   11 ar 
    18   10   12 ar 
    19   11   13 ar 
    20   12   13 ar 
    21   27   14 1  
    22   15   16 1  
    23   27   15 1  
    24   16   23 1  
    25   16   24 1  
    26   17   18 ar 
    27   17   22 ar 
    28   35   17 1  
    29   18   19 ar 
    30   19   20 ar 
    31   21   20 ar 
    32   20   28 1  
    33   22   21 ar 
    34   25   34 1  
    35   27   35 am 
    36   35   32 2  
    37   35   33 2  
    38    1   36 1  
    39    1   37 1  
    40    2   38 1  
    41    2   39 1  
    42    4   40 1  
    43    5   41 1  
    44    6   42 1  
    45    7   43 1  
    46    7   44 1  
    47    9   45 1  
    48   10   46 1  
    49   11   47 1  
    50   12   48 1  
    51   13   49 1  
    52   14   50 1  
    53   14   51 1  
    54   15   52 1  
    55   15   53 1  
    56   16   54 1  
    57   18   55 1  
    58   19   56 1  
    59   21   57 1  
    60   22   58 1  
    61   23   59 1  
    62   23   60 1  
    63   23   61 1  
    64   24   62 1  
    65   24   63 1  
    66   24   64 1  
    67   25   65 1  
    68   25   66 1  
    69   26   67 1  
    70   28   68 1  
    71   28   69 1  
    72   31   70 1  
@<TRIPOS>SUBSTRUCTURE
     1 478         1

