### 
### Created by X-TOOL on Mon Sep 10 21:13:02 2018
### 

@<TRIPOS>MOLECULE
3nuj_ligand
   70    72     1     0     0
SMALL
GAST_HUCK


@<TRIPOS>ATOM
      1 C1         16.7790   24.9520   19.2150 C.3       1 478         0.0782
      2 C2         14.8380   24.0450   20.2910 C.3       1 478         0.0034
      3 C3         14.7210   22.2320   17.8570 C.2       1 478         0.3203
      4 C4         15.4520   24.2370   18.9020 C.3       1 478         0.1134
      5 C5         14.1420   20.0510   16.8470 C.3       1 478         0.0807
      6 C6         13.6410   18.9770   17.8070 C.3       1 478         0.0967
      7 C7         14.8280   19.5290   15.5830 C.3       1 478         0.0064
      8 C8         15.2270   20.6690   14.6550 C.ar      1 478        -0.0408
      9 C9         16.5230   21.1490   14.6460 C.ar      1 478        -0.0603
     10 C10        14.3100   21.2780   13.8150 C.ar      1 478        -0.0603
     11 C11        16.8310   22.2420   13.8370 C.ar      1 478        -0.0686
     12 C12        14.5690   22.3450   12.9710 C.ar      1 478        -0.0686
     13 C13        15.8560   22.8420   13.0760 C.ar      1 478        -0.0687
     14 C14        12.4990   18.1500   17.2280 C.3       1 478         0.0578
     15 C15        10.2450   18.3750   18.1580 C.3       1 478         0.0319
     16 C16        10.6630   18.8840   19.5440 C.3       1 478        -0.0296
     17 C17         9.7550   17.6730   15.0520 C.ar      1 478         0.0949
     18 C18        10.4650   16.7940   14.2600 C.ar      1 478        -0.0471
     19 C19         9.8060   15.6830   13.7540 C.ar      1 478        -0.0429
     20 C20         8.5590   15.3400   14.2150 C.ar      1 478         0.0353
     21 C21         7.7960   16.2790   14.9180 C.ar      1 478        -0.0429
     22 C22         8.4400   17.4090   15.3760 C.ar      1 478        -0.0471
     23 C23        10.6740   20.4210   19.5090 C.3       1 478        -0.0612
     24 C24         9.5900   18.4390   20.5590 C.3       1 478        -0.0612
     25 C25        15.9160   24.5330   21.2310 C.3       1 478         0.0505
     26 N1         15.0380   20.9620   17.5280 N.am      1 478        -0.2550
     27 N2         11.2160   18.8130   17.1510 N.am      1 478        -0.2327
     28 N3          7.9670   14.2410   13.7660 N.pl3     1 478        -0.3369
     29 O1         15.7750   22.9110   18.4090 O.3       1 478        -0.2582
     30 O2         13.6140   22.7310   17.7140 O.2       1 478        -0.3775
     31 O3         14.6860   18.0690   18.1220 O.3       1 478        -0.3877
     32 O4         11.6630   19.3930   14.6550 O.2       1 478        -0.1518
     33 O5          9.6040   20.2520   15.7500 O.2       1 478        -0.1518
     34 O6         17.1400   24.4610   20.5010 O.3       1 478        -0.3768
     35 S1         10.5770   19.1030   15.6700 S.o2      1 478         0.0648
     36 H1         16.6394   26.0428   19.2381 H         1 478         0.0589
     37 H2         17.5462   24.6962   18.4694 H         1 478         0.0589
     38 H3         14.6079   22.9852   20.4749 H         1 478         0.0316
     39 H4         13.9217   24.6436   20.4008 H         1 478         0.0316
     40 H5         14.8073   24.7989   18.2102 H         1 478         0.0671
     41 H6         13.2597   20.6220   16.5221 H         1 478         0.0604
     42 H7         13.2944   19.4709   18.7267 H         1 478         0.0634
     43 H8         14.1359   18.8600   15.0506 H         1 478         0.0449
     44 H9         15.7303   18.9695   15.8707 H         1 478         0.0449
     45 H10        17.2873   20.6835   15.2577 H         1 478         0.0557
     46 H11        13.2999   20.8847   13.8183 H         1 478         0.0557
     47 H12        17.8461   22.6212   13.8079 H         1 478         0.0599
     48 H13        13.8309   22.7535   12.2903 H         1 478         0.0599
     49 H14        16.1070   23.7461   12.5332 H         1 478         0.0559
     50 H15        12.3788   17.2548   17.8559 H         1 478         0.0504
     51 H16        12.7841   17.8479   16.2094 H         1 478         0.0504
     52 H17         9.2524   18.7766   17.9062 H         1 478         0.0480
     53 H18        10.2035   17.2759   18.1705 H         1 478         0.0480
     54 H19        11.6523   18.4920   19.8224 H         1 478         0.0311
     55 H20        11.5119   16.9673   14.0386 H         1 478         0.0602
     56 H21        10.2799   15.0802   12.9877 H         1 478         0.0515
     57 H22         6.7380   16.1239   15.0959 H         1 478         0.0515
     58 H23         7.9001   18.1068   16.0058 H         1 478         0.0602
     59 H24        10.9716   20.8081   20.4947 H         1 478         0.0233
     60 H25         9.6681   20.7893   19.2590 H         1 478         0.0233
     61 H26        11.3902   20.7654   18.7484 H         1 478         0.0233
     62 H27         9.5610   17.3403   20.6039 H         1 478         0.0233
     63 H28         8.6071   18.8191   20.2439 H         1 478         0.0233
     64 H29         9.8368   18.8401   21.5531 H         1 478         0.0233
     65 H30        15.9648   23.8903   22.1224 H         1 478         0.0561
     66 H31        15.7147   25.5701   21.5372 H         1 478         0.0561
     67 H32        15.9494   20.6291   17.7699 H         1 478         0.1873
     68 H33         8.5119   13.5381   13.2464 H         1 478         0.1719
     69 H34         6.9625   14.0906   13.9370 H         1 478         0.1719
     70 H35        14.9616   17.6187   17.3321 H         1 478         0.2100
@<TRIPOS>BOND
     1    4    1 1  
     2    1   34 1  
     3    4    2 1  
     4    2   25 1  
     5   26    3 am 
     6    3   29 1  
     7    3   30 2  
     8   29    4 1  
     9    6    5 1  
    10    5    7 1  
    11    5   26 1  
    12   14    6 1  
    13    6   31 1  
    14    7    8 1  
    15    8    9 ar 
    16    8   10 ar 
    17    9   11 ar 
    18   10   12 ar 
    19   11   13 ar 
    20   12   13 ar 
    21   27   14 1  
    22   15   16 1  
    23   27   15 1  
    24   16   23 1  
    25   16   24 1  
    26   17   18 ar 
    27   17   22 ar 
    28   35   17 1  
    29   18   19 ar 
    30   19   20 ar 
    31   21   20 ar 
    32   20   28 1  
    33   22   21 ar 
    34   25   34 1  
    35   27   35 am 
    36   35   32 2  
    37   35   33 2  
    38    1   36 1  
    39    1   37 1  
    40    2   38 1  
    41    2   39 1  
    42    4   40 1  
    43    5   41 1  
    44    6   42 1  
    45    7   43 1  
    46    7   44 1  
    47    9   45 1  
    48   10   46 1  
    49   11   47 1  
    50   12   48 1  
    51   13   49 1  
    52   14   50 1  
    53   14   51 1  
    54   15   52 1  
    55   15   53 1  
    56   16   54 1  
    57   18   55 1  
    58   19   56 1  
    59   21   57 1  
    60   22   58 1  
    61   23   59 1  
    62   23   60 1  
    63   23   61 1  
    64   24   62 1  
    65   24   63 1  
    66   24   64 1  
    67   25   65 1  
    68   25   66 1  
    69   26   67 1  
    70   28   68 1  
    71   28   69 1  
    72   31   70 1  
@<TRIPOS>SUBSTRUCTURE
     1 478         1

