### 
### Created by X-TOOL on Mon Sep 10 21:13:02 2018
### 

@<TRIPOS>MOLECULE
3nuo_ligand
   70    72     1     0     0
SMALL
GAST_HUCK


@<TRIPOS>ATOM
      1 C1         16.6100   25.3290   19.4890 C.3       1 478         0.0782
      2 C2         14.6280   24.5260   20.5520 C.3       1 478         0.0034
      3 C3         14.4200   22.7240   18.0830 C.2       1 478         0.3203
      4 C4         15.2710   24.6870   19.1590 C.3       1 478         0.1134
      5 C5         13.8330   20.5600   17.0000 C.3       1 478         0.0807
      6 C6         13.4190   19.4450   17.9610 C.3       1 478         0.0967
      7 C7         14.5630   20.0660   15.7580 C.3       1 478         0.0064
      8 C8         14.9670   21.2180   14.8550 C.ar      1 478        -0.0408
      9 C9         16.2890   21.6600   14.7980 C.ar      1 478        -0.0603
     10 C10        14.0300   21.8220   14.0480 C.ar      1 478        -0.0603
     11 C11        16.6170   22.7880   14.0350 C.ar      1 478        -0.0686
     12 C12        14.3440   22.8890   13.2240 C.ar      1 478        -0.0686
     13 C13        15.6460   23.3470   13.2210 C.ar      1 478        -0.0687
     14 C14        12.3310   18.5160   17.4000 C.3       1 478         0.0578
     15 C15        10.0920   18.8170   18.4490 C.3       1 478         0.0319
     16 C16        10.4790   19.3930   19.8130 C.3       1 478        -0.0296
     17 C17         9.5810   18.0420   15.2590 C.ar      1 478         0.0949
     18 C18        10.2910   17.1470   14.4910 C.ar      1 478        -0.0471
     19 C19         9.7700   15.9410   14.0320 C.ar      1 478        -0.0429
     20 C20         8.4480   15.6290   14.3360 C.ar      1 478         0.0353
     21 C21         7.6980   16.5740   15.0340 C.ar      1 478        -0.0429
     22 C22         8.2630   17.7600   15.5340 C.ar      1 478        -0.0471
     23 C23        10.4240   20.9220   19.7760 C.3       1 478        -0.0612
     24 C24         9.4510   18.8950   20.8400 C.3       1 478        -0.0612
     25 C25        15.7430   24.8990   21.5120 C.3       1 478         0.0505
     26 N1         14.7320   21.4860   17.6810 N.am      1 478        -0.2550
     27 N2         11.0260   19.1680   17.3790 N.am      1 478        -0.2327
     28 N3          7.9390   14.4490   13.9390 N.pl3     1 478        -0.3369
     29 O1         15.4920   23.3610   18.6400 O.3       1 478        -0.2582
     30 O2         13.2940   23.2220   18.0320 O.2       1 478        -0.3775
     31 O3         14.5520   18.6330   18.2720 O.3       1 478        -0.3877
     32 O4         11.4320   19.8530   14.9750 O.2       1 478        -0.1518
     33 O5          9.2710   20.4970   16.0770 O.2       1 478        -0.1518
     34 O6         16.9520   24.8460   20.7830 O.3       1 478        -0.3768
     35 S1         10.3430   19.5050   15.9230 S.o2      1 478         0.0648
     36 H1         16.5192   26.4252   19.4990 H         1 478         0.0589
     37 H2         17.3715   25.0309   18.7533 H         1 478         0.0589
     38 H3         14.3015   23.4883   20.7152 H         1 478         0.0316
     39 H4         13.7689   25.2032   20.6675 H         1 478         0.0316
     40 H5         14.6665   25.2974   18.4720 H         1 478         0.0671
     41 H6         12.9248   21.0946   16.6847 H         1 478         0.0604
     42 H7         13.0401   19.9113   18.8824 H         1 478         0.0634
     43 H8         13.8999   19.3893   15.1991 H         1 478         0.0449
     44 H9         15.4667   19.5207   16.0677 H         1 478         0.0449
     45 H10        17.0618   21.1309   15.3438 H         1 478         0.0557
     46 H11        13.0120   21.4497   14.0580 H         1 478         0.0557
     47 H12        17.6122   23.2153   14.0808 H         1 478         0.0599
     48 H13        13.5889   23.3517   12.5989 H         1 478         0.0599
     49 H14        15.9157   24.1660   12.5641 H         1 478         0.0559
     50 H15        12.2703   17.6163   18.0299 H         1 478         0.0504
     51 H16        12.6023   18.2275   16.3738 H         1 478         0.0504
     52 H17         9.0959   19.1986   18.1802 H         1 478         0.0480
     53 H18        10.0546   17.7208   18.5323 H         1 478         0.0480
     54 H19        11.4904   19.0607   20.0899 H         1 478         0.0311
     55 H20        11.3131   17.3955   14.2291 H         1 478         0.0602
     56 H21        10.3803   15.2595   13.4505 H         1 478         0.0515
     57 H22         6.6426   16.3879   15.1969 H         1 478         0.0515
     58 H23         7.6678   18.4436   16.1286 H         1 478         0.0602
     59 H24        10.7040   21.3229   20.7613 H         1 478         0.0233
     60 H25         9.4033   21.2462   19.5248 H         1 478         0.0233
     61 H26        11.1252   21.2959   19.0154 H         1 478         0.0233
     62 H27         9.4761   17.7960   20.8806 H         1 478         0.0233
     63 H28         8.4455   19.2280   20.5434 H         1 478         0.0233
     64 H29         9.6953   19.3042   21.8314 H         1 478         0.0233
     65 H30        15.7752   24.1858   22.3488 H         1 478         0.0561
     66 H31        15.5815   25.9148   21.9019 H         1 478         0.0561
     67 H32        15.6624   21.1679   17.8632 H         1 478         0.1873
     68 H33         8.5300   13.7800   13.4251 H         1 478         0.1719
     69 H34         6.9583   14.2144   14.1488 H         1 478         0.1719
     70 H35        14.8565   18.2006   17.4828 H         1 478         0.2100
@<TRIPOS>BOND
     1    4    1 1  
     2    1   34 1  
     3    4    2 1  
     4    2   25 1  
     5   26    3 am 
     6    3   29 1  
     7    3   30 2  
     8   29    4 1  
     9    6    5 1  
    10    5    7 1  
    11    5   26 1  
    12   14    6 1  
    13    6   31 1  
    14    7    8 1  
    15    8    9 ar 
    16    8   10 ar 
    17    9   11 ar 
    18   10   12 ar 
    19   11   13 ar 
    20   12   13 ar 
    21   27   14 1  
    22   15   16 1  
    23   27   15 1  
    24   16   23 1  
    25   16   24 1  
    26   17   18 ar 
    27   17   22 ar 
    28   35   17 1  
    29   18   19 ar 
    30   19   20 ar 
    31   21   20 ar 
    32   20   28 1  
    33   22   21 ar 
    34   25   34 1  
    35   27   35 am 
    36   35   32 2  
    37   35   33 2  
    38    1   36 1  
    39    1   37 1  
    40    2   38 1  
    41    2   39 1  
    42    4   40 1  
    43    5   41 1  
    44    6   42 1  
    45    7   43 1  
    46    7   44 1  
    47    9   45 1  
    48   10   46 1  
    49   11   47 1  
    50   12   48 1  
    51   13   49 1  
    52   14   50 1  
    53   14   51 1  
    54   15   52 1  
    55   15   53 1  
    56   16   54 1  
    57   18   55 1  
    58   19   56 1  
    59   21   57 1  
    60   22   58 1  
    61   23   59 1  
    62   23   60 1  
    63   23   61 1  
    64   24   62 1  
    65   24   63 1  
    66   24   64 1  
    67   25   65 1  
    68   25   66 1  
    69   26   67 1  
    70   28   68 1  
    71   28   69 1  
    72   31   70 1  
@<TRIPOS>SUBSTRUCTURE
     1 478         1

