### 
### Created by X-TOOL on Mon Sep 10 21:13:06 2018
### 

@<TRIPOS>MOLECULE
3nus_ligand
   17    18     1     0     0
SMALL
GAST_HUCK


@<TRIPOS>ATOM
      1 C8        -41.6470   16.7550   12.7440 C.ar      1 JNZ        -0.0601
      2 C7        -42.6540   15.9820   12.2070 C.ar      1 JNZ        -0.0622
      3 C9        -40.3940   16.2470   13.0120 C.ar      1 JNZ        -0.0387
      4 C6        -42.4820   14.6480   11.9040 C.ar      1 JNZ        -0.0662
      5 C10       -40.1960   14.9090   12.7170 C.ar      1 JNZ         0.0756
      6 C5        -41.2270   14.1640   12.1840 C.ar      1 JNZ        -0.0524
      7 C2        -39.1000   14.0160   12.8290 C.2       1 JNZ         0.2390
      8 N3        -39.4300   12.7990   12.3950 N.pl3     1 JNZ        -0.2550
      9 N4        -40.7100   12.9160   12.0150 N.2       1 JNZ        -0.4402
     10 N1        -37.8980   14.4010   13.3140 N.pl3     1 JNZ        -0.2610
     11 H         -41.8483   17.8034   12.9641 H         1 JNZ         0.0618
     12 H         -43.6229   16.4428   12.0146 H         1 JNZ         0.0617
     13 H         -39.6016   16.8655   13.4335 H         1 JNZ         0.0635
     14 H         -43.2734   14.0306   11.4790 H         1 JNZ         0.0612
     15 H         -38.8412   11.9669   12.3601 H         1 JNZ         0.2538
     16 H         -37.7547   15.3648   13.6155 H         1 JNZ         0.2096
     17 H         -37.1346   13.7276   13.3784 H         1 JNZ         0.2096
@<TRIPOS>BOND
     1    1    2 ar 
     2    1    3 ar 
     3    2    4 ar 
     4    3    5 ar 
     5    4    6 ar 
     6    5    6 ar 
     7    5    7 2  
     8    6    9 2  
     9    7    8 1  
    10    7   10 1  
    11    8    9 1  
    12    1   11 1  
    13    2   12 1  
    14    3   13 1  
    15    4   14 1  
    16    8   15 1  
    17   10   16 1  
    18   10   17 1  
@<TRIPOS>SUBSTRUCTURE
     1 JNZ         1

