### 
### Created by X-TOOL on Mon Sep 10 21:13:06 2018
### 

@<TRIPOS>MOLECULE
3nuu_ligand
   20    21     1     0     0
SMALL
GAST_HUCK


@<TRIPOS>ATOM
      1 C4        -39.2290   16.0260   13.3800 C.ar      1 JOZ        -0.0485
      2 C5        -42.1220   15.1380   11.1450 C.3       1 JOZ         0.0047
      3 C6        -42.1300   13.6920   11.5750 C.3       1 JOZ         0.0406
      4 C7        -41.2070   15.9100   12.0280 C.ar      1 JOZ        -0.0206
      5 C8        -40.0850   15.3180   12.5660 C.ar      1 JOZ         0.0513
      6 C1        -40.6120   17.9500   13.1360 C.ar      1 JOZ        -0.0642
      7 C2        -39.4930   17.3470   13.6690 C.ar      1 JOZ        -0.0630
      8 C3        -41.4670   17.2360   12.3160 C.ar      1 JOZ        -0.0543
      9 C9        -39.7650   13.9060   12.2770 C.2       1 JOZ         0.2002
     10 N10       -40.7910   13.1710   11.7300 N.am      1 JOZ        -0.2852
     11 O11       -38.6410   13.4850   12.5230 O.2       1 JOZ        -0.3886
     12 H1        -38.3494   15.5450   13.7924 H         1 JOZ         0.0651
     13 H2        -43.1393   15.5493   11.2211 H         1 JOZ         0.0459
     14 H3        -41.7744   15.2095   10.1038 H         1 JOZ         0.0459
     15 H4        -42.6577   13.0973   10.8148 H         1 JOZ         0.0543
     16 H5        -42.6577   13.6093   12.5366 H         1 JOZ         0.0543
     17 H6        -40.8231   18.9893   13.3606 H         1 JOZ         0.0635
     18 H7        -38.8247   17.9087   14.3116 H         1 JOZ         0.0572
     19 H8        -42.3434   17.7181   11.8982 H         1 JOZ         0.0569
     20 H9        -40.6024   12.2369   11.4269 H         1 JOZ         0.1844
@<TRIPOS>BOND
     1    5    1 ar 
     2    1    7 ar 
     3    2    3 1  
     4    4    2 1  
     5    3   10 1  
     6    4    5 ar 
     7    4    8 ar 
     8    5    9 1  
     9    7    6 ar 
    10    6    8 ar 
    11    9   10 am 
    12    9   11 2  
    13    1   12 1  
    14    2   13 1  
    15    2   14 1  
    16    3   15 1  
    17    3   16 1  
    18    6   17 1  
    19    7   18 1  
    20    8   19 1  
    21   10   20 1  
@<TRIPOS>SUBSTRUCTURE
     1 JOZ         1

