### 
### Created by X-TOOL on Mon Sep 10 21:13:06 2018
### 

@<TRIPOS>MOLECULE
3nuy_ligand
   17    18     1     0     0
SMALL
GAST_HUCK


@<TRIPOS>ATOM
      1 C9        -40.5750   17.1150   13.4840 C.ar      1 JPZ        -0.0633
      2 C8        -41.7140   17.6080   12.9000 C.ar      1 JPZ        -0.0643
      3 C10       -40.2130   15.8140   13.1980 C.ar      1 JPZ        -0.0479
      4 C7        -42.4780   16.8280   12.0630 C.ar      1 JPZ        -0.0499
      5 C4        -42.4270   13.5070   10.7620 C.2       1 JPZ         0.1270
      6 C11       -40.9880   15.0370   12.3580 C.ar      1 JPZ         0.0643
      7 C6        -42.1340   15.5230   11.7760 C.ar      1 JPZ         0.0242
      8 C2        -40.6420   13.7340   12.0660 C.2       1 JPZ         0.2384
      9 N5        -42.8660   14.7510   10.9660 N.2       1 JPZ        -0.2958
     10 N3        -41.3330   12.9220   11.2630 N.am      1 JPZ        -0.1980
     11 O1        -39.5000   13.2310   12.6270 O.2       1 JPZ        -0.3848
     12 H1        -39.9778   17.7279   14.1494 H         1 JPZ         0.0570
     13 H2        -42.0172   18.6291   13.1013 H         1 JPZ         0.0633
     14 H3        -39.3129   15.3981   13.6361 H         1 JPZ         0.0648
     15 H4        -43.3723   17.2491   11.6180 H         1 JPZ         0.0573
     16 H5        -43.0369   12.8897   10.1041 H         1 JPZ         0.1520
     17 H6        -41.0630   11.9811   11.0586 H         1 JPZ         0.2558
@<TRIPOS>BOND
     1    2    1 ar 
     2    3    1 ar 
     3    4    2 ar 
     4    6    3 ar 
     5    7    4 ar 
     6    9    5 2  
     7    5   10 am 
     8    7    6 ar 
     9    6    8 1  
    10    7    9 1  
    11    8   10 am 
    12    8   11 2  
    13    1   12 1  
    14    2   13 1  
    15    3   14 1  
    16    4   15 1  
    17    5   16 1  
    18   10   17 1  
@<TRIPOS>SUBSTRUCTURE
     1 JPZ         1

