### 
### Created by X-TOOL on Mon Sep 10 21:13:04 2018
### 

@<TRIPOS>MOLECULE
3nw3_ligand
   65    65     1     0     0
SMALL
GAST_HUCK


@<TRIPOS>ATOM
      1 C1        -17.6450  -21.2200  -19.3950 C.3       1 MU2         0.1823
      2 O1        -17.5960  -20.3540  -18.2740 O.3       1 MU2        -0.3651
      3 C2        -16.2940  -21.9300  -19.6460 C.3       1 MU2         0.1212
      4 N2        -15.4390  -21.6520  -18.4850 N.am      1 MU2        -0.2766
      5 C7        -15.5920  -22.1650  -17.2490 C.2       1 MU2         0.1733
      6 O7        -16.4920  -22.9500  -16.9250 O.2       1 MU2        -0.3974
      7 C8        -14.5620  -21.6940  -16.2570 C.3       1 MU2         0.0257
      8 C3        -15.4850  -21.3220  -20.8070 C.3       1 MU2         0.1178
      9 O3        -14.3330  -22.1430  -21.0880 O.3       1 MU2        -0.3483
     10 C4        -16.3700  -20.9400  -22.0060 C.3       1 MU2         0.1121
     11 O4        -15.5870  -20.2620  -23.0090 O.3       1 MU2        -0.3865
     12 C5        -17.4300  -19.9720  -21.4600 C.3       1 MU2         0.1130
     13 O5        -18.2880  -20.7160  -20.5830 O.3       1 MU2        -0.3409
     14 C6        -18.2560  -19.3060  -22.5630 C.3       1 MU2         0.0730
     15 O6        -17.4990  -18.2110  -23.1200 O.3       1 MU2        -0.3924
     16 C18       -14.1470  -22.6440  -22.4190 C.3       1 MU2         0.1449
     17 C20       -14.0540  -24.1640  -22.3950 C.3       1 MU2        -0.0211
     18 C19       -12.9140  -22.0640  -23.0670 C.2       1 MU2         0.2072
     19 O18       -12.0600  -21.4990  -22.4030 O.2       1 MU2        -0.3941
     20 N4        -12.8900  -22.2390  -24.3910 N.am      1 MU2        -0.2638
     21 C21       -11.9550  -21.8500  -25.4550 C.3       1 MU2         0.1282
     22 C23       -12.6190  -20.6800  -26.1820 C.3       1 MU2        -0.0244
     23 C22       -10.5020  -21.5120  -25.2000 C.2       1 MU2         0.2031
     24 O19       -10.0990  -21.1130  -24.1180 O.2       1 MU2        -0.3944
     25 N5         -9.7360  -21.6730  -26.2920 N.am      1 MU2        -0.2693
     26 C24        -8.3000  -21.4320  -26.4810 C.3       1 MU2         0.0964
     27 C25        -8.0880  -21.9720  -27.8980 C.3       1 MU2        -0.0010
     28 C26        -6.8510  -21.4320  -28.6130 C.3       1 MU2         0.0407
     29 C27        -6.0070  -22.5910  -29.0970 C.2       1 MU2         0.1737
     30 N20        -6.4060  -23.2040  -30.2110 N.am      1 MU2        -0.3009
     31 O21        -5.0090  -22.9270  -28.4790 O.2       1 MU2        -0.3973
     32 C28        -7.3820  -22.1210  -25.5010 C.2       1 MU2         0.0602
     33 O22        -7.9040  -22.8020  -24.5810 O.co2     1 MU2        -0.5666
     34 O23        -6.1290  -22.0170  -25.6590 O.co2     1 MU2        -0.5666
     35 H1        -18.3165  -22.0282  -19.0696 H         1 MU2         0.0932
     36 H2        -17.1525  -20.7912  -17.5566 H         1 MU2         0.2126
     37 H3        -16.4553  -23.0072  -19.7993 H         1 MU2         0.0633
     38 H4        -14.6731  -21.0244  -18.6248 H         1 MU2         0.1857
     39 H5        -14.7570  -22.1568  -15.2783 H         1 MU2         0.0467
     40 H6        -14.6174  -20.5995  -16.1626 H         1 MU2         0.0467
     41 H7        -13.5590  -21.9817  -16.6052 H         1 MU2         0.0467
     42 H8        -15.0819  -20.3681  -20.4359 H         1 MU2         0.0650
     43 H9        -16.8424  -21.8343  -22.4385 H         1 MU2         0.0647
     44 H10       -16.1449  -20.0321  -23.7427 H         1 MU2         0.2100
     45 H11       -16.9229  -19.1820  -20.8867 H         1 MU2         0.0647
     46 H12       -19.1977  -18.9260  -22.1402 H         1 MU2         0.0584
     47 H13       -18.4779  -20.0399  -23.3518 H         1 MU2         0.0584
     48 H14       -17.3079  -17.5796  -22.4365 H         1 MU2         0.2095
     49 H15       -15.0211  -22.3552  -23.0211 H         1 MU2         0.0837
     50 H16       -13.9115  -24.5388  -23.4193 H         1 MU2         0.0279
     51 H17       -14.9821  -24.5816  -21.9775 H         1 MU2         0.0279
     52 H18       -13.2012  -24.4694  -21.7709 H         1 MU2         0.0279
     53 H19       -13.6817  -22.7456  -24.7325 H         1 MU2         0.1883
     54 H20       -11.9247  -22.7084  -26.1422 H         1 MU2         0.0797
     55 H21       -11.9659  -20.3372  -26.9981 H         1 MU2         0.0277
     56 H22       -12.7847  -19.8548  -25.4738 H         1 MU2         0.0277
     57 H23       -13.5839  -21.0063  -26.5972 H         1 MU2         0.0277
     58 H24       -10.2184  -22.0088  -27.1010 H         1 MU2         0.1875
     59 H25        -8.0943  -20.3523  -26.4380 H         1 MU2         0.0727
     60 H26        -8.9714  -21.7108  -28.4991 H         1 MU2         0.0330
     61 H27        -7.9967  -23.0665  -27.8366 H         1 MU2         0.0330
     62 H28        -6.2638  -20.8156  -27.9164 H         1 MU2         0.0504
     63 H29        -7.1614  -20.8195  -29.4724 H         1 MU2         0.0504
     64 H30        -5.8824  -23.9756  -30.5721 H         1 MU2         0.1814
     65 H31        -7.2290  -22.8923  -30.6858 H         1 MU2         0.1814
@<TRIPOS>BOND
     1    1    2 1  
     2    1    3 1  
     3    1   13 1  
     4    3    4 1  
     5    3    8 1  
     6    4    5 am 
     7    5    6 2  
     8    5    7 1  
     9    8    9 1  
    10    8   10 1  
    11    9   16 1  
    12   10   11 1  
    13   10   12 1  
    14   12   13 1  
    15   12   14 1  
    16   14   15 1  
    17   16   17 1  
    18   16   18 1  
    19   18   19 2  
    20   18   20 am 
    21   20   21 1  
    22   21   22 1  
    23   21   23 1  
    24   23   24 2  
    25   23   25 am 
    26   25   26 1  
    27   26   27 1  
    28   26   32 1  
    29   27   28 1  
    30   28   29 1  
    31   29   30 am 
    32   29   31 2  
    33   32   33 ar 
    34   32   34 ar 
    35    1   35 1  
    36    2   36 1  
    37    3   37 1  
    38    4   38 1  
    39    7   39 1  
    40    7   40 1  
    41    7   41 1  
    42    8   42 1  
    43   10   43 1  
    44   11   44 1  
    45   12   45 1  
    46   14   46 1  
    47   14   47 1  
    48   15   48 1  
    49   16   49 1  
    50   17   50 1  
    51   17   51 1  
    52   17   52 1  
    53   20   53 1  
    54   21   54 1  
    55   22   55 1  
    56   22   56 1  
    57   22   57 1  
    58   25   58 1  
    59   26   59 1  
    60   27   60 1  
    61   27   61 1  
    62   28   62 1  
    63   28   63 1  
    64   30   64 1  
    65   30   65 1  
@<TRIPOS>SUBSTRUCTURE
     1 MU2         1

