### 
### Created by X-TOOL on Mon Sep 10 21:13:03 2018
### 

@<TRIPOS>MOLECULE
3nw5_ligand
   51    56     1     0     0
SMALL
GAST_HUCK


@<TRIPOS>ATOM
      1 N1        -15.5730    7.0780    9.9630 N.pl3     1 LGX        -0.1757
      2 C2        -16.3160    6.7330   11.0890 C.2       1 LGX         0.1441
      3 C3        -16.7140    7.9300   11.7570 C.2       1 LGX        -0.0622
      4 C4        -16.1780    8.9670   10.9820 C.2       1 LGX        -0.0776
      5 C5        -15.4880    8.4260    9.8950 C.2       1 LGX         0.0477
      6 N6        -15.0710    6.1110    9.1440 N.2       1 LGX        -0.1744
      7 C7        -15.2690    4.7880    9.3850 C.2       1 LGX         0.1174
      8 N8        -15.9770    4.4160   10.4580 N.2       1 LGX        -0.2662
      9 C9        -16.4970    5.3510   11.3030 C.2       1 LGX         0.1695
     10 N10       -17.2140    4.9010   12.3830 N.pl3     1 LGX        -0.2479
     11 C11       -17.4420    3.4820   12.7710 C.2       1 LGX         0.0963
     12 C12       -17.0840    2.1930   12.2070 C.2       1 LGX        -0.0278
     13 C13       -17.5890    1.1400   13.0410 C.2       1 LGX         0.0681
     14 N14       -18.2070    1.7890   14.0360 N.pl3     1 LGX        -0.2354
     15 N15       -18.1130    3.1250   13.8650 N.2       1 LGX        -0.2321
     16 C16       -17.4920   -0.4050   12.9040 C.3       1 LGX         0.0593
     17 C17       -17.0550   -0.5080   11.4940 C.2       1 LGX        -0.0571
     18 C18       -18.5030   -0.4970   11.8160 C.2       1 LGX        -0.0571
     19 C19       -14.7260    3.7100    8.5000 C.3       1 LGX         0.1051
     20 N20       -13.6670    4.1200    7.5860 N.am      1 LGX        -0.2534
     21 C21       -13.9980    3.7880    6.1920 C.3       1 LGX         0.0366
     22 C22       -15.1580    2.7800    6.3010 C.3       1 LGX        -0.0280
     23 C23       -15.7940    2.9990    7.6720 C.3       1 LGX        -0.0134
     24 C24       -12.5420    4.7370    8.1150 C.2       1 LGX         0.2127
     25 O25       -12.3600    4.6890    9.3360 O.2       1 LGX        -0.3844
     26 C26       -11.5640    5.4440    7.2580 C.ar      1 LGX         0.0706
     27 C27       -10.2260    5.4810    7.6800 C.ar      1 LGX        -0.0268
     28 C28        -9.2170    6.1250    6.9450 C.ar      1 LGX         0.0082
     29 C29        -9.6190    6.7350    5.7540 C.ar      1 LGX         0.2177
     30 N30       -10.8890    6.7250    5.3080 N.ar      1 LGX        -0.2584
     31 C31       -11.8470    6.0960    6.0390 C.ar      1 LGX         0.0257
     32 F32        -8.6390    7.3410    5.0700 F         1 LGX        -0.1498
     33 H1        -17.3041    8.0179   12.6680 H         1 LGX         0.0304
     34 H2        -16.2832   10.0299   11.1943 H         1 LGX         0.0325
     35 H3        -14.9695    8.9933    9.1235 H         1 LGX         0.0822
     36 H4        -17.6381    5.6190   12.9875 H         1 LGX         0.2168
     37 H5        -16.5172    2.0471   11.2887 H         1 LGX         0.0191
     38 H6        -18.6880    1.3318   14.8237 H         1 LGX         0.2432
     39 H7        -17.2772   -1.0669   13.7559 H         1 LGX         0.0634
     40 H8        -16.2544   -0.5565   10.7573 H         1 LGX         0.0633
     41 H9        -19.5425   -0.5312   11.4932 H         1 LGX         0.0633
     42 H10       -14.2892    2.9623    9.1783 H         1 LGX         0.0780
     43 H11       -13.1342    3.3334    5.6849 H         1 LGX         0.0524
     44 H12       -14.3144    4.6870    5.6427 H         1 LGX         0.0524
     45 H13       -14.7769    1.7514    6.2187 H         1 LGX         0.0287
     46 H14       -15.8961    2.9623    5.5061 H         1 LGX         0.0287
     47 H15       -16.6941    3.6251    7.5840 H         1 LGX         0.0315
     48 H16       -16.0607    2.0359    8.1317 H         1 LGX         0.0315
     49 H17        -9.9605    4.9929    8.6108 H         1 LGX         0.0769
     50 H18        -8.1870    6.1474    7.2820 H         1 LGX         0.0688
     51 H19       -12.8669    6.0952    5.6716 H         1 LGX         0.0858
@<TRIPOS>BOND
     1    1    2 1  
     2    1    5 1  
     3    1    6 1  
     4    2    3 2  
     5    2    9 1  
     6    3    4 1  
     7    4    5 2  
     8    6    7 2  
     9    7    8 1  
    10    7   19 1  
    11    8    9 2  
    12    9   10 1  
    13   10   11 1  
    14   11   12 1  
    15   11   15 2  
    16   12   13 2  
    17   13   14 1  
    18   13   16 1  
    19   14   15 1  
    20   16   17 1  
    21   16   18 1  
    22   17   18 2  
    23   19   20 1  
    24   19   23 1  
    25   20   21 1  
    26   20   24 am 
    27   21   22 1  
    28   22   23 1  
    29   24   25 2  
    30   24   26 1  
    31   26   27 ar 
    32   26   31 ar 
    33   27   28 ar 
    34   28   29 ar 
    35   29   30 ar 
    36   29   32 1  
    37   30   31 ar 
    38    3   33 1  
    39    4   34 1  
    40    5   35 1  
    41   10   36 1  
    42   12   37 1  
    43   14   38 1  
    44   16   39 1  
    45   17   40 1  
    46   18   41 1  
    47   19   42 1  
    48   21   43 1  
    49   21   44 1  
    50   22   45 1  
    51   22   46 1  
    52   23   47 1  
    53   23   48 1  
    54   27   49 1  
    55   28   50 1  
    56   31   51 1  
@<TRIPOS>SUBSTRUCTURE
     1 LGX         1

