### 
### Created by X-TOOL on Mon Sep 10 21:13:03 2018
### 

@<TRIPOS>MOLECULE
3nw6_ligand
   53    58     1     0     0
SMALL
GAST_HUCK


@<TRIPOS>ATOM
      1 N1        -16.4110    7.4650   10.4150 N.pl3     1 LGW        -0.1757
      2 C2        -17.1080    6.9940   11.5160 C.2       1 LGW         0.1441
      3 C3        -17.5720    8.0950   12.3100 C.2       1 LGW        -0.0622
      4 C4        -17.1170    9.2330   11.6250 C.2       1 LGW        -0.0776
      5 C5        -16.4150    8.8180   10.4790 C.2       1 LGW         0.0477
      6 N6        -15.8680    6.5940    9.5050 N.2       1 LGW        -0.1744
      7 C7        -15.9780    5.2610    9.6250 C.2       1 LGW         0.1174
      8 N8        -16.6480    4.7630   10.6830 N.2       1 LGW        -0.2662
      9 C9        -17.1980    5.6150   11.6050 C.2       1 LGW         0.1696
     10 N10       -17.8660    5.1100   12.6590 N.pl3     1 LGW        -0.2473
     11 C11       -18.0990    3.6890   12.9590 C.2       1 LGW         0.1004
     12 C12       -17.7980    2.4260   12.3000 C.2       1 LGW        -0.0247
     13 C13       -18.3150    1.3880   13.1520 C.2       1 LGW         0.0623
     14 N14       -18.8580    2.0190   14.1990 N.pl3     1 LGW        -0.2328
     15 N15       -18.7310    3.3370   14.0810 N.2       1 LGW        -0.2272
     16 C16       -18.3300   -0.1470   13.0470 C.3       1 LGW         0.0198
     17 C17       -19.1040   -0.2790   11.7720 C.3       1 LGW        -0.0344
     18 C18       -17.5890   -0.3710   11.7850 C.3       1 LGW        -0.0344
     19 C19       -15.3620    4.3760    8.5960 C.3       1 LGW         0.1051
     20 N20       -14.5730    3.2790    9.1640 N.am      1 LGW        -0.2534
     21 C21       -14.9350    1.9720    8.6100 C.3       1 LGW         0.0366
     22 C22       -15.8280    2.3040    7.3980 C.3       1 LGW        -0.0280
     23 C23       -16.3850    3.7410    7.6400 C.3       1 LGW        -0.0134
     24 C24       -13.6190    3.5410   10.1070 C.2       1 LGW         0.2127
     25 O25       -13.1690    4.6680   10.2530 O.2       1 LGW        -0.3844
     26 C26       -13.0990    2.5030   10.9740 C.ar      1 LGW         0.0706
     27 C27       -13.9690    1.6500   11.6860 C.ar      1 LGW        -0.0268
     28 C28       -13.4740    0.6660   12.5100 C.ar      1 LGW         0.0082
     29 C29       -12.0890    0.5460   12.6130 C.ar      1 LGW         0.2177
     30 N30       -11.2190    1.3540   11.9370 N.ar      1 LGW        -0.2584
     31 C31       -11.7120    2.3330   11.1170 C.ar      1 LGW         0.0257
     32 F32       -11.7040   -0.4390   13.4370 F         1 LGW        -0.1498
     33 H1        -18.1467    8.0568   13.2342 H         1 LGW         0.0304
     34 H2        -17.2805   10.2655   11.9303 H         1 LGW         0.0325
     35 H3        -15.9466    9.4825    9.7544 H         1 LGW         0.0822
     36 H4        -18.2554    5.7911   13.3264 H         1 LGW         0.2169
     37 H5        -17.2831    2.2931   11.3497 H         1 LGW         0.0220
     38 H6        -19.3144    1.5460   14.9921 H         1 LGW         0.2456
     39 H7        -18.3529   -0.7778   13.9478 H         1 LGW         0.0507
     40 H8        -19.6012    0.5986   11.3332 H         1 LGW         0.0295
     41 H9        -19.7112   -1.1767   11.5838 H         1 LGW         0.0295
     42 H10       -17.0948   -1.3363   11.6010 H         1 LGW         0.0295
     43 H11       -16.9848    0.4390   11.3504 H         1 LGW         0.0295
     44 H12       -14.6865    5.0072    8.0000 H         1 LGW         0.0780
     45 H13       -15.4888    1.3754    9.3498 H         1 LGW         0.0524
     46 H14       -14.0372    1.4213    8.2928 H         1 LGW         0.0524
     47 H15       -16.6554    1.5827    7.3264 H         1 LGW         0.0287
     48 H16       -15.2364    2.2767    6.4710 H         1 LGW         0.0287
     49 H17       -16.4409    4.3034    6.6963 H         1 LGW         0.0315
     50 H18       -17.3820    3.7017    8.1031 H         1 LGW         0.0315
     51 H19       -15.0411    1.7718   11.5823 H         1 LGW         0.0769
     52 H20       -14.1371    0.0076   13.0595 H         1 LGW         0.0688
     53 H21       -11.0299    2.9791   10.5763 H         1 LGW         0.0858
@<TRIPOS>BOND
     1    1    2 1  
     2    1    5 1  
     3    1    6 1  
     4    2    3 2  
     5    2    9 1  
     6    3    4 1  
     7    4    5 2  
     8    6    7 2  
     9    7    8 1  
    10    7   19 1  
    11    8    9 2  
    12    9   10 1  
    13   10   11 1  
    14   11   12 1  
    15   11   15 2  
    16   12   13 2  
    17   13   14 1  
    18   13   16 1  
    19   14   15 1  
    20   16   17 1  
    21   16   18 1  
    22   17   18 1  
    23   19   20 1  
    24   19   23 1  
    25   20   21 1  
    26   20   24 am 
    27   21   22 1  
    28   22   23 1  
    29   24   25 2  
    30   24   26 1  
    31   26   27 ar 
    32   26   31 ar 
    33   27   28 ar 
    34   28   29 ar 
    35   29   30 ar 
    36   29   32 1  
    37   30   31 ar 
    38    3   33 1  
    39    4   34 1  
    40    5   35 1  
    41   10   36 1  
    42   12   37 1  
    43   14   38 1  
    44   16   39 1  
    45   17   40 1  
    46   17   41 1  
    47   18   42 1  
    48   18   43 1  
    49   19   44 1  
    50   21   45 1  
    51   21   46 1  
    52   22   47 1  
    53   22   48 1  
    54   23   49 1  
    55   23   50 1  
    56   27   51 1  
    57   28   52 1  
    58   31   53 1  
@<TRIPOS>SUBSTRUCTURE
     1 LGW         1

