### 
### Created by X-TOOL on Mon Sep 10 21:13:02 2018
### 

@<TRIPOS>MOLECULE
3nw7_ligand
   46    50     1     0     0
SMALL
GAST_HUCK


@<TRIPOS>ATOM
      1 C1        -17.4570    8.9330   11.3080 C.2       1 LGV        -0.0776
      2 C2        -12.8690    2.0720   11.7070 C.ar      1 LGV        -0.0268
      3 C3        -17.9820    7.8730   12.0950 C.2       1 LGV        -0.0621
      4 C4        -11.9540    1.5210   12.6090 C.ar      1 LGV         0.0082
      5 C5        -18.4740    2.4290   12.7460 C.2       1 LGV        -0.0260
      6 C6        -14.4440    0.4060   12.4090 C.ar      1 LGV         0.0257
      7 C7        -16.7490    8.3690   10.2640 C.2       1 LGV         0.0478
      8 C8        -14.1460    1.4960   11.6000 C.ar      1 LGV         0.0704
      9 C9        -17.5770    6.6970   11.5070 C.2       1 LGV         0.1450
     10 C10       -18.9330    1.4430   13.6050 C.2       1 LGV        -0.0086
     11 C11       -18.7850    3.6650   13.3880 C.2       1 LGV         0.1762
     12 C12       -12.3630    0.4360   13.3540 C.ar      1 LGV         0.2177
     13 C13       -17.7880    5.3070   11.8330 C.2       1 LGV         0.1759
     14 C14       -16.4970    4.8650    9.9180 C.2       1 LGV         0.1148
     15 C15       -15.2270    1.9800   10.7030 C.2       1 LGV         0.2100
     16 C16       -18.3440   -0.7040   12.1660 C.3       1 LGV        -0.0397
     17 C17       -19.8180   -0.7170   12.4470 C.3       1 LGV        -0.0397
     18 C18       -18.8680   -0.0760   13.4280 C.3       1 LGV        -0.0085
     19 C19       -15.9320    3.7260    9.1060 C.3       1 LGV         0.0913
     20 N20       -13.5820   -0.1380   13.2800 N.ar      1 LGV        -0.2584
     21 N21       -19.3920    3.4250   14.5620 N.pl3     1 LGV        -0.2102
     22 N22       -17.2260    4.4570   11.0090 N.2       1 LGV        -0.2649
     23 N23       -16.2630    6.0910    9.5670 N.2       1 LGV        -0.1742
     24 N24       -19.4720    2.0820   14.6740 N.2       1 LGV        -0.2514
     25 N25       -16.8270    7.0110   10.3940 N.pl3     1 LGV        -0.1754
     26 N26       -18.5370    4.9380   12.9470 N.pl3     1 LGV        -0.2188
     27 N27       -14.9470    3.1040    9.9670 N.am      1 LGV        -0.2700
     28 O28       -16.3050    1.3970   10.6820 O.2       1 LGV        -0.3846
     29 F29       -11.5100   -0.1090   14.2230 F         1 LGV        -0.1498
     30 H1        -17.5888    9.9979   11.4940 H         1 LGV         0.0325
     31 H2        -12.5979    2.9287   11.1007 H         1 LGV         0.0769
     32 H3        -18.5897    7.9725   12.9932 H         1 LGV         0.0304
     33 H4        -10.9573    1.9329   12.7187 H         1 LGV         0.0688
     34 H5        -17.9807    2.2901   11.7851 H         1 LGV         0.0183
     35 H6        -15.4331   -0.0307   12.3311 H         1 LGV         0.0858
     36 H7        -16.2232    8.9098    9.4785 H         1 LGV         0.0821
     37 H8        -17.9438   -0.0691   11.3618 H         1 LGV         0.0289
     38 H9        -17.7670   -1.6391   12.2165 H         1 LGV         0.0289
     39 H10       -20.3206   -1.6609   12.7046 H         1 LGV         0.0289
     40 H11       -20.4974   -0.0909   11.8500 H         1 LGV         0.0289
     41 H12       -18.6573   -0.5508   14.3976 H         1 LGV         0.0443
     42 H13       -15.4591    4.1034    8.1873 H         1 LGV         0.0742
     43 H14       -16.7235    3.0088    8.8430 H         1 LGV         0.0742
     44 H15       -19.7283    4.1241   15.2396 H         1 LGV         0.2468
     45 H16       -18.9488    5.7042   13.4987 H         1 LGV         0.2262
     46 H17       -14.0336    3.5066   10.0270 H         1 LGV         0.1877
@<TRIPOS>BOND
     1    3    1 1  
     2    7    1 2  
     3    2    4 ar 
     4    8    2 ar 
     5    9    3 2  
     6    4   12 ar 
     7    5   10 1  
     8   11    5 2  
     9    8    6 ar 
    10    6   20 ar 
    11   25    7 1  
    12   15    8 1  
    13   13    9 1  
    14    9   25 1  
    15   10   18 1  
    16   10   24 2  
    17   11   21 1  
    18   26   11 1  
    19   20   12 ar 
    20   12   29 1  
    21   22   13 2  
    22   13   26 1  
    23   19   14 1  
    24   14   22 1  
    25   14   23 2  
    26   27   15 am 
    27   15   28 2  
    28   17   16 1  
    29   18   16 1  
    30   18   17 1  
    31   19   27 1  
    32   21   24 1  
    33   23   25 1  
    34    1   30 1  
    35    2   31 1  
    36    3   32 1  
    37    4   33 1  
    38    5   34 1  
    39    6   35 1  
    40    7   36 1  
    41   16   37 1  
    42   16   38 1  
    43   17   39 1  
    44   17   40 1  
    45   18   41 1  
    46   19   42 1  
    47   19   43 1  
    48   21   44 1  
    49   26   45 1  
    50   27   46 1  
@<TRIPOS>SUBSTRUCTURE
     1 LGV         1

