### 
### Created by X-TOOL on Fri Sep 26 17:34:50 2014
### 

@<TRIPOS>MOLECULE
3nw9_ligand
   62    66     1     0     0
SMALL
GAST_HUCK


@<TRIPOS>ATOM
      1 C1         -4.5520   21.3580   13.8700 C.3       1 MOL         0.2034
      2 C2         -4.9640   20.7930   15.2380 C.3       1 MOL         0.1402
      3 O3         -5.6940   21.8020   15.9520 O.3       1 MOL        -0.3834
      4 C4         -3.6080   20.4670   15.8680 C.3       1 MOL         0.1189
      5 O5         -2.8750   21.6380   16.2560 O.3       1 MOL        -0.3846
      6 C6         -2.9100   19.9120   14.6360 C.3       1 MOL         0.1082
      7 C7         -8.7350   21.6300    9.2800 C.3       1 MOL        -0.0106
      8 N8         -7.0700   20.1570   11.5080 N.2       1 MOL        -0.2933
      9 C9         -6.2490   19.9830   12.4920 C.2       1 MOL         0.1151
     10 N10        -5.6170   21.1970   12.8620 N.pl3     1 MOL        -0.1882
     11 C11        -6.1200   22.1500   11.9970 C.ar      1 MOL         0.1683
     12 C12        -6.9880   21.4640   11.1670 C.ar      1 MOL         0.0876
     13 O13        -3.3990   20.6230   13.4490 O.3       1 MOL        -0.3296
     14 C14        -3.2600   18.4530   14.5480 C.2       1 MOL        -0.0658
     15 C15        -2.5710   17.6950   13.7340 C.2       1 MOL        -0.0744
     16 C16        -2.8960   16.2620   13.5590 C.3       1 MOL         0.0471
     17 N17        -1.5760   15.6450   13.6800 N.am      1 MOL        -0.2802
     18 C18        -1.6050   14.3830   14.2030 C.2       1 MOL         0.1986
     19 O19        -2.6650   13.8920   14.6020 O.2       1 MOL        -0.3908
     20 C20        -0.3160   13.7300   14.4410 C.ar      1 MOL         0.0720
     21 C21        -0.3280   12.5350   15.1860 C.ar      1 MOL        -0.0533
     22 C22         0.8530   11.8320   15.4240 C.ar      1 MOL        -0.0339
     23 C23         2.0970   12.2920   14.9480 C.ar      1 MOL        -0.0299
     24 C24         0.7630   10.5780   16.2320 C.ar      1 MOL        -0.0299
     25 C25        -0.1400   10.5370   17.2750 C.ar      1 MOL        -0.0581
     26 C26        -0.1850    9.3640   18.0230 C.ar      1 MOL        -0.0288
     27 C27         1.6050    9.5480   15.8740 C.ar      1 MOL        -0.0581
     28 C28         1.5960    8.3670   16.6280 C.ar      1 MOL        -0.0288
     29 C29         0.6690    8.3320   17.6380 C.ar      1 MOL         0.1316
     30 F30         0.7100    7.1280   18.3450 F         1 MOL        -0.1840
     31 C31         0.8980   14.1650   13.9150 C.ar      1 MOL         0.1393
     32 O32         1.0200   15.3210   13.2110 O.3       1 MOL        -0.3302
     33 C33         2.0780   13.4830   14.2130 C.ar      1 MOL         0.1232
     34 O34         3.3020   13.9580   13.7300 O.3       1 MOL        -0.3356
     35 C35        -7.6780   22.2130   10.1960 C.ar      1 MOL         0.0444
     36 N38        -7.3920   23.5200   10.1170 N.ar      1 MOL        -0.2825
     37 C39        -6.4840   24.1120   10.9600 C.ar      1 MOL         0.0619
     38 N40        -5.8100   23.4560   11.9050 N.ar      1 MOL        -0.2608
     39 H1         -4.3070   22.4257   13.9700 H         1 MOL         0.0998
     40 H2         -5.5813   19.8878   15.1406 H         1 MOL         0.0678
     41 H3         -5.1422   22.5661   16.0709 H         1 MOL         0.2101
     42 H4         -3.6871   19.7525   16.7006 H         1 MOL         0.0667
     43 H5         -3.3797   22.1294   16.8934 H         1 MOL         0.2102
     44 H6         -1.8205   20.0365   14.7230 H         1 MOL         0.0749
     45 H7         -9.1199   22.4181    8.6161 H         1 MOL         0.0446
     46 H8         -9.5600   21.2240    9.8838 H         1 MOL         0.0446
     47 H9         -8.2924   20.8248    8.6752 H         1 MOL         0.0446
     48 H10        -6.0661   19.0245   12.9756 H         1 MOL         0.1373
     49 H11        -4.0681   18.0366   15.1476 H         1 MOL         0.0477
     50 H12        -1.7425   18.1269   13.1746 H         1 MOL         0.0470
     51 H13        -3.3405   16.0688   12.5715 H         1 MOL         0.0643
     52 H14        -3.5789   15.9063   14.3445 H         1 MOL         0.0643
     53 H15        -0.7309   16.1038   13.4056 H         1 MOL         0.1864
     54 H16        -1.2652   12.1574   15.5787 H         1 MOL         0.0555
     55 H17         3.0178   11.7533   15.1404 H         1 MOL         0.0543
     56 H18        -0.7841   11.3790   17.5011 H         1 MOL         0.0601
     57 H19        -0.8552    9.2577   18.8683 H         1 MOL         0.0602
     58 H20         2.2655    9.6498   15.0205 H         1 MOL         0.0601
     59 H21         2.2711    7.5428   16.4280 H         1 MOL         0.0602
     60 H22         1.9245   15.4333   12.9431 H         1 MOL         0.2479
     61 H23         4.0004   13.3834   14.0209 H         1 MOL         0.2443
     62 H24        -6.3046   25.1755   10.8507 H         1 MOL         0.1019
@<TRIPOS>BOND
     1    1    2 1  
     2   10    1 1  
     3    1   13 1  
     4    2    3 1  
     5    2    4 1  
     6    4    5 1  
     7    6    4 1  
     8   13    6 1  
     9    6   14 1  
    10   35    7 1  
    11    8    9 2  
    12   12    8 1  
    13   10    9 1  
    14   11   10 1  
    15   12   11 ar 
    16   11   38 ar 
    17   12   35 ar 
    18   14   15 2  
    19   15   16 1  
    20   16   17 1  
    21   17   18 am 
    22   18   19 2  
    23   18   20 1  
    24   20   21 ar 
    25   20   31 ar 
    26   21   22 ar 
    27   22   23 ar 
    28   22   24 1  
    29   23   33 ar 
    30   24   25 ar 
    31   24   27 ar 
    32   25   26 ar 
    33   26   29 ar 
    34   27   28 ar 
    35   28   29 ar 
    36   29   30 1  
    37   31   32 1  
    38   31   33 ar 
    39   33   34 1  
    40   35   36 ar 
    41   36   37 ar 
    42   37   38 ar 
    43    1   39 1  
    44    2   40 1  
    45    3   41 1  
    46    4   42 1  
    47    5   43 1  
    48    6   44 1  
    49    7   45 1  
    50    7   46 1  
    51    7   47 1  
    52    9   48 1  
    53   14   49 1  
    54   15   50 1  
    55   16   51 1  
    56   16   52 1  
    57   17   53 1  
    58   21   54 1  
    59   23   55 1  
    60   25   56 1  
    61   26   57 1  
    62   27   58 1  
    63   28   59 1  
    64   32   60 1  
    65   34   61 1  
    66   37   62 1  
@<TRIPOS>SUBSTRUCTURE
     1 MOL         1

