### 
### Created by X-TOOL on Mon Sep 10 21:13:05 2018
### 

@<TRIPOS>MOLECULE
3nwb_ligand
   63    67     1     0     0
SMALL
GAST_HUCK


@<TRIPOS>ATOM
      1 C1         -3.1670   20.6380   14.4800 C.3       1 659         0.1133
      2 C2         -3.7600   21.3440   15.6780 C.3       1 659         0.1643
      3 C3         -5.0940   21.5650   15.1430 C.3       1 659         0.1453
      4 C4         -4.8370   22.0780   13.8060 C.3       1 659         0.2031
      5 O5         -3.6750   21.3130   13.3460 O.3       1 659        -0.3293
      6 F6         -3.7160   20.4900   16.7630 F         1 659        -0.2379
      7 O7         -5.8360   22.4750   15.8990 O.3       1 659        -0.3831
      8 C8         -3.5020   19.1660   14.4640 C.2       1 659        -0.0655
      9 C9          1.8380   13.9320   14.1710 C.ar      1 659         0.1232
     10 C10         1.8140   12.7340   14.8920 C.ar      1 659        -0.0299
     11 C11         0.6040   12.2180   15.4080 C.ar      1 659        -0.0339
     12 C12        -0.5760   12.9510   15.1280 C.ar      1 659        -0.0533
     13 C13        -0.5610   14.1130   14.4010 C.ar      1 659         0.0720
     14 C14         0.6540   14.6300   13.9170 C.ar      1 659         0.1393
     15 C15         0.5670   10.9790   16.1650 C.ar      1 659        -0.0299
     16 C16        -0.3360   10.8120   17.2110 C.ar      1 659        -0.0581
     17 C17        -0.3490    9.6580   17.9310 C.ar      1 659        -0.0288
     18 C18         0.5080    8.6150   17.5970 C.ar      1 659         0.1316
     19 C19         1.3970    8.7620   16.5680 C.ar      1 659        -0.0288
     20 C20         1.3740    9.9440   15.8470 C.ar      1 659        -0.0581
     21 O21         0.7860   15.7610   13.1340 O.3       1 659        -0.3302
     22 O22         3.0130   14.4530   13.6750 O.3       1 659        -0.3356
     23 F23         0.5060    7.4920   18.3100 F         1 659        -0.1840
     24 C24        -1.8640   14.7980   14.2290 C.2       1 659         0.1986
     25 N25        -1.8380   16.0890   13.7970 N.am      1 659        -0.2802
     26 O26        -2.9110   14.2920   14.5160 O.2       1 659        -0.3908
     27 C27        -3.1000   16.8630   13.6920 C.3       1 659         0.0471
     28 C28        -2.7180   18.2880   13.8240 C.2       1 659        -0.0744
     29 N29        -5.8610   21.8580   12.8170 N.pl3     1 659        -0.1917
     30 N30        -7.2260   20.8400   11.4210 N.2       1 659        -0.2957
     31 C31        -6.4270   20.6750   12.5050 C.2       1 659         0.1123
     32 C32        -7.1050   22.1580   11.0350 C.ar      1 659         0.1047
     33 C33        -6.2550   22.7920   11.8960 C.ar      1 659         0.1613
     34 N34        -5.9360   24.0860   11.7750 N.ar      1 659        -0.2714
     35 C35        -6.5080   24.7620   10.7430 C.ar      1 659         0.0533
     36 N36        -7.3510   24.1660    9.8510 N.ar      1 659        -0.2697
     37 C37        -7.6870   22.8980   10.0000 C.ar      1 659         0.1321
     38 N38        -8.6030   22.3980    9.0730 N.pl3     1 659        -0.3042
     39 C39        -9.1110   21.0490    9.1470 C.3       1 659         0.0184
     40 H1         -2.0719   20.7386   14.5033 H         1 659         0.0752
     41 H2         -3.2512   22.2883   15.9219 H         1 659         0.0726
     42 H3         -5.6463   20.6150   15.0931 H         1 659         0.0681
     43 H4         -4.6184   23.1545   13.8642 H         1 659         0.0998
     44 H5         -5.3538   23.2901   15.9740 H         1 659         0.2102
     45 H6         -4.3936   18.8128   14.9800 H         1 659         0.0477
     46 H7          2.7384   12.1926   15.0577 H         1 659         0.0543
     47 H8         -1.5235   12.5799   15.5017 H         1 659         0.0555
     48 H9         -1.0329   11.6062   17.4532 H         1 659         0.0601
     49 H10        -1.0296    9.5510   18.7679 H         1 659         0.0602
     50 H11         2.1006    7.9744   16.3235 H         1 659         0.0602
     51 H12         2.0317   10.0427   14.9910 H         1 659         0.0601
     52 H13         1.7045   15.9031   12.9371 H         1 659         0.2479
     53 H14         3.1526   15.3193   14.0392 H         1 659         0.2443
     54 H15        -0.9680   16.5159   13.5503 H         1 659         0.1864
     55 H16        -3.7920   16.5768   14.4978 H         1 659         0.0643
     56 H17        -3.5779   16.6843   12.7175 H         1 659         0.0643
     57 H18        -1.7789   18.6297   13.3912 H         1 659         0.0470
     58 H19        -6.2685   19.7382   13.0371 H         1 659         0.1349
     59 H20        -6.2854   25.8162   10.6243 H         1 659         0.0996
     60 H21        -8.9268   23.0115    8.3116 H         1 659         0.1852
     61 H22        -9.8145   20.8762    8.3192 H         1 659         0.0489
     62 H23        -9.6306   20.9049   10.1058 H         1 659         0.0489
     63 H24        -8.2752   20.3378    9.0723 H         1 659         0.0489
@<TRIPOS>BOND
     1    1    2 1  
     2    1    5 1  
     3    8    1 1  
     4    2    3 1  
     5    2    6 1  
     6    4    3 1  
     7    3    7 1  
     8    5    4 1  
     9    4   29 1  
    10   28    8 2  
    11    9   10 ar 
    12   14    9 ar 
    13    9   22 1  
    14   11   10 ar 
    15   12   11 ar 
    16   11   15 1  
    17   13   12 ar 
    18   13   14 ar 
    19   24   13 1  
    20   14   21 1  
    21   15   16 ar 
    22   15   20 ar 
    23   16   17 ar 
    24   17   18 ar 
    25   19   18 ar 
    26   18   23 1  
    27   20   19 ar 
    28   25   24 am 
    29   24   26 2  
    30   27   25 1  
    31   27   28 1  
    32   29   31 1  
    33   29   33 1  
    34   31   30 2  
    35   30   32 1  
    36   32   33 ar 
    37   32   37 ar 
    38   33   34 ar 
    39   34   35 ar 
    40   35   36 ar 
    41   36   37 ar 
    42   37   38 1  
    43   38   39 1  
    44    1   40 1  
    45    2   41 1  
    46    3   42 1  
    47    4   43 1  
    48    7   44 1  
    49    8   45 1  
    50   10   46 1  
    51   12   47 1  
    52   16   48 1  
    53   17   49 1  
    54   19   50 1  
    55   20   51 1  
    56   21   52 1  
    57   22   53 1  
    58   25   54 1  
    59   27   55 1  
    60   27   56 1  
    61   28   57 1  
    62   31   58 1  
    63   35   59 1  
    64   38   60 1  
    65   39   61 1  
    66   39   62 1  
    67   39   63 1  
@<TRIPOS>SUBSTRUCTURE
     1 659         1

