### 
### Created by X-TOOL on Mon Sep 10 21:13:05 2018
### 

@<TRIPOS>MOLECULE
3nwe_ligand
   72    76     1     0     0
SMALL
GAST_HUCK


@<TRIPOS>ATOM
      1 N1         -6.0030    5.6090   26.8120 N.pl3     1 662        -0.1918
      2 C2         -4.9690    5.4290   25.8140 C.3       1 662         0.2005
      3 C3         -5.2290    5.9230   24.4400 C.3       1 662         0.1169
      4 C4         -6.3840    4.6690   27.7500 C.ar      1 662         0.1613
      5 C5         -7.3330    5.2450   28.5640 C.ar      1 662         0.1047
      6 N6         -7.5000    6.5570   28.1260 N.2       1 662        -0.2957
      7 C7         -0.5370   13.4550   25.0020 C.ar      1 662         0.0720
      8 C8         -3.8510    6.1760   23.9190 C.3       1 662         0.0205
      9 C9         -6.6630    6.7590   27.0720 C.2       1 662         0.1123
     10 O10        -3.7950    6.2210   26.2680 O.3       1 662        -0.3320
     11 O11        -5.9680    5.0000   23.7460 O.3       1 662        -0.3858
     12 C12         1.8390   13.6270   25.2960 C.ar      1 662         0.1232
     13 C13         0.6560   12.9560   25.5260 C.ar      1 662         0.1393
     14 C14        -3.8160    7.0050   22.6590 C.3       1 662        -0.0559
     15 C15        -3.2570    6.8740   25.1210 C.3       1 662         0.0848
     16 C16        -0.5540   14.6510   24.3020 C.ar      1 662        -0.0533
     17 C17        -1.8440   12.7910   25.1910 C.2       1 662         0.1986
     18 C18        -7.8920    4.4630   29.6010 C.ar      1 662         0.1323
     19 N19        -5.9840    3.3830   27.9130 N.ar      1 662        -0.2714
     20 O20         3.0230   13.1330   25.8020 O.3       1 662        -0.3356
     21 C21         0.5870   15.3380   24.0620 C.ar      1 662        -0.0339
     22 N22        -7.4680    3.1740   29.7570 N.ar      1 662        -0.2696
     23 C23         1.8030   14.8250   24.5860 C.ar      1 662        -0.0299
     24 C24        -6.5230    2.6530   28.9280 C.ar      1 662         0.0533
     25 C25         0.5650   16.5640   23.3150 C.ar      1 662        -0.0299
     26 C26        -3.5990    8.3580   25.1970 C.2       1 662        -0.0680
     27 O27        -2.9190   13.3130   24.9230 O.2       1 662        -0.3908
     28 N28        -1.8000   11.4610   25.6590 N.am      1 662        -0.2802
     29 C29        -2.6660    9.2610   25.6500 C.2       1 662        -0.0745
     30 C30         1.3900   17.6270   23.6780 C.ar      1 662        -0.0581
     31 C31        -0.2900   16.7250   22.2190 C.ar      1 662        -0.0581
     32 N32        -8.9040    4.9490   30.4650 N.pl3     1 662        -0.3012
     33 O33         0.7730   11.8060   26.2570 O.3       1 662        -0.3302
     34 C34         0.5430   18.9600   21.8470 C.ar      1 662         0.1316
     35 C35        -0.2820   17.9150   21.4810 C.ar      1 662        -0.0288
     36 C36         1.4000   18.8210   22.9370 C.ar      1 662        -0.0288
     37 F37         0.5460   20.0640   21.1080 F         1 662        -0.1840
     38 C38        -3.0220   10.7130   25.8020 C.3       1 662         0.0471
     39 C39        -9.5340    6.2510   30.2980 C.3       1 662         0.0295
     40 C40       -10.7300    6.1150   29.3660 C.3       1 662        -0.0352
     41 C41       -11.6490    7.3220   29.5470 C.3       1 662        -0.0634
     42 H1         -4.7257    4.3575   25.7620 H         1 662         0.0997
     43 H2         -5.7932    6.8670   24.4639 H         1 662         0.0654
     44 H3         -3.3290    5.2288   23.7184 H         1 662         0.0370
     45 H4         -6.5446    7.6945   26.5273 H         1 662         0.1349
     46 H5         -5.5200    4.1623   23.7596 H         1 662         0.2100
     47 H6         -2.7722    7.1457   22.3416 H         1 662         0.0236
     48 H7         -4.2758    7.9854   22.8522 H         1 662         0.0236
     49 H8         -4.3744    6.4883   21.8645 H         1 662         0.0236
     50 H9         -2.1627    6.7643   25.0993 H         1 662         0.0725
     51 H10        -1.4977   15.0430   23.9404 H         1 662         0.0555
     52 H11         3.1790   12.2647   25.4493 H         1 662         0.2443
     53 H12         2.7227   15.3773   24.4302 H         1 662         0.0543
     54 H13        -6.1914    1.6321   29.0794 H         1 662         0.0996
     55 H14        -4.5854    8.7039   24.8915 H         1 662         0.0476
     56 H15        -0.9234   11.0392   25.8906 H         1 662         0.1864
     57 H16        -1.6620    8.9214   25.9004 H         1 662         0.0470
     58 H17         2.0336   17.5313   24.5450 H         1 662         0.0601
     59 H18        -0.9633   15.9228   21.9393 H         1 662         0.0601
     60 H19        -9.2085    4.3533   31.2482 H         1 662         0.1856
     61 H20         1.1397   12.0098   27.1093 H         1 662         0.2479
     62 H21        -0.9279   18.0165   20.6164 H         1 662         0.0602
     63 H22         2.0696   19.6281   23.2114 H         1 662         0.0602
     64 H23        -3.7403   11.0097   25.0236 H         1 662         0.0643
     65 H24        -3.4615   10.8927   26.7942 H         1 662         0.0643
     66 H25        -8.8097    6.9570   29.8657 H         1 662         0.0525
     67 H26        -9.8710    6.6244   31.2762 H         1 662         0.0525
     68 H27       -11.2810    5.1939   29.6068 H         1 662         0.0282
     69 H28       -10.3810    6.0716   28.3238 H         1 662         0.0282
     70 H29       -12.5148    7.2276   28.8751 H         1 662         0.0230
     71 H30       -11.0970    8.2425   29.3065 H         1 662         0.0230
     72 H31       -11.9970    7.3648   30.5896 H         1 662         0.0230
@<TRIPOS>BOND
     1    2    1 1  
     2    1    4 1  
     3    1    9 1  
     4    2    3 1  
     5   10    2 1  
     6    8    3 1  
     7    3   11 1  
     8    4    5 ar 
     9    4   19 ar 
    10    6    5 1  
    11    5   18 ar 
    12    9    6 2  
    13    7   13 ar 
    14    7   16 ar 
    15   17    7 1  
    16    8   14 1  
    17   15    8 1  
    18   15   10 1  
    19   13   12 ar 
    20   12   20 1  
    21   12   23 ar 
    22   13   33 1  
    23   26   15 1  
    24   16   21 ar 
    25   17   27 2  
    26   28   17 am 
    27   18   22 ar 
    28   18   32 1  
    29   19   24 ar 
    30   21   23 ar 
    31   21   25 1  
    32   24   22 ar 
    33   25   30 ar 
    34   25   31 ar 
    35   29   26 2  
    36   38   28 1  
    37   29   38 1  
    38   30   36 ar 
    39   31   35 ar 
    40   32   39 1  
    41   35   34 ar 
    42   34   36 ar 
    43   34   37 1  
    44   39   40 1  
    45   40   41 1  
    46    2   42 1  
    47    3   43 1  
    48    8   44 1  
    49    9   45 1  
    50   11   46 1  
    51   14   47 1  
    52   14   48 1  
    53   14   49 1  
    54   15   50 1  
    55   16   51 1  
    56   20   52 1  
    57   23   53 1  
    58   24   54 1  
    59   26   55 1  
    60   28   56 1  
    61   29   57 1  
    62   30   58 1  
    63   31   59 1  
    64   32   60 1  
    65   33   61 1  
    66   35   62 1  
    67   36   63 1  
    68   38   64 1  
    69   38   65 1  
    70   39   66 1  
    71   39   67 1  
    72   40   68 1  
    73   40   69 1  
    74   41   70 1  
    75   41   71 1  
    76   41   72 1  
@<TRIPOS>SUBSTRUCTURE
     1 662         1

