### 
### Created by X-TOOL on Mon Sep 10 21:13:04 2018
### 

@<TRIPOS>MOLECULE
3nww_ligand
   69    71     1     0     0
SMALL
GAST_HUCK


@<TRIPOS>ATOM
      1 C1         -3.5610    0.9220   20.4690 C.ar      1 3NW        -0.0232
      2 C2         -2.9290    1.0440   21.7220 C.ar      1 3NW         0.0441
      3 N3         -2.3930    2.2650   22.1030 N.ar      1 3NW        -0.2692
      4 C4         -2.4350    3.3690   21.3390 C.ar      1 3NW         0.1728
      5 N5         -3.0350    3.2950   20.1230 N.ar      1 3NW        -0.2665
      6 C6         -3.6000    2.0940   19.6720 C.ar      1 3NW         0.0399
      7 C7         -2.8040   -0.0900   22.6800 C.2       1 3NW         0.0632
      8 C8         -2.9980   -1.4720   22.4390 C.2       1 3NW        -0.0137
      9 N9         -2.7800   -2.1540   23.5930 N.2       1 3NW        -0.2995
     10 C10        -2.4390   -1.4080   24.6770 C.2       1 3NW         0.1918
     11 S11        -2.3740    0.2510   24.2800 S.3       1 3NW         0.0276
     12 N12        -2.1680   -1.9840   26.0040 N.pl3     1 3NW        -0.2761
     13 C13        -1.7040   -1.1800   27.1570 C.3       1 3NW         0.0407
     14 C14        -0.2040   -0.9250   27.0220 C.3       1 3NW        -0.0411
     15 C15        -1.8580   -1.9620   28.4510 C.3       1 3NW        -0.0411
     16 N16        -1.8650    4.5080   21.8410 N.pl3     1 3NW        -0.2871
     17 C17        -5.5950    1.6950   15.7160 C.ar      1 3NW        -0.0651
     18 C18        -4.2660    1.9650   18.3460 C.ar      1 3NW         0.0053
     19 C19        -3.5930    2.3120   17.0990 C.ar      1 3NW        -0.0065
     20 C20        -4.2380    2.1850   15.7950 C.ar      1 3NW        -0.0536
     21 C21        -6.2670    1.3480   16.9470 C.ar      1 3NW        -0.0644
     22 C22        -5.6540    1.4650   18.2370 C.ar      1 3NW        -0.0547
     23 C23        -2.1790    2.8320   17.0650 C.3       1 3NW         0.0679
     24 C24         1.9670    5.9860   22.1270 C.3       1 3NW        -0.0433
     25 N25         0.5030    6.1880   22.0070 N.4       1 3NW         0.2323
     26 C26        -0.1610    5.6690   23.2220 C.3       1 3NW        -0.0115
     27 C27        -0.8590    4.3590   22.9080 C.3       1 3NW         0.0704
     28 C28         0.1930    7.6240   21.9340 C.3       1 3NW        -0.0433
     29 N29        -1.9550    3.6490   15.8730 N.am      1 3NW        -0.2609
     30 C30        -0.7820    3.5740   15.1960 C.2       1 3NW         0.2594
     31 N31        -0.6810    4.4670   14.1920 N.am      1 3NW        -0.2733
     32 O32         0.0990    2.7670   15.4760 O.2       1 3NW        -0.4007
     33 C33         0.5320    4.4640   13.3650 C.3       1 3NW         0.0284
     34 C34         0.1160    4.3180   11.8940 C.3       1 3NW        -0.0451
     35 H1         -3.9927   -0.0140   20.1334 H         1 3NW         0.0607
     36 H2         -3.2765   -1.9154   21.4842 H         1 3NW         0.0678
     37 H3         -2.3080   -2.9958   26.1368 H         1 3NW         0.1940
     38 H4         -2.2630   -0.2338   27.2041 H         1 3NW         0.0564
     39 H5          0.1448   -0.3276   27.8773 H         1 3NW         0.0253
     40 H6         -0.0076   -0.3778   26.0882 H         1 3NW         0.0253
     41 H7          0.3311   -1.8859   27.0034 H         1 3NW         0.0253
     42 H8         -1.5083   -1.3482   29.2942 H         1 3NW         0.0253
     43 H9         -1.2602   -2.8837   28.3958 H         1 3NW         0.0253
     44 H10        -2.9169   -2.2200   28.5997 H         1 3NW         0.0253
     45 H11        -2.1301    5.4375   21.4852 H         1 3NW         0.1860
     46 H12        -6.0949    1.5907   14.7598 H         1 3NW         0.0627
     47 H13        -3.7024    2.4565   14.8925 H         1 3NW         0.0566
     48 H14        -7.2855    0.9809   16.8921 H         1 3NW         0.0570
     49 H15        -6.2048    1.1884   19.1287 H         1 3NW         0.0635
     50 H16        -1.4819    1.9812   17.0553 H         1 3NW         0.0694
     51 H17        -1.9981    3.4440   17.9609 H         1 3NW         0.0694
     52 H18         2.4653    6.3708   21.2250 H         1 3NW         0.0777
     53 H19         2.1814    4.9125   22.2347 H         1 3NW         0.0777
     54 H20         2.3403    6.5249   23.0103 H         1 3NW         0.0777
     55 H21         0.1587    5.7139   21.1868 H         1 3NW         0.2028
     56 H22        -0.9018    6.4018   23.5744 H         1 3NW         0.0835
     57 H23         0.5919    5.5024   24.0065 H         1 3NW         0.0835
     58 H24        -0.1062    3.6246   22.5856 H         1 3NW         0.0577
     59 H25        -1.3587    3.9964   23.8184 H         1 3NW         0.0577
     60 H26         0.6681    8.0567   21.0412 H         1 3NW         0.0777
     61 H27         0.5758    8.1280   22.8337 H         1 3NW         0.0777
     62 H28        -0.8967    7.7612   21.8724 H         1 3NW         0.0777
     63 H29        -2.6727    4.2682   15.5543 H         1 3NW         0.1874
     64 H30        -1.4179    5.1191   14.0137 H         1 3NW         0.1845
     65 H31         1.1766    3.6208   13.6541 H         1 3NW         0.0514
     66 H32         1.0789    5.4082   13.5043 H         1 3NW         0.0514
     67 H33         1.0134    4.3137   11.2579 H         1 3NW         0.0249
     68 H34        -0.5305    5.1615   11.6103 H         1 3NW         0.0249
     69 H35        -0.4328    3.3741   11.7601 H         1 3NW         0.0249
@<TRIPOS>BOND
     1    2    1 ar 
     2    6    1 ar 
     3    3    2 ar 
     4    2    7 1  
     5    4    3 ar 
     6    4    5 ar 
     7   16    4 1  
     8    5    6 ar 
     9    6   18 1  
    10    7    8 2  
    11    7   11 1  
    12    8    9 1  
    13   10    9 2  
    14   11   10 1  
    15   10   12 1  
    16   12   13 1  
    17   13   14 1  
    18   13   15 1  
    19   27   16 1  
    20   20   17 ar 
    21   21   17 ar 
    22   18   19 ar 
    23   18   22 ar 
    24   19   20 ar 
    25   19   23 1  
    26   22   21 ar 
    27   23   29 1  
    28   25   24 1  
    29   26   25 1  
    30   25   28 1  
    31   26   27 1  
    32   29   30 am 
    33   30   31 am 
    34   30   32 2  
    35   31   33 1  
    36   33   34 1  
    37    1   35 1  
    38    8   36 1  
    39   12   37 1  
    40   13   38 1  
    41   14   39 1  
    42   14   40 1  
    43   14   41 1  
    44   15   42 1  
    45   15   43 1  
    46   15   44 1  
    47   16   45 1  
    48   17   46 1  
    49   20   47 1  
    50   21   48 1  
    51   22   49 1  
    52   23   50 1  
    53   23   51 1  
    54   24   52 1  
    55   24   53 1  
    56   24   54 1  
    57   25   55 1  
    58   26   56 1  
    59   26   57 1  
    60   27   58 1  
    61   27   59 1  
    62   28   60 1  
    63   28   61 1  
    64   28   62 1  
    65   29   63 1  
    66   31   64 1  
    67   33   65 1  
    68   33   66 1  
    69   34   67 1  
    70   34   68 1  
    71   34   69 1  
@<TRIPOS>SUBSTRUCTURE
     1 3NW         1

