### 
### Created by X-TOOL on Mon Sep 10 21:13:02 2018
### 

@<TRIPOS>MOLECULE
3nx7_ligand
   36    36     1     0     0
SMALL
GAST_HUCK


@<TRIPOS>ATOM
      1 O4         -0.2430   -5.7120   -5.3860 O.2       1 NHK        -0.1514
      2 S1         -1.4900   -6.1600   -4.8000 S.o2      1 NHK         0.0677
      3 O3         -1.4100   -7.5380   -4.3830 O.2       1 NHK        -0.1514
      4 N2         -1.8370   -5.2410   -3.5980 N.am      1 NHK        -0.2143
      5 C10        -1.2680   -3.8930   -3.4700 C.3       1 NHK         0.1203
      6 C9         -2.2030   -2.9050   -4.1410 C.2       1 NHK         0.2177
      7 O1         -3.3770   -2.8350   -3.8030 O.2       1 NHK        -0.3952
      8 N1         -1.6850   -2.1590   -5.1280 N.am      1 NHK        -0.1629
      9 O2         -2.4920   -1.2610   -5.8170 O.3       1 NHK        -0.2717
     10 C8         -2.8340   -5.7010   -2.6370 C.3       1 NHK         0.0552
     11 C6         -2.4700   -5.2410   -1.2260 C.3       1 NHK         0.0614
     12 O6         -1.2690   -5.8930   -0.7980 O.3       1 NHK        -0.3934
     13 C3         -2.6440   -6.0560   -5.9100 C.ar      1 NHK         0.0973
     14 C5         -2.4930   -5.1620   -6.9740 C.ar      1 NHK        -0.0440
     15 C7         -3.4650   -5.0800   -7.9640 C.ar      1 NHK        -0.0313
     16 C4         -4.6030   -5.8860   -7.9030 C.ar      1 NHK         0.0908
     17 C2         -4.7570   -6.7880   -6.8420 C.ar      1 NHK        -0.0313
     18 C1         -3.7760   -6.8890   -5.8520 C.ar      1 NHK        -0.0440
     19 O5         -5.5270   -5.7660   -8.9160 O.3       1 NHK        -0.3212
     20 C11        -6.5950   -6.6760   -9.1820 C.3       1 NHK         0.0594
     21 H1         -0.2824   -3.8594   -3.9572 H         1 NHK         0.0719
     22 H2         -1.1600   -3.6363   -2.4059 H         1 NHK         0.0719
     23 H3         -0.7184   -2.2488   -5.3682 H         1 NHK         0.2217
     24 H4         -1.9755   -0.8158   -6.4784 H         1 NHK         0.2490
     25 H5         -2.8782   -6.7999   -2.6593 H         1 NHK         0.0502
     26 H6         -3.8167   -5.2889   -2.9097 H         1 NHK         0.0502
     27 H7         -3.2888   -5.4946   -0.5366 H         1 NHK         0.0573
     28 H8         -2.3143   -4.1521   -1.2256 H         1 NHK         0.0573
     29 H9         -1.0480   -5.6031    0.0793 H         1 NHK         0.2095
     30 H10        -1.6139   -4.5299   -7.0272 H         1 NHK         0.0608
     31 H11        -3.3387   -4.3867   -8.7876 H         1 NHK         0.0542
     32 H12        -5.6424   -7.4112   -6.7888 H         1 NHK         0.0542
     33 H13        -3.8866   -7.6043   -5.0450 H         1 NHK         0.0608
     34 H14        -7.1692   -6.3233  -10.0514 H         1 NHK         0.0577
     35 H15        -7.2559   -6.7323   -8.3045 H         1 NHK         0.0577
     36 H16        -6.1826   -7.6732   -9.3950 H         1 NHK         0.0577
@<TRIPOS>BOND
     1    1    2 2  
     2    2    3 2  
     3    2    4 am 
     4    2   13 1  
     5    4    5 1  
     6    4   10 1  
     7    5    6 1  
     8    6    7 2  
     9    6    8 am 
    10    8    9 1  
    11   10   11 1  
    12   11   12 1  
    13   13   14 ar 
    14   13   18 ar 
    15   14   15 ar 
    16   15   16 ar 
    17   16   17 ar 
    18   16   19 1  
    19   17   18 ar 
    20   19   20 1  
    21    5   21 1  
    22    5   22 1  
    23    8   23 1  
    24    9   24 1  
    25   10   25 1  
    26   10   26 1  
    27   11   27 1  
    28   11   28 1  
    29   12   29 1  
    30   14   30 1  
    31   15   31 1  
    32   17   32 1  
    33   18   33 1  
    34   20   34 1  
    35   20   35 1  
    36   20   36 1  
@<TRIPOS>SUBSTRUCTURE
     1 NHK         1

