### 
### Created by X-TOOL on Fri Sep 26 17:34:47 2014
### 

@<TRIPOS>MOLECULE
3ny3_ligand
   77    77     1     0     0
SMALL
GAST_HUCK


@<TRIPOS>ATOM
      1 N          13.1660    1.5290   10.2310 N.4       1 ARG         0.2379
      2 CA         13.6500    1.5720    8.8240 C.3       1 ARG         0.0651
      3 C          15.0400    0.9440    8.7430 C.2       1 ARG         0.2267
      4 O          15.7330    0.8040    9.7520 O.2       1 ARG        -0.3907
      5 CB         13.7020    3.0220    8.3050 C.3       1 ARG         0.0110
      6 CG         12.4100    3.8370    8.4930 C.3       1 ARG        -0.0125
      7 CD         11.2850    3.3270    7.5930 C.3       1 ARG         0.0629
      8 NE         10.1960    4.3020    7.5090 N.pl3     1 ARG        -0.2723
      9 CZ          9.3080    4.5430    8.4710 C.cat     1 ARG         0.2882
     10 NH1         9.3320    3.8780    9.6280 N.pl3     1 ARG        -0.2849
     11 NH2         8.3790    5.4790    8.2750 N.pl3     1 ARG        -0.2849
     12 N          15.4530    0.5790    7.5310 N.am      1 ARG        -0.2608
     13 CA         16.8030    0.0570    7.3130 C.3       1 ARG         0.1336
     14 C          17.8360    1.0770    7.8080 C.2       1 ARG         0.2043
     15 O          17.5560    2.2770    7.8240 O.2       1 ARG        -0.3944
     16 CB         17.0210   -0.3340    5.8310 C.3       1 ARG        -0.0037
     17 CG1        16.0670   -1.4800    5.4480 C.3       1 ARG        -0.0491
     18 CG2        18.4790   -0.7290    5.5770 C.3       1 ARG        -0.0582
     19 CD1        16.2510   -2.0470    4.0230 C.3       1 ARG        -0.0648
     20 N          19.0080    0.5980    8.2420 N.am      1 ARG        -0.2619
     21 CA         20.0520    1.4820    8.7690 C.3       1 ARG         0.1404
     22 C          20.3160    2.6730    7.8480 C.2       1 ARG         0.2055
     23 O          20.5140    2.5060    6.6470 O.2       1 ARG        -0.3942
     24 CB         21.3530    0.7170    9.0170 C.3       1 ARG         0.0214
     25 CG         22.4110    1.5340    9.7130 C.ar      1 ARG        -0.0386
     26 CD1        23.6140    1.8190    9.0750 C.ar      1 ARG        -0.0601
     27 CD2        22.1940    2.0340   11.0030 C.ar      1 ARG        -0.0601
     28 CE1        24.5940    2.5820    9.7110 C.ar      1 ARG        -0.0686
     29 CE2        23.1710    2.8060   11.6510 C.ar      1 ARG        -0.0686
     30 CZ         24.3780    3.0730   10.9970 C.ar      1 ARG        -0.0687
     31 N          20.3110    3.8670    8.4290 N.am      1 ARG        -0.2671
     32 CA         20.5030    5.0850    7.6550 C.3       1 ARG         0.1173
     33 C          21.5540    5.9640    8.3170 C.2       1 ARG         0.0623
     34 O          21.9700    7.0092    7.7496 O.co2     1 ARG        -0.5665
     35 CB         19.1800    5.8430    7.5220 C.3       1 ARG         0.0789
     36 OG         18.7520    6.3350    8.7820 O.3       1 ARG        -0.3910
     37 O          22.0135    5.6430    9.4455 O.co2     1 ARG        -0.5665
     38 H1         12.2487    1.9436   10.2836 H         1 ARG         0.2015
     39 H2         13.8014    2.0432   10.8208 H         1 ARG         0.2015
     40 H3         13.1200    0.5711   10.5414 H         1 ARG         0.2015
     41 H4         12.9581    0.9949    8.1929 H         1 ARG         0.1098
     42 H5         13.9292    2.9895    7.2292 H         1 ARG         0.0347
     43 H6         14.5124    3.5435    8.8354 H         1 ARG         0.0347
     44 H7         12.6135    4.8898    8.2476 H         1 ARG         0.0302
     45 H8         12.0895    3.7604    9.5425 H         1 ARG         0.0302
     46 H9         10.8935    2.3854    8.0054 H         1 ARG         0.0689
     47 H10        11.6851    3.1472    6.5843 H         1 ARG         0.0689
     48 H11        10.1103    4.8439    6.6373 H         1 ARG         0.2642
     49 H12         8.6326    4.0847   10.3554 H         1 ARG         0.2615
     50 H13        10.0499    3.1582    9.7935 H         1 ARG         0.2615
     51 H14         8.3509    5.9985    7.3861 H         1 ARG         0.2615
     52 H15         7.6894    5.6826    9.0125 H         1 ARG         0.2615
     53 H16        14.8286    0.6631    6.7544 H         1 ARG         0.1885
     54 H17        16.9166   -0.8561    7.9157 H         1 ARG         0.0803
     55 H18        16.7868    0.5383    5.2031 H         1 ARG         0.0345
     56 H19        15.0360   -1.1064    5.5340 H         1 ARG         0.0267
     57 H20        16.2200   -2.3021    6.1627 H         1 ARG         0.0267
     58 H21        19.1391    0.1049    5.8580 H         1 ARG         0.0235
     59 H22        18.6155   -0.9613    4.5105 H         1 ARG         0.0235
     60 H23        18.7295   -1.6142    6.1801 H         1 ARG         0.0235
     61 H24        15.5246   -2.8554    3.8535 H         1 ARG         0.0230
     62 H25        17.2717   -2.4426    3.9147 H         1 ARG         0.0230
     63 H26        16.0877   -1.2469    3.2861 H         1 ARG         0.0230
     64 H27        19.1756   -0.3872    8.2059 H         1 ARG         0.1885
     65 H28        19.6990    1.8742    9.7342 H         1 ARG         0.0823
     66 H29        21.7519    0.3858    8.0468 H         1 ARG         0.0474
     67 H30        21.1266   -0.1612    9.6395 H         1 ARG         0.0474
     68 H31        23.7919    1.4444    8.0734 H         1 ARG         0.0557
     69 H32        21.2586    1.8219   11.5081 H         1 ARG         0.0557
     70 H33        25.5275    2.7937    9.2023 H         1 ARG         0.0599
     71 H34        22.9917    3.1913   12.6482 H         1 ARG         0.0599
     72 H35        25.1441    3.6608   11.4896 H         1 ARG         0.0559
     73 H36        20.1727    3.9308    9.4173 H         1 ARG         0.1876
     74 H37        20.8546    4.8122    6.6490 H         1 ARG         0.0749
     75 H38        18.4137    5.1632    7.1212 H         1 ARG         0.0599
     76 H39        19.3168    6.6889    6.8322 H         1 ARG         0.0599
     77 H40        17.9309    6.8011    8.6764 H         1 ARG         0.2096
@<TRIPOS>BOND
     1    1    2 1  
     2    2    3 1  
     3    2    5 1  
     4    3    4 2  
     5    3   12 am 
     6    5    6 1  
     7    6    7 1  
     8    7    8 1  
     9    8    9 ar 
    10    9   10 ar 
    11    9   11 ar 
    12   12   13 1  
    13   13   14 1  
    14   13   16 1  
    15   14   15 2  
    16   14   20 am 
    17   16   17 1  
    18   16   18 1  
    19   17   19 1  
    20   20   21 1  
    21   21   22 1  
    22   21   24 1  
    23   22   23 2  
    24   22   31 am 
    25   24   25 1  
    26   25   26 ar 
    27   25   27 ar 
    28   26   28 ar 
    29   27   29 ar 
    30   28   30 ar 
    31   29   30 ar 
    32   31   32 1  
    33   32   33 1  
    34   32   35 1  
    35   33   34 ar 
    36   35   36 1  
    37   33   37 ar 
    38    1   38 1  
    39    1   39 1  
    40    1   40 1  
    41    2   41 1  
    42    5   42 1  
    43    5   43 1  
    44    6   44 1  
    45    6   45 1  
    46    7   46 1  
    47    7   47 1  
    48    8   48 1  
    49   10   49 1  
    50   10   50 1  
    51   11   51 1  
    52   11   52 1  
    53   12   53 1  
    54   13   54 1  
    55   16   55 1  
    56   17   56 1  
    57   17   57 1  
    58   18   58 1  
    59   18   59 1  
    60   18   60 1  
    61   19   61 1  
    62   19   62 1  
    63   19   63 1  
    64   20   64 1  
    65   21   65 1  
    66   24   66 1  
    67   24   67 1  
    68   26   68 1  
    69   27   69 1  
    70   28   70 1  
    71   29   71 1  
    72   30   72 1  
    73   31   73 1  
    74   32   74 1  
    75   35   75 1  
    76   35   76 1  
    77   36   77 1  
@<TRIPOS>SUBSTRUCTURE
     1 ARG         1

