### 
### Created by X-TOOL on Mon Sep 10 21:13:05 2018
### 

@<TRIPOS>MOLECULE
3nyd_ligand
   16    17     1     0     0
SMALL
GAST_HUCK


@<TRIPOS>ATOM
      1 N1         22.1600   -1.3570  -24.1310 N.2       1 3NY        -0.1957
      2 N2         20.8260   -1.8360  -24.0050 N.2       1 3NY        -0.0740
      3 N3         20.6990   -2.3180  -22.7250 N.pl3     1 3NY        -0.1718
      4 C4         22.2870   -2.6210  -20.9120 C.ar      1 3NY         0.0118
      5 C5         23.6020   -2.4230  -20.4580 C.ar      1 3NY         0.1918
      6 C6         24.5230   -1.7750  -21.2870 C.ar      1 3NY        -0.0290
      7 C7         24.1340   -1.3690  -22.5550 C.ar      1 3NY        -0.0439
      8 O11        25.0880   -2.4190  -18.7300 O.2       1 3NY         0.1770
      9 O21        23.2360   -3.3950  -18.3970 O.2       1 3NY         0.1770
     10 C3A        21.8820   -2.2070  -22.1640 C.ar      1 3NY         0.1196
     11 C7A        22.8380   -1.6360  -23.0270 C.ar      1 3NY         0.0807
     12 NO1        24.0060   -2.7790  -19.1510 N.2       1 3NY         0.3111
     13 H1         19.8439   -2.6930  -22.2901 H         1 3NY         0.2592
     14 H2         21.5722   -3.1118  -20.2615 H         1 3NY         0.0651
     15 H3         25.5338   -1.5913  -20.9412 H         1 3NY         0.0604
     16 H4         24.8372   -0.8403  -23.1883 H         1 3NY         0.0606
@<TRIPOS>BOND
     1    2    1 2  
     2    1   11 1  
     3    3    2 1  
     4   10    3 1  
     5    4    5 ar 
     6    4   10 ar 
     7    5    6 ar 
     8    5   12 1  
     9    6    7 ar 
    10    7   11 ar 
    11   12    8 2  
    12   12    9 2  
    13   10   11 ar 
    14    3   13 1  
    15    4   14 1  
    16    6   15 1  
    17    7   16 1  
@<TRIPOS>SUBSTRUCTURE
     1 3NY         1

