### 
### Created by X-TOOL on Mon Sep 10 21:13:04 2018
### 

@<TRIPOS>MOLECULE
3nyn_ligand
   37    39     1     0     0
SMALL
GAST_HUCK


@<TRIPOS>ATOM
      1 N1        -71.0400   17.4850   19.2790 N.ar      1 SGV        -0.2725
      2 C2        -70.8730   16.1870   19.6080 C.ar      1 SGV         0.0509
      3 N3        -71.7270   15.5070   20.4030 N.ar      1 SGV        -0.2753
      4 C4        -72.8280   16.1000   20.9250 C.ar      1 SGV         0.1457
      5 C5        -73.0750   17.5150   20.6080 C.ar      1 SGV         0.0626
      6 C6        -72.0930   18.1970   19.7300 C.ar      1 SGV         0.1181
      7 N6        -72.2190   19.4890   19.3770 N.pl3     1 SGV        -0.3158
      8 C7        -74.3250   17.7920   21.3380 C.2       1 SGV         0.0597
      9 C8        -74.7050   16.6360   21.9800 C.2       1 SGV         0.0581
     10 N9        -73.8140   15.6580   21.7210 N.pl3     1 SGV        -0.2133
     11 C1'       -73.8830   14.2680   22.2410 C.3       1 SGV         0.1986
     12 C10       -74.9420   19.1440   21.2910 C.2       1 SGV         0.1783
     13 N11       -76.2630   19.2410   21.3460 N.am      1 SGV        -0.3053
     14 O12       -74.2430   20.1360   21.2110 O.2       1 SGV        -0.4013
     15 C2'       -72.9320   14.1990   23.4170 C.3       1 SGV         0.1386
     16 O2'       -72.3830   12.8800   23.5330 O.3       1 SGV        -0.3836
     17 C3'       -73.8230   14.5680   24.5760 C.3       1 SGV         0.1146
     18 O3'       -73.3520   13.9840   25.7870 O.3       1 SGV        -0.3864
     19 C4'       -75.1980   14.0400   24.1790 C.3       1 SGV         0.1136
     20 O4'       -75.1820   13.9410   22.7520 O.3       1 SGV        -0.3368
     21 C5'       -76.3780   14.8950   24.6580 C.3       1 SGV         0.0730
     22 O5'       -75.9990   15.7710   25.7400 O.3       1 SGV        -0.3924
     23 H         -70.0046   15.6606   19.2119 H         1 SGV         0.0979
     24 H         -73.0113   20.0352   19.7153 H         1 SGV         0.1823
     25 H         -71.5223   19.9224   18.7711 H         1 SGV         0.1823
     26 H         -75.5923   16.5273   22.6037 H         1 SGV         0.1055
     27 H         -73.6430   13.5817   21.4289 H         1 SGV         0.0998
     28 H         -76.7085   20.1582   21.3214 H         1 SGV         0.1797
     29 H         -76.8339   18.3984   21.4129 H         1 SGV         0.1797
     30 H         -72.0635   14.8533   23.3413 H         1 SGV         0.0676
     31 H         -71.7824   12.8492   24.2813 H         1 SGV         0.2101
     32 H         -73.8447   15.6408   24.7677 H         1 SGV         0.0648
     33 H         -72.4633   14.2988   25.9683 H         1 SGV         0.2100
     34 H         -75.3629   13.0799   24.6681 H         1 SGV         0.0647
     35 H         -77.1623   14.2278   25.0155 H         1 SGV         0.0584
     36 H         -76.7185   15.5080   23.8235 H         1 SGV         0.0584
     37 H         -76.7601   16.2887   26.0127 H         1 SGV         0.2095
@<TRIPOS>BOND
     1    1    2 ar 
     2    1    6 ar 
     3    2    3 ar 
     4    3    4 ar 
     5    4    5 ar 
     6    4   10 1  
     7    5    6 ar 
     8    5    8 1  
     9    6    7 1  
    10    8    9 2  
    11    8   12 1  
    12    9   10 1  
    13   10   11 1  
    14   11   15 1  
    15   11   20 1  
    16   12   13 am 
    17   12   14 2  
    18   15   16 1  
    19   15   17 1  
    20   17   18 1  
    21   17   19 1  
    22   19   20 1  
    23   19   21 1  
    24   21   22 1  
    25    2   23 1  
    26    7   24 1  
    27    7   25 1  
    28    9   26 1  
    29   11   27 1  
    30   13   28 1  
    31   13   29 1  
    32   15   30 1  
    33   16   31 1  
    34   17   32 1  
    35   18   33 1  
    36   19   34 1  
    37   21   35 1  
    38   21   36 1  
    39   22   37 1  
@<TRIPOS>SUBSTRUCTURE
     1 SGV         1

