### 
### Created by X-TOOL on Mon Sep 10 21:13:04 2018
### 

@<TRIPOS>MOLECULE
3nyx_ligand
   34    37     1     0     0
SMALL
GAST_HUCK


@<TRIPOS>ATOM
      1 C1          6.7130   15.5810   22.2950 C.ar      1 TZ1        -0.0285
      2 N1          8.4000   14.1770   21.4400 N.ar      1 TZ1        -0.3081
      3 O1          7.2520    4.8380   22.4700 O.2       1 TZ1        -0.3755
      4 S1          5.8220   10.5790   21.9590 S.3       1 TZ1         0.0195
      5 CL1         4.8480   17.3300   23.2130 Cl        1 TZ1        -0.0669
      6 C2          7.1620   14.3140   21.9550 C.ar      1 TZ1         0.0399
      7 N2          7.4660    7.8470   19.5990 N.2       1 TZ1        -0.2737
      8 S2          6.7320    7.6540   22.0800 S.3       1 TZ1         0.0769
      9 C3          6.3300   13.2010   22.1230 C.ar      1 TZ1         0.0256
     10 N3          6.9340    9.1140   19.9450 N.2       1 TZ1        -0.2744
     11 S3          8.1610    2.1420   21.9830 S.3       1 TZ1        -0.0252
     12 C4          5.0410   13.3360   22.6410 C.ar      1 TZ1        -0.0455
     13 N4          7.8840    5.7220   20.5000 N.am      1 TZ1        -0.1962
     14 C5          4.5820   14.6020   22.9850 C.ar      1 TZ1        -0.0434
     15 C6          5.4230   15.7060   22.7930 C.ar      1 TZ1         0.0449
     16 C7          8.8840   12.9750   21.0920 C.ar      1 TZ1         0.0003
     17 C8          8.0970   11.8330   21.2380 C.ar      1 TZ1        -0.0181
     18 C9          6.8070   11.9430   21.7620 C.ar      1 TZ1         0.0679
     19 C10         6.5210    9.1490   21.2410 C.2       1 TZ1         0.1783
     20 C11         7.4070    6.9840   20.6430 C.2       1 TZ1         0.2176
     21 C12         7.7950    4.7380   21.3870 C.2       1 TZ1         0.2449
     22 C13         8.3910    3.4650   21.0150 C.2       1 TZ1         0.1077
     23 C14         9.0990    3.2510   19.9720 C.2       1 TZ1        -0.0543
     24 C15         9.4230    2.0040   19.9040 C.2       1 TZ1        -0.0663
     25 C16         9.0810    1.2200   20.9480 C.2       1 TZ1         0.0011
     26 H1          7.3509   16.4492   22.1754 H         1 TZ1         0.0634
     27 H2          4.4073   12.4665   22.7730 H         1 TZ1         0.0657
     28 H3          8.3494    5.5118   19.6402 H         1 TZ1         0.2383
     29 H4          3.5876   14.7333   23.3960 H         1 TZ1         0.0630
     30 H5          9.8897   12.8913   20.6962 H         1 TZ1         0.0835
     31 H6          8.4849   10.8638   20.9460 H         1 TZ1         0.0620
     32 H7          9.3866    4.0107   19.2467 H         1 TZ1         0.0516
     33 H8          9.9502    1.6010   19.0406 H         1 TZ1         0.0437
     34 H9          9.3566    0.1757   21.0873 H         1 TZ1         0.0802
@<TRIPOS>BOND
     1    6    1 ar 
     2    1   15 ar 
     3    6    2 ar 
     4   16    2 ar 
     5   21    3 2  
     6    4   18 1  
     7   19    4 1  
     8   15    5 1  
     9    9    6 ar 
    10    7   10 1  
    11   20    7 2  
    12    8   19 1  
    13   20    8 1  
    14    9   12 ar 
    15   18    9 ar 
    16   19   10 2  
    17   22   11 1  
    18   11   25 1  
    19   12   14 ar 
    20   13   20 1  
    21   21   13 am 
    22   14   15 ar 
    23   17   16 ar 
    24   18   17 ar 
    25   21   22 1  
    26   22   23 2  
    27   23   24 1  
    28   24   25 2  
    29    1   26 1  
    30   12   27 1  
    31   13   28 1  
    32   14   29 1  
    33   16   30 1  
    34   17   31 1  
    35   23   32 1  
    36   24   33 1  
    37   25   34 1  
@<TRIPOS>SUBSTRUCTURE
     1 TZ1         1

