### 
### Created by X-TOOL on Mon Sep 10 21:13:04 2018
### 

@<TRIPOS>MOLECULE
3nzc_ligand
   56    59     1     0     0
SMALL
GAST_HUCK


@<TRIPOS>ATOM
      1 N1         10.3390   -1.8500   13.0660 N.ar      1 D2O        -0.2391
      2 C2         10.6040   -2.6740   12.0590 C.ar      1 D2O         0.1600
      3 N3         11.5410   -2.3620   11.1990 N.ar      1 D2O        -0.2797
      4 C4         12.2380   -1.2480   11.3160 C.ar      1 D2O         0.0814
      5 C5         11.9870   -0.3660   12.3500 C.ar      1 D2O         0.0701
      6 C6         10.9840   -0.7140   13.2480 C.ar      1 D2O         0.1356
      7 CAA        18.4830    1.4460   12.0370 C.3       1 D2O         0.0554
      8 CAB        12.6480    1.8960   13.4090 C.3       1 D2O        -0.0216
      9 NAC         9.9350   -3.8000   11.8910 N.pl3     1 D2O        -0.3066
     10 NAD        10.6440    0.0190   14.2690 N.pl3     1 D2O        -0.3073
     11 CAE        15.9380    1.7570    2.1840 C.ar      1 D2O        -0.0687
     12 CAF        16.8320    1.7960    3.2410 C.ar      1 D2O        -0.0686
     13 CAG        14.8670    2.6410    2.1070 C.ar      1 D2O        -0.0686
     14 CAH        16.6220    2.7480    4.2300 C.ar      1 D2O        -0.0603
     15 CAI        14.6720    3.5790    3.0970 C.ar      1 D2O        -0.0603
     16 CAJ        17.6430    2.6430    8.5760 C.ar      1 D2O        -0.0484
     17 CAK        17.9140    2.1950    9.8500 C.ar      1 D2O        -0.0477
     18 CAL        13.8960    0.1100   10.4360 C.ar      1 D2O         0.0034
     19 CAM        15.3340    2.9190    9.1340 C.ar      1 D2O        -0.0382
     20 CAN        14.9620    4.0470    6.6390 C.3       1 D2O         0.0773
     21 CAO        15.3250    4.6790    5.2900 C.3       1 D2O         0.0084
     22 CAP        14.5290    2.3370   11.4900 C.3       1 D2O         0.0107
     23 NAQ        13.1730   -0.9940   10.4080 N.ar      1 D2O        -0.3039
     24 OAT        17.1070    1.6740   12.0150 O.3       1 D2O        -0.3318
     25 OAU        16.1730    3.4440    6.9720 O.3       1 D2O        -0.3248
     26 CAV        15.5480    3.6360    4.1670 C.ar      1 D2O        -0.0405
     27 CAW        16.3650    3.0170    8.2200 C.ar      1 D2O         0.0737
     28 CAY        13.7120    1.0570   11.4310 C.ar      1 D2O        -0.0032
     29 CAZ        15.6110    2.4430   10.4230 C.ar      1 D2O        -0.0123
     30 CBB        12.7560    0.8100   12.3840 C.ar      1 D2O        -0.0058
     31 CBC        16.8910    2.0980   10.7610 C.ar      1 D2O         0.0828
     32 H1         18.7795    1.0888   13.0342 H         1 D2O         0.0570
     33 H2         19.0135    2.3825   11.8103 H         1 D2O         0.0570
     34 H3         18.7410    0.6869   11.2839 H         1 D2O         0.0570
     35 H4         11.8672    1.6352   14.1386 H         1 D2O         0.0430
     36 H5         12.3857    2.8427   12.9140 H         1 D2O         0.0430
     37 H6         13.6116    2.0080   13.9275 H         1 D2O         0.0430
     38 H7          9.1943   -4.0632   12.5566 H         1 D2O         0.1838
     39 H8         10.1539   -4.4152   11.0944 H         1 D2O         0.1838
     40 H9         11.1248    0.9129   14.4441 H         1 D2O         0.1881
     41 H10         9.8942   -0.2950   14.9015 H         1 D2O         0.1881
     42 H11        16.0760    1.0216    1.3997 H         1 D2O         0.0559
     43 H12        17.6671    1.1070    3.2945 H         1 D2O         0.0599
     44 H13        14.1844    2.5918    1.2664 H         1 D2O         0.0599
     45 H14        17.3069    2.8022    5.0684 H         1 D2O         0.0557
     46 H15        13.8374    4.2683    3.0383 H         1 D2O         0.0557
     47 H16        18.4425    2.7020    7.8463 H         1 D2O         0.0459
     48 H17        18.9247    1.9217   10.1307 H         1 D2O         0.0496
     49 H18        14.6442    0.2783    9.6699 H         1 D2O         0.0817
     50 H19        14.3256    3.2060    8.8585 H         1 D2O         0.0456
     51 H20        14.1547    3.3069    6.5364 H         1 D2O         0.0632
     52 H21        14.6705    4.8076    7.3783 H         1 D2O         0.0632
     53 H22        16.2498    5.2615    5.4145 H         1 D2O         0.0452
     54 H23        14.5073    5.3494    4.9868 H         1 D2O         0.0452
     55 H24        15.0124    2.3914   12.4766 H         1 D2O         0.0540
     56 H25        13.8432    3.1887   11.3702 H         1 D2O         0.0540
@<TRIPOS>BOND
     1    2    1 ar 
     2    6    1 ar 
     3    3    2 ar 
     4    2    9 1  
     5    4    3 ar 
     6    4    5 ar 
     7   23    4 ar 
     8    5    6 ar 
     9    5   30 ar 
    10    6   10 1  
    11   24    7 1  
    12   30    8 1  
    13   12   11 ar 
    14   13   11 ar 
    15   14   12 ar 
    16   15   13 ar 
    17   26   14 ar 
    18   26   15 ar 
    19   16   17 ar 
    20   27   16 ar 
    21   17   31 ar 
    22   18   23 ar 
    23   28   18 ar 
    24   27   19 ar 
    25   19   29 ar 
    26   20   21 1  
    27   25   20 1  
    28   21   26 1  
    29   22   28 1  
    30   29   22 1  
    31   31   24 1  
    32   25   27 1  
    33   28   30 ar 
    34   29   31 ar 
    35    7   32 1  
    36    7   33 1  
    37    7   34 1  
    38    8   35 1  
    39    8   36 1  
    40    8   37 1  
    41    9   38 1  
    42    9   39 1  
    43   10   40 1  
    44   10   41 1  
    45   11   42 1  
    46   12   43 1  
    47   13   44 1  
    48   14   45 1  
    49   15   46 1  
    50   16   47 1  
    51   17   48 1  
    52   18   49 1  
    53   19   50 1  
    54   20   51 1  
    55   20   52 1  
    56   21   53 1  
    57   21   54 1  
    58   22   55 1  
    59   22   56 1  
@<TRIPOS>SUBSTRUCTURE
     1 D2O         1

