### 
### Created by X-TOOL on Mon Sep 10 21:13:05 2018
### 

@<TRIPOS>MOLECULE
3nzk_ligand
   60    62     1     0     0
SMALL
GAST_HUCK


@<TRIPOS>ATOM
      1 C5         -0.0910  -19.6980  -15.0970 C.3       1 C90         0.0027
      2 C6         -0.8190  -20.3800  -13.9420 C.ar      1 C90         0.0027
      3 C9         -2.1430  -21.6730  -11.7320 C.ar      1 C90         0.0201
      4 C10        -2.8030  -22.2980  -10.6540 C.1       1 C90        -0.0642
      5 O1          1.9730  -16.1540  -13.8630 O.3       1 C90        -0.3693
      6 C11        -3.3700  -22.8340   -9.7300 C.1       1 C90        -0.0613
      7 C12        -4.0440  -23.3770   -8.6020 C.ar      1 C90         0.0274
      8 C19        -8.7250  -23.7990   -3.1500 C.3       1 C90         0.0923
      9 C15        -5.4430  -24.3660   -6.2780 C.ar      1 C90         0.0491
     10 C16        -6.1670  -24.8220   -5.1310 C.2       1 C90         0.2064
     11 C18        -8.3590  -25.0610   -4.0190 C.3       1 C90         0.1576
     12 C21        -7.5580  -22.8590   -2.8100 C.3       1 C90        -0.0346
     13 C22        -9.5460  -25.8140   -4.6430 C.2       1 C90         0.2270
     14 CA1         1.8080  -16.4100  -15.2610 C.3       1 C90         0.0878
     15 CA2         0.7680  -16.4410  -13.1590 C.3       1 C90         0.0878
     16 CB1         1.4410  -17.9080  -15.4910 C.3       1 C90        -0.0064
     17 CB2         0.5330  -17.9510  -13.3100 C.3       1 C90        -0.0064
     18 N4          0.2410  -18.2770  -14.7240 N.4       1 C90         0.2507
     19 CC1        -0.1260  -21.3960  -13.1790 C.ar      1 C90        -0.0530
     20 CC2        -2.1800  -20.0090  -13.6020 C.ar      1 C90        -0.0530
     21 CD1        -0.7910  -22.0400  -12.0690 C.ar      1 C90        -0.0517
     22 CD2        -2.8450  -20.6600  -12.4900 C.ar      1 C90        -0.0517
     23 CE1        -5.4830  -23.3180   -8.5620 C.ar      1 C90        -0.0418
     24 CE2        -3.2920  -23.9150   -7.4930 C.ar      1 C90        -0.0418
     25 CF1        -6.1800  -23.8040   -7.4060 C.ar      1 C90        -0.0417
     26 CF         -3.9790  -24.4190   -6.3240 C.ar      1 C90        -0.0417
     27 O16        -5.5540  -25.2220   -4.1320 O.2       1 C90        -0.3851
     28 N17        -7.4790  -24.6370   -5.1200 N.am      1 C90        -0.2628
     29 O20        -9.6690  -23.0000   -3.8650 O.3       1 C90        -0.3874
     30 N23        -9.7130  -27.0510   -4.2510 N.am      1 C90        -0.1622
     31 O22       -10.4490  -25.1740   -5.1430 O.2       1 C90        -0.3943
     32 O24       -10.8340  -27.6990   -4.5260 O.3       1 C90        -0.2717
     33 H1         -0.7366  -19.7002  -15.9876 H         1 C90         0.0984
     34 H2          0.8382  -20.2444  -15.3163 H         1 C90         0.0984
     35 H3         -9.1718  -24.1547   -2.2099 H         1 C90         0.0639
     36 H4         -7.8166  -25.7650   -3.3708 H         1 C90         0.0825
     37 H5         -7.9285  -22.0188   -2.2044 H         1 C90         0.0257
     38 H6         -7.1149  -22.4733   -3.7400 H         1 C90         0.0257
     39 H7         -6.7952  -23.4119   -2.2422 H         1 C90         0.0257
     40 H8          2.7468  -16.1805  -15.7863 H         1 C90         0.0613
     41 H9          1.0022  -15.7733  -15.6550 H         1 C90         0.0613
     42 H10        -0.0713  -15.8791  -13.5947 H         1 C90         0.0613
     43 H11         0.8746  -16.1761  -12.0967 H         1 C90         0.0613
     44 H12         2.2826  -18.5388  -15.1689 H         1 C90         0.0837
     45 H13         1.2488  -18.0717  -16.5616 H         1 C90         0.0837
     46 H14        -0.3192  -18.2519  -12.6830 H         1 C90         0.0837
     47 H15         1.4341  -18.4942  -12.9892 H         1 C90         0.0837
     48 H16        -0.5374  -17.7036  -15.0092 H         1 C90         0.2050
     49 H17         0.8891  -21.6732  -13.4393 H         1 C90         0.0563
     50 H18        -2.6970  -19.2489  -14.1765 H         1 C90         0.0563
     51 H19        -0.2737  -22.7975  -11.4913 H         1 C90         0.0617
     52 H20        -3.8616  -20.3895  -12.2283 H         1 C90         0.0617
     53 H21        -6.0356  -22.9090   -9.4001 H         1 C90         0.0636
     54 H22        -2.2092  -23.9413   -7.5366 H         1 C90         0.0636
     55 H23        -7.2622  -23.7535   -7.3698 H         1 C90         0.0667
     56 H24        -3.4182  -24.8306   -5.4926 H         1 C90         0.0667
     57 H25        -7.8962  -24.1821   -5.9068 H         1 C90         0.1876
     58 H26       -10.4180  -23.5337   -4.1029 H         1 C90         0.2101
     59 H27        -8.9874  -27.5110   -3.7392 H         1 C90         0.2217
     60 H28       -10.7857  -28.5784   -4.1697 H         1 C90         0.2490
@<TRIPOS>BOND
     1    2    1 1  
     2    1   18 1  
     3   19    2 ar 
     4   20    2 ar 
     5    4    3 1  
     6    3   21 ar 
     7    3   22 ar 
     8    6    4 3  
     9   14    5 1  
    10   15    5 1  
    11    7    6 1  
    12   23    7 ar 
    13    7   24 ar 
    14   11    8 1  
    15    8   12 1  
    16    8   29 1  
    17    9   10 1  
    18   25    9 ar 
    19    9   26 ar 
    20   10   27 2  
    21   10   28 am 
    22   11   13 1  
    23   28   11 1  
    24   13   30 am 
    25   13   31 2  
    26   16   14 1  
    27   17   15 1  
    28   18   16 1  
    29   18   17 1  
    30   21   19 ar 
    31   22   20 ar 
    32   23   25 ar 
    33   24   26 ar 
    34   30   32 1  
    35    1   33 1  
    36    1   34 1  
    37    8   35 1  
    38   11   36 1  
    39   12   37 1  
    40   12   38 1  
    41   12   39 1  
    42   14   40 1  
    43   14   41 1  
    44   15   42 1  
    45   15   43 1  
    46   16   44 1  
    47   16   45 1  
    48   17   46 1  
    49   17   47 1  
    50   18   48 1  
    51   19   49 1  
    52   20   50 1  
    53   21   51 1  
    54   22   52 1  
    55   23   53 1  
    56   24   54 1  
    57   25   55 1  
    58   26   56 1  
    59   28   57 1  
    60   29   58 1  
    61   30   59 1  
    62   32   60 1  
@<TRIPOS>SUBSTRUCTURE
     1 C90         1

