### 
### Created by X-TOOL on Mon Sep 10 21:13:04 2018
### 

@<TRIPOS>MOLECULE
3nzs_ligand
   47    50     1     0     0
SMALL
GAST_HUCK


@<TRIPOS>ATOM
      1 C1         20.2290   13.3200   22.9300 C.ar      1 NZS         0.0714
      2 N1         22.5850   12.9710   23.0970 N.ar      1 NZS        -0.2609
      3 O1         22.0020   19.0400   21.2690 O.3       1 NZS        -0.3241
      4 S1         24.7480   13.3740   19.1170 S.o2      1 NZS        -0.0272
      5 C2         21.3180   12.6390   23.4360 C.ar      1 NZS         0.1452
      6 N2         21.7520   14.6770   21.7250 N.ar      1 NZS        -0.2479
      7 O2         26.1040   13.8030   18.9240 O.2       1 NZS        -0.1742
      8 C3         22.7980   13.9930   22.2410 C.ar      1 NZS         0.1614
      9 N3         19.3710   11.7730   24.2500 N.2       1 NZS        -0.2095
     10 O3         24.2840   12.6810   17.9470 O.2       1 NZS        -0.1742
     11 C4         20.4760   14.3700   22.0540 C.ar      1 NZS         0.1379
     12 N4         20.7790   11.7110   24.2300 N.pl3     1 NZS        -0.1942
     13 C5         18.9940   12.7870   23.4330 C.2       1 NZS         0.0220
     14 N5         19.4370   15.0680   21.5270 N.pl3     1 NZS        -0.2553
     15 C6         21.3750   10.6480   25.0770 C.3       1 NZS         0.0573
     16 N6         24.1190   14.3450   21.8870 N.pl3     1 NZS        -0.2782
     17 C7         19.4420   16.4260   21.4820 C.ar      1 NZS         0.0574
     18 C8         20.6500   17.1030   21.6100 C.ar      1 NZS        -0.0100
     19 C9         20.7970   18.4000   21.1360 C.ar      1 NZS         0.0816
     20 C10        19.7230   19.0400   20.5300 C.ar      1 NZS        -0.0443
     21 C11        18.5090   18.3750   20.4030 C.ar      1 NZS        -0.0794
     22 C12        18.3700   17.0750   20.8780 C.ar      1 NZS        -0.0485
     23 C13        22.2070   20.3170   20.6690 C.3       1 NZS         0.0591
     24 C14        24.9850   13.1640   21.6880 C.3       1 NZS         0.0527
     25 C15        24.6420   12.3710   20.4330 C.3       1 NZS         0.0864
     26 C16        23.7740   14.6820   19.4190 C.3       1 NZS         0.0864
     27 C17        24.1470   15.3060   20.7620 C.3       1 NZS         0.0527
     28 H          17.9814   13.1223   23.2084 H         1 NZS         0.0718
     29 H          18.6336   14.5606   21.1561 H         1 NZS         0.2194
     30 H          21.0847   10.8072   26.1155 H         1 NZS         0.0583
     31 H          21.0154    9.6748   24.7430 H         1 NZS         0.0583
     32 H          22.4611   10.6840   24.9924 H         1 NZS         0.0583
     33 H          21.4944   16.6080   22.0897 H         1 NZS         0.0458
     34 H          19.8318   20.0581   20.1562 H         1 NZS         0.0451
     35 H          17.6633   18.8738   19.9297 H         1 NZS         0.0562
     36 H          17.4142   16.5611   20.7762 H         1 NZS         0.0449
     37 H          22.0712   20.2363   19.5905 H         1 NZS         0.0577
     38 H          21.4870   21.0276   21.0750 H         1 NZS         0.0577
     39 H          23.2190   20.6600   20.8844 H         1 NZS         0.0577
     40 H          24.8443   12.5039   22.5439 H         1 NZS         0.0543
     41 H          26.0097   13.5204   21.5831 H         1 NZS         0.0543
     42 H          25.3391   11.5407   20.3202 H         1 NZS         0.0520
     43 H          23.6298   11.9746   20.5132 H         1 NZS         0.0520
     44 H          22.7339   14.3574   19.4490 H         1 NZS         0.0520
     45 H          23.9078   15.4209   18.6289 H         1 NZS         0.0520
     46 H          25.1667   15.6815   20.6770 H         1 NZS         0.0543
     47 H          23.4141   16.0837   20.9769 H         1 NZS         0.0543
@<TRIPOS>BOND
     1    5    1 ar 
     2   11    1 ar 
     3    1   13 1  
     4    2    5 ar 
     5    8    2 ar 
     6   19    3 1  
     7    3   23 1  
     8    4    7 2  
     9    4   10 2  
    10   25    4 1  
    11    4   26 1  
    12    5   12 1  
    13    8    6 ar 
    14    6   11 ar 
    15   16    8 1  
    16   12    9 1  
    17   13    9 2  
    18   11   14 1  
    19   12   15 1  
    20   14   17 1  
    21   24   16 1  
    22   16   27 1  
    23   17   18 ar 
    24   17   22 ar 
    25   18   19 ar 
    26   19   20 ar 
    27   21   20 ar 
    28   22   21 ar 
    29   24   25 1  
    30   26   27 1  
    31   13   28 1  
    32   14   29 1  
    33   15   30 1  
    34   15   31 1  
    35   15   32 1  
    36   18   33 1  
    37   20   34 1  
    38   21   35 1  
    39   22   36 1  
    40   23   37 1  
    41   23   38 1  
    42   23   39 1  
    43   24   40 1  
    44   24   41 1  
    45   25   42 1  
    46   25   43 1  
    47   26   44 1  
    48   26   45 1  
    49   27   46 1  
    50   27   47 1  
@<TRIPOS>SUBSTRUCTURE
     1 NZS         1

