### 
### Created by X-TOOL on Mon Sep 10 21:13:04 2018
### 

@<TRIPOS>MOLECULE
3nzu_ligand
   46    49     1     0     0
SMALL
GAST_HUCK


@<TRIPOS>ATOM
      1 C1         21.5420   11.5970   24.5420 C.3       1 NZU         0.0587
      2 N2         20.7140   12.6420   24.0130 N.pl3     1 NZU        -0.1878
      3 C3         21.0970   13.5410   23.1190 C.ar      1 NZU         0.1589
      4 C4         20.0210   14.3560   22.8790 C.ar      1 NZU         0.0783
      5 C5         18.9940   13.8830   23.6880 C.2       1 NZU         0.0296
      6 N6         19.4090   12.8700   24.3370 N.2       1 NZU        -0.2015
      7 C7         20.1750   15.3930   21.9680 C.ar      1 NZU         0.1271
      8 N8         21.3190   15.5330   21.3870 N.ar      1 NZU        -0.2644
      9 C9         22.2960   14.7290   21.6540 C.ar      1 NZU         0.0898
     10 N10        22.2030   13.7600   22.4870 N.ar      1 NZU        -0.2669
     11 C11        23.5600   14.9030   20.9700 C.ar      1 NZU         0.0091
     12 C12        23.6500   15.7670   19.9200 C.ar      1 NZU        -0.0569
     13 C13        24.8340   15.9310   19.2580 C.ar      1 NZU        -0.0645
     14 C14        25.9340   15.2300   19.6260 C.ar      1 NZU        -0.0307
     15 C15        25.8590   14.3430   20.6690 C.ar      1 NZU         0.0920
     16 C16        24.6720   14.1660   21.3510 C.ar      1 NZU         0.0222
     17 C17        24.9040   13.2200   22.3400 C.2       1 NZU         0.0240
     18 N18        26.1250   12.8470   22.2660 N.2       1 NZU        -0.2036
     19 N19        26.7500   13.5240   21.2470 N.pl3     1 NZU        -0.2113
     20 N21        19.1620   16.2590   21.6950 N.pl3     1 NZU        -0.2986
     21 C22        19.1910   17.1660   20.5620 C.3       1 NZU         0.0326
     22 C23        18.2690   18.3500   20.8660 C.3       1 NZU        -0.0127
     23 C24        19.0340   19.4770   21.5640 C.3       1 NZU         0.0673
     24 S25        18.1190   21.0380   21.6230 S.o2      1 NZU        -0.0337
     25 O26        17.2840   21.0390   22.7250 O.2       1 NZU        -0.1746
     26 O27        19.0020   22.1080   21.5060 O.2       1 NZU        -0.1746
     27 C28        17.1450   20.8970   20.1250 C.3       1 NZU         0.0544
     28 H          21.6166   11.7068   25.6239 H         1 NZU         0.0585
     29 H          21.1005   10.6294   24.3033 H         1 NZU         0.0585
     30 H          22.5359   11.6634   24.0994 H         1 NZU         0.0585
     31 H          17.9939   14.3111   23.7556 H         1 NZU         0.0736
     32 H          22.7716   16.3310   19.6062 H         1 NZU         0.0584
     33 H          24.8944   16.6324   18.4259 H         1 NZU         0.0592
     34 H          26.8752   15.3708   19.0946 H         1 NZU         0.0599
     35 H          24.1694   12.8564   23.0585 H         1 NZU         0.0719
     36 H          27.7278   13.4210   20.9755 H         1 NZU         0.2463
     37 H          18.3493   16.2715   22.3113 H         1 NZU         0.1879
     38 H          18.8519   16.6507   19.6633 H         1 NZU         0.0529
     39 H          20.2082   17.5195   20.3935 H         1 NZU         0.0529
     40 H          17.4697   18.0102   21.5246 H         1 NZU         0.0301
     41 H          17.8672   18.7300   19.9267 H         1 NZU         0.0301
     42 H          19.9484   19.6534   20.9975 H         1 NZU         0.0500
     43 H          19.2153   19.1634   22.5920 H         1 NZU         0.0500
     44 H          16.5768   19.9671   20.1488 H         1 NZU         0.0464
     45 H          16.4593   21.7417   20.0581 H         1 NZU         0.0464
     46 H          17.8086   20.8968   19.2603 H         1 NZU         0.0464
@<TRIPOS>BOND
     1    1    2 1  
     2    2    3 1  
     3    2    6 1  
     4    3    4 ar 
     5    3   10 ar 
     6    4    5 1  
     7    4    7 ar 
     8    5    6 2  
     9    7    8 ar 
    10    7   20 1  
    11    8    9 ar 
    12    9   10 ar 
    13    9   11 1  
    14   11   12 ar 
    15   11   16 ar 
    16   12   13 ar 
    17   13   14 ar 
    18   14   15 ar 
    19   15   16 ar 
    20   15   19 1  
    21   16   17 1  
    22   17   18 2  
    23   18   19 1  
    24   20   21 1  
    25   21   22 1  
    26   22   23 1  
    27   23   24 1  
    28   24   25 2  
    29   24   26 2  
    30   24   27 1  
    31    1   28 1  
    32    1   29 1  
    33    1   30 1  
    34    5   31 1  
    35   12   32 1  
    36   13   33 1  
    37   14   34 1  
    38   17   35 1  
    39   19   36 1  
    40   20   37 1  
    41   21   38 1  
    42   21   39 1  
    43   22   40 1  
    44   22   41 1  
    45   23   42 1  
    46   23   43 1  
    47   27   44 1  
    48   27   45 1  
    49   27   46 1  
@<TRIPOS>SUBSTRUCTURE
     1 NZU         1

