### 
### Created by X-TOOL on Mon Sep 10 21:13:07 2018
### 

@<TRIPOS>MOLECULE
3nzw_ligand
  102   106     1     0     0
SMALL
GAST_HUCK


@<TRIPOS>ATOM
      1 O1          8.3230 -137.9540   23.5500 O.2       1 BOC        -0.3774
      2 C           9.0550 -138.5490   24.3180 C.2       1 BOC         0.3224
      3 O2          8.6380 -139.4130   25.2930 O.3       1 BOC        -0.2580
      4 CT          7.2040 -139.7080   25.4780 C.3       1 BOC         0.0905
      5 C1          6.5720 -140.4300   24.2420 C.3       1 BOC        -0.0320
      6 C2          6.3710 -138.4280   25.8400 C.3       1 BOC        -0.0320
      7 C3          7.1760 -140.6950   26.6750 C.3       1 BOC        -0.0320
      8 O          10.8850 -139.2550   21.6380 O.2       1 TY5        -0.3942
      9 C          10.7200 -138.0610   21.9090 C.2       1 TY5         0.2057
     10 CA         11.1230 -137.5810   23.2970 C.3       1 TY5         0.1409
     11 N          10.4220 -138.4430   24.2920 N.am      1 TY5        -0.2396
     12 CB         12.6680 -137.6230   23.4650 C.3       1 TY5         0.0163
     13 CG         13.0690 -137.0560   24.8350 C.ar      1 TY5        -0.0493
     14 CD2        13.3600 -137.9170   25.9330 C.ar      1 TY5        -0.0685
     15 CE2        13.7300 -137.3730   27.1860 C.ar      1 TY5        -0.0393
     16 CZ         13.8160 -135.9480   27.3670 C.ar      1 TY5         0.0868
     17 CE1        13.5220 -135.1000   26.2670 C.ar      1 TY5        -0.0393
     18 CD1        13.1530 -135.6460   25.0130 C.ar      1 TY5        -0.0685
     19 OH         14.1890 -135.3260   28.5780 O.3       1 TY5        -0.3099
     20 C49        14.5940 -136.0290   29.7750 C.3       1 TY5         0.1028
     21 C50        16.0280 -136.6120   29.7020 C.ar      1 TY5        -0.0131
     22 C51        17.0750 -135.8740   29.0820 C.ar      1 TY5        -0.0578
     23 C52        18.3880 -136.4130   29.0160 C.ar      1 TY5        -0.0685
     24 C53        18.6610 -137.6990   29.5730 C.ar      1 TY5        -0.0687
     25 C54        17.6160 -138.4420   30.1940 C.ar      1 TY5        -0.0685
     26 C55        16.3050 -137.8990   30.2580 C.ar      1 TY5        -0.0578
     27 N          10.1630 -137.1400   21.0630 N.am      1 ALA        -0.2639
     28 CA          9.6850 -137.4780   19.7260 C.3       1 ALA         0.1282
     29 C          10.7250 -137.2500   18.6720 C.2       1 ALA         0.2036
     30 O          11.4350 -136.2590   18.7100 O.2       1 ALA        -0.3944
     31 CB          8.4080 -136.6520   19.4380 C.3       1 ALA        -0.0244
     32 N          10.8470 -138.2560   17.5690 N.am      1 RE0        -0.2648
     33 CA         11.6670 -137.9390   16.4140 C.3       1 RE0         0.1231
     34 CB         12.7060 -139.0390   16.0490 C.3       1 RE0        -0.0104
     35 CG         13.6720 -139.5790   17.1600 C.3       1 RE0         0.1317
     36 OG         14.5860 -140.4880   16.5600 O.3       1 RE0        -0.4345
     37 CD1        12.9890 -140.4470   18.2120 C.2       1 RE0         0.2350
     38 OD1        12.2790 -141.4150   17.9490 O.2       1 RE0        -0.3172
     39 NE1        13.2960 -139.9980   19.4400 N.am      1 RE0        -0.2182
     40 CE2        14.1320 -138.8910   19.3480 C.ar      1 RE0         0.0959
     41 CZ2        14.6390 -138.1680   20.4470 C.ar      1 RE0        -0.0097
     42 CH2        15.4730 -137.0620   20.1540 C.ar      1 RE0        -0.0475
     43 CZ3        15.7620 -136.7100   18.7950 C.ar      1 RE0        -0.0485
     44 CE3        15.2360 -137.4540   17.7040 C.ar      1 RE0        -0.0532
     45 CD2        14.4050 -138.5500   18.0150 C.ar      1 RE0        -0.0018
     46 C          10.7770 -137.6610   15.2030 C.2       1 RE0         0.2024
     47 O           9.6870 -138.2160   15.1740 O.2       1 RE0        -0.3944
     48 N          11.2080 -136.8260   14.1990 N.am      1 ABN        -0.2737
     49 C          10.3730 -136.5530   12.9980 C.3       1 ABN         0.0645
     50 C1          9.6260 -135.2050   13.1480 C.ar      1 ABN        -0.0210
     51 C2          8.4800 -135.1070   13.9820 C.ar      1 ABN        -0.0584
     52 C3          7.7940 -133.8600   14.1170 C.ar      1 ABN        -0.0685
     53 C4          8.2520 -132.7140   13.4150 C.ar      1 ABN        -0.0687
     54 C5          9.3950 -132.8120   12.5800 C.ar      1 ABN        -0.0685
     55 C6         10.0800 -134.0540   12.4470 C.ar      1 ABN        -0.0584
     56 H1          5.5067 -140.6238   24.4358 H         1 BOC         0.0260
     57 H2          7.0925 -141.3834   24.0686 H         1 BOC         0.0260
     58 H3          6.6724 -139.7903   23.3528 H         1 BOC         0.0260
     59 H4          5.3133 -138.7025   25.9665 H         1 BOC         0.0260
     60 H5          6.4637 -137.6891   25.0304 H         1 BOC         0.0260
     61 H6          6.7520 -137.9953   26.7768 H         1 BOC         0.0260
     62 H7          6.1355 -140.9778   26.8928 H         1 BOC         0.0260
     63 H8          7.6173 -140.2118   27.5591 H         1 BOC         0.0260
     64 H9          7.7552 -141.5952   26.4216 H         1 BOC         0.0260
     65 H10        10.7903 -136.5411   23.4306 H         1 TY5         0.0820
     66 H11        10.9630 -138.9571   24.9576 H         1 TY5         0.1901
     67 H12        13.1361 -137.0215   22.6719 H         1 TY5         0.0452
     68 H13        13.0136 -138.6644   23.3877 H         1 TY5         0.0452
     69 H14        13.2977 -138.9920   25.8079 H         1 TY5         0.0530
     70 H15        13.9503 -138.0348   28.0158 H         1 TY5         0.0525
     71 H16        13.5804 -134.0243   26.3878 H         1 TY5         0.0525
     72 H17        12.9329 -134.9851   24.1825 H         1 TY5         0.0530
     73 H18        13.8909 -136.8576   29.9454 H         1 TY5         0.0776
     74 H19        14.5471 -135.3283   30.6216 H         1 TY5         0.0776
     75 H20        16.8701 -134.8973   28.6587 H         1 TY5         0.0557
     76 H21        19.1826 -135.8477   28.5426 H         1 TY5         0.0599
     77 H22        19.6629 -138.1098   29.5234 H         1 TY5         0.0559
     78 H23        17.8208 -139.4190   30.6165 H         1 TY5         0.0599
     79 H24        15.5101 -138.4640   30.7313 H         1 TY5         0.0557
     80 H25        10.0799 -136.1935   21.3750 H         1 ALA         0.1883
     81 H26         9.4218 -138.5459   19.7129 H         1 ALA         0.0797
     82 H27         8.0334 -136.8946   18.4326 H         1 ALA         0.0277
     83 H28         8.6452 -135.5793   19.4919 H         1 ALA         0.0277
     84 H29         7.6378 -136.8952   20.1847 H         1 ALA         0.0277
     85 H30        10.3705 -139.1332   17.6275 H         1 RE0         0.1883
     86 H31        12.2261 -137.0216   16.6501 H         1 RE0         0.0789
     87 H32        13.3368 -138.6311   15.2455 H         1 RE0         0.0199
     88 H33        12.1399 -139.9020   15.6685 H         1 RE0         0.0199
     89 H34        14.1046 -141.2082   16.1700 H         1 RE0         0.1893
     90 H35        12.9708 -140.4010   20.2955 H         1 RE0         0.2405
     91 H36        14.4016 -138.4456   21.4676 H         1 RE0         0.0591
     92 H37        15.8959 -136.4774   20.9630 H         1 RE0         0.0799
     93 H38        16.3975 -135.8551   18.5942 H         1 RE0         0.0588
     94 H39        15.4638 -137.1903   16.6775 H         1 RE0         0.0772
     95 H40        12.1051 -136.3913   14.2780 H         1 ABN         0.1878
     96 H41         9.6377 -137.3622   12.8775 H         1 ABN         0.0683
     97 H42        11.0204 -136.5105   12.1097 H         1 ABN         0.0683
     98 H43         8.1248 -135.9801   14.5174 H         1 ABN         0.0557
     99 H44         6.9219 -133.7892   14.7570 H         1 ABN         0.0599
    100 H45         7.7310 -131.7688   13.5165 H         1 ABN         0.0559
    101 H46         9.7479 -131.9396   12.0419 H         1 ABN         0.0599
    102 H47        10.9526 -134.1221   11.8075 H         1 ABN         0.0557
@<TRIPOS>BOND
     1    2    1 2  
     2    2    3 1  
     3   11    2 am 
     4    3    4 1  
     5    4    5 1  
     6    4    6 1  
     7    4    7 1  
     8    9    8 2  
     9   10    9 1  
    10    9   27 am 
    11   10   11 1  
    12   10   12 1  
    13   12   13 1  
    14   13   14 ar 
    15   13   18 ar 
    16   14   15 ar 
    17   15   16 ar 
    18   16   17 ar 
    19   16   19 1  
    20   17   18 ar 
    21   19   20 1  
    22   20   21 1  
    23   21   22 ar 
    24   21   26 ar 
    25   22   23 ar 
    26   23   24 ar 
    27   24   25 ar 
    28   25   26 ar 
    29   27   28 1  
    30   28   29 1  
    31   28   31 1  
    32   29   30 2  
    33   29   32 am 
    34   32   33 1  
    35   33   34 1  
    36   33   46 1  
    37   34   35 1  
    38   35   36 1  
    39   35   37 1  
    40   35   45 1  
    41   37   38 2  
    42   37   39 am 
    43   39   40 1  
    44   40   41 ar 
    45   40   45 ar 
    46   41   42 ar 
    47   42   43 ar 
    48   43   44 ar 
    49   44   45 ar 
    50   46   47 2  
    51   46   48 am 
    52   48   49 1  
    53   49   50 1  
    54   50   51 ar 
    55   50   55 ar 
    56   51   52 ar 
    57   52   53 ar 
    58   53   54 ar 
    59   54   55 ar 
    60    5   56 1  
    61    5   57 1  
    62    5   58 1  
    63    6   59 1  
    64    6   60 1  
    65    6   61 1  
    66    7   62 1  
    67    7   63 1  
    68    7   64 1  
    69   10   65 1  
    70   11   66 1  
    71   12   67 1  
    72   12   68 1  
    73   14   69 1  
    74   15   70 1  
    75   17   71 1  
    76   18   72 1  
    77   20   73 1  
    78   20   74 1  
    79   22   75 1  
    80   23   76 1  
    81   24   77 1  
    82   25   78 1  
    83   26   79 1  
    84   27   80 1  
    85   28   81 1  
    86   31   82 1  
    87   31   83 1  
    88   31   84 1  
    89   32   85 1  
    90   33   86 1  
    91   34   87 1  
    92   34   88 1  
    93   36   89 1  
    94   39   90 1  
    95   41   91 1  
    96   42   92 1  
    97   43   93 1  
    98   44   94 1  
    99   48   95 1  
   100   49   96 1  
   101   49   97 1  
   102   51   98 1  
   103   52   99 1  
   104   53  100 1  
   105   54  101 1  
   106   55  102 1  
@<TRIPOS>SUBSTRUCTURE
     1 BOC         1

