### 
### Created by X-TOOL on Mon Sep 10 21:13:07 2018
### 

@<TRIPOS>MOLECULE
3nzx_ligand
  102   106     1     0     0
SMALL
GAST_HUCK


@<TRIPOS>ATOM
      1 O1          8.0890 -138.0090   23.2740 O.2       1 BOC        -0.3774
      2 C           8.8060 -138.6490   24.0520 C.2       1 BOC         0.3224
      3 O2          8.3410 -139.5480   24.9670 O.3       1 BOC        -0.2580
      4 CT          6.8890 -139.8260   25.0640 C.3       1 BOC         0.0905
      5 C1          6.3310 -140.5180   23.7670 C.3       1 BOC        -0.0320
      6 C2          6.0360 -138.5970   25.5020 C.3       1 BOC        -0.0320
      7 C3          6.7990 -140.8820   26.2040 C.3       1 BOC        -0.0320
      8 O          11.1690 -139.1010   21.3170 O.2       1 TY5        -0.3942
      9 C          10.6470 -138.0530   21.7670 C.2       1 TY5         0.2057
     10 CA         10.9470 -137.6120   23.1810 C.3       1 TY5         0.1409
     11 N          10.1880 -138.5360   24.0830 N.am      1 TY5        -0.2396
     12 CB         12.4890 -137.6930   23.4470 C.3       1 TY5         0.0163
     13 CG         12.8810 -137.2100   24.8690 C.ar      1 TY5        -0.0493
     14 CD2        13.1630 -138.1360   25.9180 C.ar      1 TY5        -0.0685
     15 CE2        13.5360 -137.6800   27.2040 C.ar      1 TY5        -0.0393
     16 CZ         13.6350 -136.2480   27.4560 C.ar      1 TY5         0.0868
     17 CE1        13.3510 -135.3570   26.4090 C.ar      1 TY5        -0.0393
     18 CD1        12.9810 -135.8320   25.1420 C.ar      1 TY5        -0.0685
     19 OH         14.0010 -135.6680   28.7060 O.3       1 TY5        -0.3099
     20 C49        14.4740 -136.4040   29.8490 C.3       1 TY5         0.1028
     21 C50        15.8810 -136.9480   29.6830 C.ar      1 TY5        -0.0131
     22 C51        16.8670 -136.1810   28.9890 C.ar      1 TY5        -0.0578
     23 C52        18.1820 -136.6840   28.8360 C.ar      1 TY5        -0.0685
     24 C53        18.5210 -137.9610   29.3770 C.ar      1 TY5        -0.0687
     25 C54        17.5380 -138.7330   30.0720 C.ar      1 TY5        -0.0685
     26 C55        16.2150 -138.2210   30.2240 C.ar      1 TY5        -0.0578
     27 N           9.7780 -137.2900   21.0420 N.am      1 ALA        -0.2639
     28 CA          9.3530 -137.5490   19.6610 C.3       1 ALA         0.1282
     29 C          10.4980 -137.3560   18.6310 C.2       1 ALA         0.2036
     30 O          11.2990 -136.4410   18.7530 O.2       1 ALA        -0.3944
     31 CB          8.2900 -136.5160   19.2400 C.3       1 ALA        -0.0244
     32 N          10.5400 -138.2230   17.5750 N.am      1 RE3        -0.2648
     33 CA         11.4900 -138.1890   16.4930 C.3       1 RE3         0.1231
     34 CB         12.1930 -139.5180   16.4360 C.3       1 RE3        -0.0104
     35 CG         13.6920 -139.6270   16.6910 C.3       1 RE3         0.1317
     36 OG         14.1300 -141.0120   16.6150 O.3       1 RE3        -0.4345
     37 CD1        14.5200 -138.7920   15.6930 C.2       1 RE3         0.2350
     38 OD1        14.4820 -138.9620   14.4990 O.2       1 RE3        -0.3172
     39 NE1        15.2750 -137.8670   16.3430 N.am      1 RE3        -0.2182
     40 CE2        15.0390 -137.9650   17.7100 C.ar      1 RE3         0.0959
     41 CZ2        15.6480 -137.1770   18.7170 C.ar      1 RE3        -0.0097
     42 CH2        15.2790 -137.4390   20.0720 C.ar      1 RE3        -0.0475
     43 CZ3        14.3610 -138.4810   20.3820 C.ar      1 RE3        -0.0485
     44 CE3        13.7530 -139.2740   19.3640 C.ar      1 RE3        -0.0532
     45 CD2        14.1280 -139.0070   18.0190 C.ar      1 RE3        -0.0018
     46 C          10.6870 -137.9600   15.1950 C.2       1 RE3         0.2024
     47 O           9.6970 -138.7040   14.9580 O.2       1 RE3        -0.3944
     48 N          11.0520 -136.9280   14.3420 N.am      1 ABN        -0.2737
     49 C          10.3150 -136.6500   13.1290 C.3       1 ABN         0.0645
     50 C1          9.6210 -135.2620   13.2200 C.ar      1 ABN        -0.0210
     51 C2          8.4440 -135.0850   13.9880 C.ar      1 ABN        -0.0584
     52 C3          7.8120 -133.7910   14.0650 C.ar      1 ABN        -0.0685
     53 C4          8.3690 -132.6740   13.3600 C.ar      1 ABN        -0.0687
     54 C5          9.5540 -132.8470   12.5780 C.ar      1 ABN        -0.0685
     55 C6         10.1820 -134.1450   12.5080 C.ar      1 ABN        -0.0584
     56 H           6.9365 -141.3942   23.5351 H         1 BOC         0.0260
     57 H           5.2980 -140.8227   23.9351 H         1 BOC         0.0260
     58 H           6.3730 -139.8151   22.9350 H         1 BOC         0.0260
     59 H           5.0028 -138.9092   25.6543 H         1 BOC         0.0260
     60 H           6.4354 -138.1920   26.4318 H         1 BOC         0.0260
     61 H           6.0754 -137.8335   24.7250 H         1 BOC         0.0260
     62 H           7.1905 -140.4532   27.1265 H         1 BOC         0.0260
     63 H           5.7579 -141.1704   26.3490 H         1 BOC         0.0260
     64 H           7.3859 -141.7593   25.9320 H         1 BOC         0.0260
     65 H          10.6470 -136.5790   23.3571 H         1 TY5         0.0820
     66 H          10.7097 -139.1065   24.7484 H         1 TY5         0.1901
     67 H          12.9864 -137.0447   22.7256 H         1 TY5         0.0452
     68 H          12.7890 -138.7368   23.3548 H         1 TY5         0.0452
     69 H          13.0901 -139.2065   25.7259 H         1 TY5         0.0530
     70 H          13.7477 -138.3939   28.0000 H         1 TY5         0.0525
     71 H          13.4188 -134.2831   26.5827 H         1 TY5         0.0525
     72 H          12.7654 -135.1164   24.3486 H         1 TY5         0.0530
     73 H          13.8086 -137.2563   29.9866 H         1 TY5         0.0776
     74 H          14.4870 -135.7183   30.6962 H         1 TY5         0.0776
     75 H          16.6063 -135.2064   28.5764 H         1 TY5         0.0557
     76 H          18.9332 -136.0978   28.3067 H         1 TY5         0.0599
     77 H          19.5328 -138.3490   29.2599 H         1 TY5         0.0559
     78 H          17.7984 -139.7081   30.4837 H         1 TY5         0.0599
     79 H          15.4615 -138.8039   30.7536 H         1 TY5         0.0557
     80 H           9.3891 -136.4662   21.5008 H         1 ALA         0.1883
     81 H           8.9954 -138.5786   19.6568 H         1 ALA         0.0797
     82 H           7.4284 -136.5922   19.9033 H         1 ALA         0.0277
     83 H           8.7132 -135.5137   19.3057 H         1 ALA         0.0277
     84 H           7.9790 -136.7140   18.2142 H         1 ALA         0.0277
     85 H           9.8354 -138.9601   17.5512 H         1 RE3         0.1883
     86 H          12.2308 -137.4005   16.6257 H         1 RE3         0.0789
     87 H          12.0785 -139.8325   15.3987 H         1 RE3         0.0199
     88 H          11.7450 -140.0883   17.2497 H         1 RE3         0.0199
     89 H          15.0749 -141.0570   16.7784 H         1 RE3         0.1893
     90 H          15.9128 -137.2064   15.8989 H         1 RE3         0.2405
     91 H          16.3708 -136.4002   18.4676 H         1 RE3         0.0591
     92 H          15.7039 -136.8361   20.8745 H         1 RE3         0.0799
     93 H          14.1157 -138.6786   21.4255 H         1 RE3         0.0588
     94 H          13.0304 -140.0529   19.6075 H         1 RE3         0.0772
     95 H          11.8600 -136.3513   14.5763 H         1 ABN         0.1878
     96 H           9.5539 -137.4183   12.9930 H         1 ABN         0.0683
     97 H          11.0073 -136.6454   12.2871 H         1 ABN         0.0683
     98 H           8.0137 -135.9312   14.5236 H         1 ABN         0.0557
     99 H           6.9084 -133.6620   14.6608 H         1 ABN         0.0599
    100 H           7.8911 -131.6962   13.4197 H         1 ABN         0.0559
    101 H           9.9811 -132.0024   12.0372 H         1 ABN         0.0599
    102 H          11.0853 -134.2793   11.9130 H         1 ABN         0.0557
@<TRIPOS>BOND
     1    2    1 2  
     2    2    3 1  
     3   11    2 am 
     4    3    4 1  
     5    4    5 1  
     6    4    6 1  
     7    4    7 1  
     8    9    8 2  
     9   10    9 1  
    10    9   27 am 
    11   10   11 1  
    12   10   12 1  
    13   12   13 1  
    14   13   14 ar 
    15   13   18 ar 
    16   14   15 ar 
    17   15   16 ar 
    18   16   17 ar 
    19   16   19 1  
    20   17   18 ar 
    21   19   20 1  
    22   20   21 1  
    23   21   22 ar 
    24   21   26 ar 
    25   22   23 ar 
    26   23   24 ar 
    27   24   25 ar 
    28   25   26 ar 
    29   27   28 1  
    30   28   29 1  
    31   28   31 1  
    32   29   30 2  
    33   29   32 am 
    34   32   33 1  
    35   33   34 1  
    36   33   46 1  
    37   34   35 1  
    38   35   36 1  
    39   35   37 1  
    40   35   45 1  
    41   37   38 2  
    42   37   39 am 
    43   39   40 1  
    44   40   41 ar 
    45   40   45 ar 
    46   41   42 ar 
    47   42   43 ar 
    48   43   44 ar 
    49   44   45 ar 
    50   46   47 2  
    51   46   48 am 
    52   48   49 1  
    53   49   50 1  
    54   50   51 ar 
    55   50   55 ar 
    56   51   52 ar 
    57   52   53 ar 
    58   53   54 ar 
    59   54   55 ar 
    60    5   56 1  
    61    5   57 1  
    62    5   58 1  
    63    6   59 1  
    64    6   60 1  
    65    6   61 1  
    66    7   62 1  
    67    7   63 1  
    68    7   64 1  
    69   10   65 1  
    70   11   66 1  
    71   12   67 1  
    72   12   68 1  
    73   14   69 1  
    74   15   70 1  
    75   17   71 1  
    76   18   72 1  
    77   20   73 1  
    78   20   74 1  
    79   22   75 1  
    80   23   76 1  
    81   24   77 1  
    82   25   78 1  
    83   26   79 1  
    84   27   80 1  
    85   28   81 1  
    86   31   82 1  
    87   31   83 1  
    88   31   84 1  
    89   32   85 1  
    90   33   86 1  
    91   34   87 1  
    92   34   88 1  
    93   36   89 1  
    94   39   90 1  
    95   41   91 1  
    96   42   92 1  
    97   43   93 1  
    98   44   94 1  
    99   48   95 1  
   100   49   96 1  
   101   49   97 1  
   102   51   98 1  
   103   52   99 1  
   104   53  100 1  
   105   54  101 1  
   106   55  102 1  
@<TRIPOS>SUBSTRUCTURE
     1 BOC         1

