### 
### Created by X-TOOL on Mon Sep 10 21:13:07 2018
### 

@<TRIPOS>MOLECULE
3o0g_ligand
   36    38     1     0     0
SMALL
GAST_HUCK


@<TRIPOS>ATOM
      1 CLA        -3.5840   67.0120   61.6530 Cl        1 3O0        -0.0594
      2 NAA        -7.4780   58.5100   57.2400 N.pl3     1 3O0        -0.2460
      3 CAC        -6.8320   59.0240   63.8580 C.ar      1 3O0        -0.0484
      4 CAD        -6.9870   59.0860   62.4710 C.ar      1 3O0        -0.0357
      5 CAE        -6.8760   57.9330   61.7000 C.ar      1 3O0         0.0751
      6 CAF        -7.0430   57.9580   60.1840 C.2       1 3O0         0.3182
      7 CAG        -6.6390   59.2000   59.3770 C.2       1 3O0         0.3425
      8 CAH        -6.8670   59.4110   58.0110 C.2       1 3O0         0.3301
      9 NAI        -6.4290   60.6020   57.5390 N.2       1 3O0        -0.0986
     10 CAJ        -4.2940   64.6470   58.5180 C.ar      1 3O0        -0.0054
     11 CAK        -3.8620   65.7040   59.3170 C.ar      1 3O0        -0.0344
     12 CAL        -4.1280   65.6850   60.6830 C.ar      1 3O0         0.0519
     13 CAM        -6.5660   57.8000   64.4760 C.ar      1 3O0        -0.0239
     14 CAN        -6.4640   56.6470   63.6980 C.ar      1 3O0         0.0900
     15 CAO        -6.6230   56.7170   62.3190 C.ar      1 3O0        -0.0070
     16 OAP        -7.5210   56.9810   59.6180 O.2       1 3O0        -0.2760
     17 SAQ        -5.8600   60.5720   59.9820 S.3       1 3O0         0.2431
     18 CAR        -5.8480   61.3800   58.4740 C.2       1 3O0         0.3536
     19 NAS        -5.3510   62.5970   58.2040 N.pl3     1 3O0        -0.1625
     20 CAT        -4.9830   63.5610   59.0640 C.ar      1 3O0         0.1317
     21 CAU        -5.2440   63.5410   60.4430 C.ar      1 3O0        -0.0054
     22 CAV        -4.8180   64.6030   61.2520 C.ar      1 3O0        -0.0344
     23 OAW        -5.9380   55.3250   65.6300 O.2       1 3O0        -0.4885
     24 NAX        -6.2240   55.4630   64.2350 N.2       1 3O0        -0.2153
     25 OAY        -6.2770   54.3090   63.4020 O.2       1 3O0        -0.4885
     26 H          -7.7984   57.6287   57.6414 H         1 3O0         0.2259
     27 H          -7.6248   58.7024   56.2491 H         1 3O0         0.2259
     28 H          -6.9186   59.9302   64.4575 H         1 3O0         0.0644
     29 H          -7.1958   60.0419   61.9906 H         1 3O0         0.0711
     30 H          -4.0906   64.6679   57.4473 H         1 3O0         0.0699
     31 H          -3.3195   66.5398   58.8751 H         1 3O0         0.0657
     32 H          -6.4392   57.7464   65.5573 H         1 3O0         0.0724
     33 H          -6.5484   55.8099   61.7192 H         1 3O0         0.0743
     34 H          -5.2377   62.8194   57.2150 H         1 3O0         0.2881
     35 H          -5.7780   62.6996   60.8846 H         1 3O0         0.0699
     36 H          -5.0223   64.5889   62.3226 H         1 3O0         0.0657
@<TRIPOS>BOND
     1   12    1 1  
     2    8    2 1  
     3    4    3 ar 
     4    3   13 ar 
     5    5    4 ar 
     6    6    5 1  
     7    5   15 ar 
     8    7    6 1  
     9    6   16 2  
    10    7    8 2  
    11   17    7 1  
    12    9    8 1  
    13   18    9 2  
    14   10   11 ar 
    15   20   10 ar 
    16   11   12 ar 
    17   12   22 ar 
    18   14   13 ar 
    19   15   14 ar 
    20   14   24 1  
    21   18   17 1  
    22   19   18 1  
    23   19   20 1  
    24   20   21 ar 
    25   21   22 ar 
    26   24   23 2  
    27   24   25 2  
    28    2   26 1  
    29    2   27 1  
    30    3   28 1  
    31    4   29 1  
    32   10   30 1  
    33   11   31 1  
    34   13   32 1  
    35   15   33 1  
    36   19   34 1  
    37   21   35 1  
    38   22   36 1  
@<TRIPOS>SUBSTRUCTURE
     1 3O0         1

