### 
### Created by X-TOOL on Mon Sep 10 21:13:08 2018
### 

@<TRIPOS>MOLECULE
3o23_ligand
   48    51     1     0     0
SMALL
GAST_HUCK


@<TRIPOS>ATOM
      1 N1          6.8930   -0.0770   22.6320 N.am      1 MQY        -0.1162
      2 C2          7.6070   -1.2230   22.3330 C.ar      1 MQY         0.0961
      3 C3          7.0820    1.1360   22.0510 C.2       1 MQY         0.3240
      4 C4          5.8990   -0.0280   23.5630 C.2       1 MQY         0.2569
      5 C5          6.9370   -2.3300   21.7360 C.ar      1 MQY        -0.0343
      6 C6          9.0060   -1.3250   22.6060 C.ar      1 MQY        -0.0343
      7 N7          6.2050    2.0270   22.5860 N.am      1 MQY        -0.2129
      8 O8          7.9050    1.3980   21.1760 O.2       1 MQY        -0.3824
      9 C9          5.3510    1.4100   23.6000 C.3       1 MQY         0.1450
     10 O10         5.4740   -0.9500   24.2690 O.2       1 MQY        -0.3736
     11 C11         7.6350   -3.5060   21.4190 C.ar      1 MQY        -0.0486
     12 C12         9.7110   -2.5090   22.2860 C.ar      1 MQY        -0.0486
     13 C13         6.0790    3.4540   22.2280 C.3       1 MQY         0.0822
     14 C14         3.8560    1.4080   23.2220 C.3       1 MQY        -0.0232
     15 C15         9.0170   -3.5960   21.6890 C.ar      1 MQY         0.0835
     16 C16         7.0130    4.4330   22.9520 C.ar      1 MQY         0.0095
     17 S17         9.8760   -5.0880   21.2630 S.o2      1 MQY         0.0846
     18 C18         6.9420    5.8550   22.6580 C.ar      1 MQY         0.0143
     19 C19         7.9740    3.9970   23.9220 C.ar      1 MQY        -0.0298
     20 C20        10.3010   -4.8830   19.5310 C.3       1 MQY         0.5246
     21 O21        11.1000   -5.1500   21.9980 O.2       1 MQY        -0.1630
     22 O22         8.9650   -6.1920   21.3540 O.2       1 MQY        -0.1630
     23 C23         7.8310    6.7860   23.3510 C.ar      1 MQY         0.0383
     24 C24         6.0010    6.3820   21.6950 C.ar      1 MQY        -0.0467
     25 C25         8.8070    4.9450   24.5560 C.ar      1 MQY        -0.0010
     26 F26        10.9360   -5.9690   19.1440 F         1 MQY        -0.1501
     27 F27        11.1030   -3.8290   19.4240 F         1 MQY        -0.1501
     28 F28         9.1880   -4.6980   18.8260 F         1 MQY        -0.1501
     29 N29         8.7380    6.2770   24.2800 N.ar      1 MQY        -0.3085
     30 C30         7.7530    8.1840   23.0550 C.ar      1 MQY        -0.0425
     31 C31         5.9470    7.7760   21.4240 C.ar      1 MQY        -0.0573
     32 C32         6.8180    8.6750   22.1000 C.ar      1 MQY        -0.0577
     33 H1          5.8760   -2.2632   21.5242 H         1 MQY         0.0519
     34 H2          9.5293   -0.4914   23.0603 H         1 MQY         0.0519
     35 H3          5.4835    1.8837   24.5839 H         1 MQY         0.0809
     36 H4          7.1137   -4.3426   20.9680 H         1 MQY         0.0600
     37 H5         10.7719   -2.5865   22.4945 H         1 MQY         0.0600
     38 H6          5.0446    3.7609   22.4418 H         1 MQY         0.0734
     39 H7          6.2729    3.5450   21.1491 H         1 MQY         0.0734
     40 H8          3.2753    0.9314   24.0255 H         1 MQY         0.0277
     41 H9          3.7152    0.8477   22.2859 H         1 MQY         0.0277
     42 H10         3.5110    2.4435   23.0850 H         1 MQY         0.0277
     43 H11         8.0610    2.9448   24.1677 H         1 MQY         0.0607
     44 H12         5.3305    5.7075   21.1749 H         1 MQY         0.0658
     45 H13         9.5274    4.6000   25.2889 H         1 MQY         0.0834
     46 H14         8.4133    8.8770   23.5637 H         1 MQY         0.0628
     47 H15         5.2379    8.1566   20.6978 H         1 MQY         0.0625
     48 H16         6.7697    9.7369   21.8874 H         1 MQY         0.0650
@<TRIPOS>BOND
     1    1    2 1  
     2    1    3 am 
     3    1    4 am 
     4    2    5 ar 
     5    2    6 ar 
     6    3    7 am 
     7    3    8 2  
     8    4    9 1  
     9    4   10 2  
    10    5   11 ar 
    11    6   12 ar 
    12    7    9 1  
    13    7   13 1  
    14    9   14 1  
    15   11   15 ar 
    16   12   15 ar 
    17   13   16 1  
    18   15   17 1  
    19   16   18 ar 
    20   16   19 ar 
    21   17   20 1  
    22   17   21 2  
    23   17   22 2  
    24   18   23 ar 
    25   18   24 ar 
    26   19   25 ar 
    27   20   26 1  
    28   20   27 1  
    29   20   28 1  
    30   23   29 ar 
    31   23   30 ar 
    32   24   31 ar 
    33   25   29 ar 
    34   30   32 ar 
    35   31   32 ar 
    36    5   33 1  
    37    6   34 1  
    38    9   35 1  
    39   11   36 1  
    40   12   37 1  
    41   13   38 1  
    42   13   39 1  
    43   14   40 1  
    44   14   41 1  
    45   14   42 1  
    46   19   43 1  
    47   24   44 1  
    48   25   45 1  
    49   30   46 1  
    50   31   47 1  
    51   32   48 1  
@<TRIPOS>SUBSTRUCTURE
     1 MQY         1

