### 
### Created by X-TOOL on Mon Sep 10 21:13:08 2018
### 

@<TRIPOS>MOLECULE
3o2m_ligand
   58    61     1     0     0
SMALL
GAST_HUCK


@<TRIPOS>ATOM
      1 N1         37.9530   84.7360   46.1900 N.ar      1 46A        -0.2654
      2 C5         37.1450   82.1460   46.5290 C.3       1 46A         0.0676
      3 C6         37.3730   81.4940   45.1750 C.ar      1 46A        -0.0193
      4 C7         36.3500   80.6360   44.7230 C.ar      1 46A        -0.0569
      5 C8         36.4550   79.9660   43.4910 C.ar      1 46A        -0.0599
      6 C10        38.6050   80.9910   43.1090 C.ar      1 46A        -0.0599
      7 C13        38.7560   78.5520   41.1860 C.ar      1 46A        -0.0551
      8 C15        38.0020   77.8130   38.9670 C.ar      1 46A        -0.0621
      9 C17        36.6420   79.4090   40.2190 C.ar      1 46A         0.0155
     10 C28        39.3830   86.6190   46.7160 C.ar      1 46A        -0.0232
     11 C          37.9900   80.7880   50.2600 C.3       1 46A        -0.0540
     12 C2         38.5730   82.0620   49.6850 C.3       1 46A        -0.0323
     13 C3         38.9610   81.7850   48.2260 C.3       1 46A         0.0358
     14 N          38.2770   82.6930   47.2740 N.pl3     1 46A        -0.2669
     15 C9         37.5750   80.1340   42.6710 C.ar      1 46A        -0.0235
     16 C11        38.5150   81.6730   44.3550 C.ar      1 46A        -0.0569
     17 C12        37.6660   79.3700   41.3570 C.ar      1 46A        -0.0123
     18 C14        38.9410   77.7820   40.0180 C.ar      1 46A        -0.0623
     19 C16        36.8570   78.6310   39.0770 C.ar      1 46A        -0.0525
     20 C18        35.4150   80.2220   40.2520 C.2       1 46A         0.1484
     21 N19        34.2010   79.7380   39.9440 N.2       1 46A        -0.1756
     22 N20        33.2970   80.7330   40.0940 N.2       1 46A        -0.0518
     23 N21        33.9700   81.8610   40.5040 N.pl3     1 46A        -0.1038
     24 N22        35.2800   81.5310   40.5970 N.2       1 46A        -0.1441
     25 C23        38.3050   86.0280   46.0020 C.ar      1 46A         0.0191
     26 C25        38.6580   84.0010   47.0960 C.ar      1 46A         0.1767
     27 N2         39.7060   84.4990   47.8110 N.ar      1 46A        -0.2654
     28 C27        40.0680   85.7900   47.6360 C.ar      1 46A         0.0191
     29 C29        41.2180   86.3010   48.4510 C.3       1 46A        -0.0147
     30 C30        37.5110   86.8180   45.0020 C.3       1 46A        -0.0147
     31 C31        37.6640   80.8270   51.7550 C.3       1 46A        -0.0652
     32 H          36.7660   81.3416   47.1594 H         1 46A         0.0694
     33 H          36.5162   83.0100   46.3139 H         1 46A         0.0694
     34 H          35.4626   80.4894   45.3387 H         1 46A         0.0561
     35 H          35.6500   79.3049   43.1701 H         1 46A         0.0609
     36 H          39.4855   81.1338   42.4826 H         1 46A         0.0609
     37 H          39.5025   78.4958   41.9783 H         1 46A         0.0614
     38 H          38.1594   77.2083   38.0739 H         1 46A         0.0610
     39 H          39.6680   87.6598   46.5623 H         1 46A         0.0537
     40 H          38.7460   80.0140   50.1278 H         1 46A         0.0263
     41 H          37.0466   80.6173   49.7415 H         1 46A         0.0263
     42 H          39.4485   82.3690   50.2572 H         1 46A         0.0285
     43 H          37.8416   82.8686   49.7350 H         1 46A         0.0285
     44 H          38.6652   80.7633   47.9877 H         1 46A         0.0528
     45 H          40.0351   81.9425   48.1281 H         1 46A         0.0528
     46 H          39.3219   82.3310   44.6776 H         1 46A         0.0561
     47 H          39.8258   77.1520   39.9268 H         1 46A         0.0614
     48 H          36.1325   78.6566   38.2630 H         1 46A         0.0621
     49 H          33.5595   82.7738   40.7008 H         1 46A         0.2945
     50 H          42.0115   86.6399   47.7849 H         1 46A         0.0440
     51 H          40.8817   87.1326   49.0702 H         1 46A         0.0440
     52 H          41.5940   85.5007   49.0883 H         1 46A         0.0440
     53 H          37.5931   86.3481   44.0219 H         1 46A         0.0440
     54 H          36.4652   86.8425   45.3081 H         1 46A         0.0440
     55 H          37.9004   87.8349   44.9525 H         1 46A         0.0440
     56 H          38.5743   81.0305   52.3189 H         1 46A         0.0230
     57 H          36.9334   81.6131   51.9459 H         1 46A         0.0230
     58 H          37.2529   79.8650   52.0611 H         1 46A         0.0230
@<TRIPOS>BOND
     1    1   25 ar 
     2   26    1 ar 
     3    3    2 1  
     4    2   14 1  
     5    4    3 ar 
     6   16    3 ar 
     7    5    4 ar 
     8   15    5 ar 
     9   15    6 ar 
    10    6   16 ar 
    11   17    7 ar 
    12    7   18 ar 
    13   18    8 ar 
    14   19    8 ar 
    15   17    9 ar 
    16    9   19 ar 
    17    9   20 1  
    18   25   10 ar 
    19   10   28 ar 
    20   12   11 1  
    21   11   31 1  
    22   13   12 1  
    23   14   13 1  
    24   14   26 1  
    25   15   17 1  
    26   20   21 1  
    27   20   24 2  
    28   21   22 2  
    29   22   23 1  
    30   23   24 1  
    31   25   30 1  
    32   26   27 ar 
    33   27   28 ar 
    34   28   29 1  
    35    2   32 1  
    36    2   33 1  
    37    4   34 1  
    38    5   35 1  
    39    6   36 1  
    40    7   37 1  
    41    8   38 1  
    42   10   39 1  
    43   11   40 1  
    44   11   41 1  
    45   12   42 1  
    46   12   43 1  
    47   13   44 1  
    48   13   45 1  
    49   16   46 1  
    50   18   47 1  
    51   19   48 1  
    52   23   49 1  
    53   29   50 1  
    54   29   51 1  
    55   29   52 1  
    56   30   53 1  
    57   30   54 1  
    58   30   55 1  
    59   31   56 1  
    60   31   57 1  
    61   31   58 1  
@<TRIPOS>SUBSTRUCTURE
     1 46A         1

