### 
### Created by X-TOOL on Mon Sep 10 21:13:07 2018
### 

@<TRIPOS>MOLECULE
3o3j_ligand
   24    25     1     0     0
SMALL
GAST_HUCK


@<TRIPOS>ATOM
      1 BR          2.1850   21.7530  -28.9070 Br        1 BB4        -0.0612
      2 N1         -1.2370   16.7720  -26.3670 N.am      1 BB4        -0.1633
      3 O2         -3.4880   17.4590  -26.4460 O.2       1 BB4        -0.3954
      4 N3         -3.5430   20.3570  -30.8070 N.pl3     1 BB4        -0.2872
      5 C4         -3.6020   19.1170  -30.1800 C.2       1 BB4         0.0199
      6 C5         -2.5230   18.7330  -29.4810 C.2       1 BB4        -0.0263
      7 C6         -1.7070   19.8610  -29.6930 C.ar      1 BB4        -0.0161
      8 C7         -0.3930   20.2040  -29.2340 C.ar      1 BB4        -0.0642
      9 C8          0.2750   21.4740  -29.5900 C.ar      1 BB4        -0.0047
     10 C9         -0.4890   22.3880  -30.4460 C.ar      1 BB4        -0.0677
     11 C10        -1.7900   22.0610  -30.9410 C.ar      1 BB4        -0.0422
     12 C11        -2.3730   20.8570  -30.5490 C.ar      1 BB4         0.0632
     13 C12        -2.3520   17.3750  -28.7310 C.3       1 BB4         0.0555
     14 C13        -2.4190   17.2110  -27.0600 C.2       1 BB4         0.2040
     15 O14        -1.0400   16.5700  -24.9850 O.3       1 BB4        -0.2717
     16 H          -0.4281   16.5799  -26.9579 H         1 BB4         0.2217
     17 H          -4.2791   20.7911  -31.3638 H         1 BB4         0.2225
     18 H          -4.4866   18.4844  -30.2533 H         1 BB4         0.0805
     19 H           0.1367   19.4978  -28.5947 H         1 BB4         0.0576
     20 H          -0.0500   23.3491  -30.7138 H         1 BB4         0.0550
     21 H          -2.3158   22.7402  -31.6120 H         1 BB4         0.0546
     22 H          -1.3214   17.1026  -28.9584 H         1 BB4         0.0583
     23 H          -3.2197   16.8054  -29.0637 H         1 BB4         0.0583
     24 H          -1.1909   17.3948  -24.5175 H         1 BB4         0.2490
@<TRIPOS>BOND
     1    9    1 1  
     2   14    2 am 
     3    2   15 1  
     4   14    3 2  
     5    5    4 1  
     6   12    4 1  
     7    6    5 2  
     8    6    7 1  
     9   13    6 1  
    10    7    8 ar 
    11    7   12 ar 
    12    8    9 ar 
    13    9   10 ar 
    14   11   10 ar 
    15   12   11 ar 
    16   13   14 1  
    17    2   16 1  
    18    4   17 1  
    19    5   18 1  
    20    8   19 1  
    21   10   20 1  
    22   11   21 1  
    23   13   22 1  
    24   13   23 1  
    25   15   24 1  
@<TRIPOS>SUBSTRUCTURE
     1 BB4         1

