### 
### Created by X-TOOL on Mon Sep 10 21:13:07 2018
### 

@<TRIPOS>MOLECULE
3o56_ligand
   58    62     1     0     0
SMALL
GAST_HUCK


@<TRIPOS>ATOM
      1 C1         41.0690   45.3350   63.2400 C.3       1 ZG1        -0.0367
      2 C2         41.7110   46.7100   63.2070 C.3       1 ZG1         0.0658
      3 N3         43.1400   46.5630   62.9740 N.pl3     1 ZG1        -0.1887
      4 N4         43.6450   46.1870   61.7900 N.2       1 ZG1        -0.2039
      5 C5         44.9880   46.1480   61.9030 C.2       1 ZG1         0.0260
      6 C6         45.3860   46.5150   63.2590 C.ar      1 ZG1         0.0640
      7 C7         46.5530   46.6680   63.9970 C.ar      1 ZG1         0.0844
      8 N8         47.8370   46.4820   63.5420 N.pl3     1 ZG1        -0.3034
      9 C9         48.2050   46.0200   62.2230 C.3       1 ZG1         0.0456
     10 C10        49.3170   44.9960   62.4410 C.3       1 ZG1        -0.0057
     11 C11        49.7820   44.4730   61.0910 C.3       1 ZG1         0.0498
     12 O12        50.2150   45.5920   60.3410 O.3       1 ZG1        -0.3796
     13 C13        49.1600   46.4750   60.0070 C.3       1 ZG1         0.0498
     14 C14        48.6390   47.1270   61.2830 C.3       1 ZG1        -0.0057
     15 C15        46.3990   47.0810   65.3490 C.ar      1 ZG1         0.0858
     16 C16        45.1130   47.3080   65.8540 C.ar      1 ZG1         0.0047
     17 N17        44.0060   47.1470   65.1410 N.ar      1 ZG1        -0.2920
     18 C18        44.1240   46.7650   63.8520 C.ar      1 ZG1         0.1516
     19 C19        47.5340   47.3270   66.2420 C.2       1 ZG1         0.2235
     20 O20        47.5200   47.6320   67.5620 O.3       1 ZG1        -0.1526
     21 N21        48.8670   47.7940   67.9440 N.2       1 ZG1        -0.1369
     22 C22        49.5750   47.5960   66.8250 C.2       1 ZG1         0.1027
     23 C23        51.0910   47.6450   66.7620 C.3       1 ZG1         0.0891
     24 N24        48.7970   47.3110   65.7780 N.2       1 ZG1        -0.2734
     25 N25        52.1540   45.8000   65.6030 N.am      1 ZG1        -0.2716
     26 C26        51.5590   46.1870   66.7630 C.2       1 ZG1         0.1914
     27 C27        52.3480   46.7000   64.4710 C.3       1 ZG1         0.0341
     28 C28        52.6590   44.4460   65.3970 C.3       1 ZG1         0.0341
     29 O29        51.3770   45.4470   67.7260 O.2       1 ZG1        -0.3939
     30 C30        53.1010   45.8640   63.4260 C.3       1 ZG1        -0.0307
     31 C31        53.4980   44.5430   64.1150 C.3       1 ZG1        -0.0307
     32 H1         39.9882   45.4392   63.4159 H         1 ZG1         0.0256
     33 H2         41.5167   44.7406   64.0501 H         1 ZG1         0.0256
     34 H3         41.2368   44.8288   62.2779 H         1 ZG1         0.0256
     35 H4         41.5450   47.2172   64.1688 H         1 ZG1         0.0617
     36 H5         41.2651   47.3054   62.3967 H         1 ZG1         0.0617
     37 H6         45.6748   45.8819   61.1009 H         1 ZG1         0.0729
     38 H7         48.6032   46.6900   64.1982 H         1 ZG1         0.1874
     39 H8         47.3369   45.5201   61.7686 H         1 ZG1         0.0565
     40 H9         48.9358   44.1616   63.0480 H         1 ZG1         0.0310
     41 H10        50.1604   45.4730   62.9617 H         1 ZG1         0.0310
     42 H11        48.9513   43.9703   60.5741 H         1 ZG1         0.0560
     43 H12        50.6125   43.7644   61.2260 H         1 ZG1         0.0560
     44 H13        48.3483   45.9135   59.5213 H         1 ZG1         0.0560
     45 H14        49.5309   47.2507   59.3209 H         1 ZG1         0.0560
     46 H15        49.4356   47.7244   61.7504 H         1 ZG1         0.0310
     47 H16        47.7828   47.7767   61.0489 H         1 ZG1         0.0310
     48 H17        45.0167   47.6330   66.8836 H         1 ZG1         0.0798
     49 H18        51.4933   48.1764   67.6371 H         1 ZG1         0.0673
     50 H19        51.4195   48.1515   65.8425 H         1 ZG1         0.0673
     51 H20        52.9445   47.5746   64.7697 H         1 ZG1         0.0522
     52 H21        51.3790   47.0356   64.0729 H         1 ZG1         0.0522
     53 H22        51.8287   43.7365   65.2661 H         1 ZG1         0.0522
     54 H23        53.2816   44.1292   66.2467 H         1 ZG1         0.0522
     55 H24        54.0002   46.4002   63.0884 H         1 ZG1         0.0285
     56 H25        52.4499   45.6603   62.5632 H         1 ZG1         0.0285
     57 H26        53.2812   43.6906   63.4544 H         1 ZG1         0.0285
     58 H27        54.5697   44.5516   64.3628 H         1 ZG1         0.0285
@<TRIPOS>BOND
     1    1    2 1  
     2    2    3 1  
     3    3    4 1  
     4    3   18 1  
     5    4    5 2  
     6    5    6 1  
     7    6    7 ar 
     8    6   18 ar 
     9    7    8 1  
    10    7   15 ar 
    11    8    9 1  
    12    9   10 1  
    13    9   14 1  
    14   10   11 1  
    15   11   12 1  
    16   12   13 1  
    17   13   14 1  
    18   15   16 ar 
    19   15   19 1  
    20   16   17 ar 
    21   17   18 ar 
    22   19   20 1  
    23   19   24 2  
    24   20   21 1  
    25   21   22 2  
    26   22   23 1  
    27   22   24 1  
    28   23   26 1  
    29   26   25 am 
    30   25   27 1  
    31   25   28 1  
    32   26   29 2  
    33   27   30 1  
    34   28   31 1  
    35   30   31 1  
    36    1   32 1  
    37    1   33 1  
    38    1   34 1  
    39    2   35 1  
    40    2   36 1  
    41    5   37 1  
    42    8   38 1  
    43    9   39 1  
    44   10   40 1  
    45   10   41 1  
    46   11   42 1  
    47   11   43 1  
    48   13   44 1  
    49   13   45 1  
    50   14   46 1  
    51   14   47 1  
    52   16   48 1  
    53   23   49 1  
    54   23   50 1  
    55   27   51 1  
    56   27   52 1  
    57   28   53 1  
    58   28   54 1  
    59   30   55 1  
    60   30   56 1  
    61   31   57 1  
    62   31   58 1  
@<TRIPOS>SUBSTRUCTURE
     1 ZG1         1

