### 
### Created by X-TOOL on Mon Sep 10 21:13:06 2018
### 

@<TRIPOS>MOLECULE
3o57_ligand
   72    77     1     0     0
SMALL
GAST_HUCK


@<TRIPOS>ATOM
      1 C1         41.2450   45.5800   63.9860 C.3       1 ZG2        -0.0368
      2 C2         41.8630   46.8690   63.4410 C.3       1 ZG2         0.0653
      3 N3         43.2860   46.6780   63.1510 N.pl3     1 ZG2        -0.1901
      4 N4         43.7810   46.3270   61.9410 N.2       1 ZG2        -0.2047
      5 C5         45.1260   46.2640   62.0690 C.2       1 ZG2         0.0250
      6 C6         45.5230   46.6230   63.4230 C.ar      1 ZG2         0.0605
      7 C7         46.6960   46.7530   64.1480 C.ar      1 ZG2         0.0788
      8 N8         47.9720   46.5270   63.6660 N.pl3     1 ZG2        -0.3056
      9 C9         48.3540   46.0980   62.3310 C.3       1 ZG2         0.0448
     10 C10        49.6030   45.2360   62.4950 C.3       1 ZG2        -0.0058
     11 C11        50.1330   44.7740   61.1370 C.3       1 ZG2         0.0498
     12 O12        50.2970   45.8760   60.2340 O.3       1 ZG2        -0.3796
     13 C13        49.2270   46.7890   60.0680 C.3       1 ZG2         0.0498
     14 C14        48.6740   47.2480   61.4250 C.3       1 ZG2        -0.0058
     15 C18        46.5390   47.1240   65.5040 C.ar      1 ZG2         0.0705
     16 C19        45.2650   47.3720   66.0190 C.ar      1 ZG2        -0.0007
     17 N20        44.1440   47.2300   65.3230 N.ar      1 ZG2        -0.2958
     18 C21        44.2690   46.8580   64.0280 C.ar      1 ZG2         0.1487
     19 C22        47.6710   47.4430   66.3900 C.2       1 ZG2         0.1807
     20 N23        48.9570   47.3070   66.0210 N.2       1 ZG2        -0.3203
     21 C24        49.7580   47.8100   67.1530 C.2       1 ZG2         0.0259
     22 C25        51.2670   47.8220   67.1990 C.3       1 ZG2         0.0621
     23 C26        51.8630   47.8060   65.7720 C.2       1 ZG2         0.1843
     24 N27        52.4010   46.6180   65.3710 N.am      1 ZG2        -0.2723
     25 C28        52.9980   46.4480   64.0400 C.3       1 ZG2         0.0340
     26 C29        48.8630   48.2290   68.0540 C.2       1 ZG2         0.1238
     27 O30        47.6010   48.0410   67.6090 O.3       1 ZG2        -0.2393
     28 C31        49.0430   48.8510   69.4070 C.3       1 ZG2         0.0411
     29 C32        48.7780   50.3420   69.3730 C.ar      1 ZG2        -0.0309
     30 C33        49.7500   51.2480   68.9280 C.ar      1 ZG2        -0.0586
     31 C34        49.4980   52.6230   68.9070 C.ar      1 ZG2        -0.0684
     32 C35        48.2640   53.1180   69.3310 C.ar      1 ZG2        -0.0687
     33 C36        47.5400   50.8560   69.7890 C.ar      1 ZG2        -0.0586
     34 C37        47.2910   52.2290   69.7730 C.ar      1 ZG2        -0.0684
     35 C38        52.4370   45.3830   66.1730 C.3       1 ZG2         0.0340
     36 C39        53.0710   44.3300   65.2440 C.3       1 ZG2        -0.0307
     37 C40        52.9350   44.9250   63.8390 C.3       1 ZG2        -0.0307
     38 O41        51.8540   48.8050   65.0650 O.2       1 ZG2        -0.3953
     39 H1         40.1781   45.7454   64.1966 H         1 ZG2         0.0256
     40 H2         41.7609   45.2894   64.9130 H         1 ZG2         0.0256
     41 H3         41.3515   44.7784   63.2403 H         1 ZG2         0.0256
     42 H4         41.7509   47.6677   64.1890 H         1 ZG2         0.0616
     43 H5         41.3414   47.1568   62.5163 H         1 ZG2         0.0616
     44 H6         45.8141   45.9845   61.2726 H         1 ZG2         0.0726
     45 H7         48.7428   46.6808   64.3316 H         1 ZG2         0.1862
     46 H8         47.5387   45.5077   61.8873 H         1 ZG2         0.0564
     47 H9         49.3538   44.3537   63.1028 H         1 ZG2         0.0310
     48 H10        50.3813   45.8237   63.0037 H         1 ZG2         0.0310
     49 H11        49.4217   44.0573   60.7007 H         1 ZG2         0.0560
     50 H12        51.1064   44.2826   61.2816 H         1 ZG2         0.0560
     51 H13        48.4224   46.2996   59.4996 H         1 ZG2         0.0560
     52 H14        49.5873   47.6669   59.5118 H         1 ZG2         0.0560
     53 H15        49.4249   47.8852   61.9150 H         1 ZG2         0.0310
     54 H16        47.7557   47.8288   61.2538 H         1 ZG2         0.0310
     55 H17        45.1869   47.7002   67.0492 H         1 ZG2         0.0767
     56 H18        51.6177   46.9342   67.7456 H         1 ZG2         0.0591
     57 H19        51.6042   48.7303   67.7199 H         1 ZG2         0.0591
     58 H20        54.0370   46.8087   64.0213 H         1 ZG2         0.0522
     59 H21        52.4131   46.9748   63.2717 H         1 ZG2         0.0522
     60 H22        50.0757   48.6793   69.7447 H         1 ZG2         0.0594
     61 H23        48.3432   48.3798   70.1129 H         1 ZG2         0.0594
     62 H24        50.7125   50.8769   68.5948 H         1 ZG2         0.0559
     63 H25        50.2639   53.3071   68.5601 H         1 ZG2         0.0599
     64 H26        48.0664   54.1837   69.3158 H         1 ZG2         0.0559
     65 H27        46.7661   50.1767   70.1276 H         1 ZG2         0.0559
     66 H28        46.3312   52.6053   70.1079 H         1 ZG2         0.0599
     67 H29        51.4205   45.0806   66.4649 H         1 ZG2         0.0522
     68 H30        53.0508   45.5241   67.0748 H         1 ZG2         0.0522
     69 H31        52.5316   43.3739   65.3150 H         1 ZG2         0.0285
     70 H32        54.1295   44.1737   65.4990 H         1 ZG2         0.0285
     71 H33        53.7598   44.5862   63.1949 H         1 ZG2         0.0285
     72 H34        51.9746   44.6345   63.3882 H         1 ZG2         0.0285
@<TRIPOS>BOND
     1    1    2 1  
     2    2    3 1  
     3    3    4 1  
     4    3   18 1  
     5    4    5 2  
     6    5    6 1  
     7    6    7 ar 
     8    6   18 ar 
     9    7    8 1  
    10    7   15 ar 
    11    8    9 1  
    12    9   10 1  
    13    9   14 1  
    14   10   11 1  
    15   11   12 1  
    16   12   13 1  
    17   13   14 1  
    18   15   16 ar 
    19   15   19 1  
    20   16   17 ar 
    21   17   18 ar 
    22   19   20 2  
    23   19   27 1  
    24   20   21 1  
    25   21   22 1  
    26   21   26 2  
    27   22   23 1  
    28   23   24 am 
    29   23   38 2  
    30   24   25 1  
    31   24   35 1  
    32   25   37 1  
    33   26   27 1  
    34   26   28 1  
    35   28   29 1  
    36   29   30 ar 
    37   29   33 ar 
    38   30   31 ar 
    39   31   32 ar 
    40   32   34 ar 
    41   33   34 ar 
    42   35   36 1  
    43   36   37 1  
    44    1   39 1  
    45    1   40 1  
    46    1   41 1  
    47    2   42 1  
    48    2   43 1  
    49    5   44 1  
    50    8   45 1  
    51    9   46 1  
    52   10   47 1  
    53   10   48 1  
    54   11   49 1  
    55   11   50 1  
    56   13   51 1  
    57   13   52 1  
    58   14   53 1  
    59   14   54 1  
    60   16   55 1  
    61   22   56 1  
    62   22   57 1  
    63   25   58 1  
    64   25   59 1  
    65   28   60 1  
    66   28   61 1  
    67   30   62 1  
    68   31   63 1  
    69   32   64 1  
    70   33   65 1  
    71   34   66 1  
    72   35   67 1  
    73   35   68 1  
    74   36   69 1  
    75   36   70 1  
    76   37   71 1  
    77   37   72 1  
@<TRIPOS>SUBSTRUCTURE
     1 ZG2         1

