### 
### Created by X-TOOL on Mon Sep 10 21:13:08 2018
### 

@<TRIPOS>MOLECULE
3o5n_ligand
   34    36     1     0     0
SMALL
GAST_HUCK


@<TRIPOS>ATOM
      1 C          51.7950  -20.5690   89.8930 C.2       1 BR0         0.0796
      2 N          54.1240  -21.1790   89.6590 N.pl3     1 BR0        -0.1679
      3 O          51.9170  -21.3220   90.8810 O.co2     1 BR0        -0.5653
      4 CA         53.0840  -20.2900   89.1060 C.3       1 BR0         0.1624
      5 CB         53.5030  -18.7880   89.1680 C.3       1 BR0         0.0483
      6 CG         54.8740  -18.4990   89.8280 C.3       1 BR0         0.0880
      7 OAA        55.1270  -23.7560   90.2080 O.co2     1 BR0        -0.5521
      8 OAC        59.2950  -18.0330   89.7190 O.2       1 BR0        -0.4895
      9 OAD        56.0180  -24.1100   88.2120 O.co2     1 BR0        -0.5521
     10 OAF        57.2130  -16.8960   89.2460 O.2       1 BR0        -0.4895
     11 CAG        57.7000  -21.7260   89.0990 C.ar      1 BR0         0.0874
     12 CAH        58.1640  -20.4120   89.1650 C.ar      1 BR0         0.0958
     13 CAI        53.0480  -18.1950   91.4570 C.3       1 BR0        -0.0454
     14 CAK        52.5660  -17.9430   90.0280 C.3       1 BR0        -0.0378
     15 CAM        55.7880  -23.3920   89.2110 C.2       1 BR0         0.1130
     16 CAO        56.3470  -21.9730   89.2620 C.ar      1 BR0         0.2035
     17 CAP        57.3110  -19.3330   89.3990 C.ar      1 BR0         0.2348
     18 CAQ        55.4810  -20.9120   89.4960 C.ar      1 BR0         0.3183
     19 NAT        57.8960  -18.1170   89.4490 N.2       1 BR0        -0.1903
     20 CD1        54.5580  -18.4050   91.3270 C.3       1 BR0        -0.0142
     21 CD2        55.9350  -19.5950   89.5660 C.ar      1 BR0         0.2259
     22 OXT        50.7220  -20.0610   89.4940 O.co2     1 BR0        -0.5653
     23 H1         53.8383  -22.0203   90.1800 H         1 BR0         0.3099
     24 H2         52.9185  -20.5497   88.0500 H         1 BR0         0.0947
     25 H3         53.5083  -18.4092   88.1353 H         1 BR0         0.0439
     26 H4         55.2668  -17.5399   89.4596 H         1 BR0         0.0883
     27 H5         58.3897  -22.5434   88.9224 H         1 BR0         0.1273
     28 H6         59.2228  -20.2230   89.0299 H         1 BR0         0.1700
     29 H7         52.5666  -19.0908   91.8763 H         1 BR0         0.0271
     30 H8         52.8309  -17.3279   92.0981 H         1 BR0         0.0271
     31 H9         51.5224  -18.2678   89.9044 H         1 BR0         0.0276
     32 H10        52.6516  -16.8775   89.7687 H         1 BR0         0.0276
     33 H11        55.0966  -17.5562   91.7735 H         1 BR0         0.0345
     34 H12        54.8544  -19.3351   91.8340 H         1 BR0         0.0345
@<TRIPOS>BOND
     1    1    3 ar 
     2    4    1 1  
     3    1   22 ar 
     4    2    4 1  
     5   18    2 1  
     6    4    5 1  
     7    5    6 1  
     8    5   14 1  
     9    6   20 1  
    10    6   21 1  
    11   15    7 ar 
    12   19    8 2  
    13   15    9 ar 
    14   19   10 2  
    15   12   11 ar 
    16   11   16 ar 
    17   17   12 ar 
    18   14   13 1  
    19   13   20 1  
    20   16   15 1  
    21   16   18 ar 
    22   17   19 1  
    23   17   21 ar 
    24   18   21 ar 
    25    2   23 1  
    26    4   24 1  
    27    5   25 1  
    28    6   26 1  
    29   11   27 1  
    30   12   28 1  
    31   13   29 1  
    32   13   30 1  
    33   14   31 1  
    34   14   32 1  
    35   20   33 1  
    36   20   34 1  
@<TRIPOS>SUBSTRUCTURE
     1 BR0         1

