### 
### Created by X-TOOL on Mon Sep 10 21:13:03 2018
### 

@<TRIPOS>MOLECULE
3o5x_ligand
   68    73     1     0     0
SMALL
GAST_HUCK


@<TRIPOS>ATOM
      1 C1         27.7690    3.8870   -0.0110 C.ar      1 JZG         0.0612
      2 N1         28.6990    4.5120    0.8080 N.pl3     1 JZG        -0.2676
      3 O1         24.3590    2.6430   -0.5970 O.3       1 JZG        -0.3351
      4 C2         26.3930    3.5860    0.2170 C.ar      1 JZG        -0.0109
      5 N2         31.7020    2.9690   -2.1170 N.2       1 JZG        -0.2240
      6 O2         24.6490    2.3840   -3.5750 O.co2     1 JZG        -0.5661
      7 C3         25.6650    2.9240   -0.8190 C.ar      1 JZG         0.0907
      8 N3         32.3380    3.3190   -3.2660 N.2       1 JZG        -0.0947
      9 O3         26.0570    0.7180   -3.4810 O.co2     1 JZG        -0.5661
     10 C4         26.3060    2.5600   -2.0610 C.ar      1 JZG         0.0268
     11 N4         31.8530    4.3730   -3.9570 N.pl3     1 JZG        -0.1707
     12 O4         34.6400    6.8730   -6.1510 O.2       1 JZG        -0.3841
     13 C5         27.6870    2.8790   -2.2630 C.ar      1 JZG        -0.0607
     14 N5         34.9450    6.7200   -3.9340 N.am      1 JZG        -0.2323
     15 C6         28.4300    3.5510   -1.2270 C.ar      1 JZG        -0.0172
     16 C7         25.6260    1.9080   -3.0620 C.2       1 JZG         0.0528
     17 C8         29.7770    4.0070   -1.1150 C.2       1 JZG        -0.0083
     18 C9         29.9300    4.5960    0.1530 C.2       1 JZG         0.0678
     19 C10        28.4050    5.0160    2.1800 C.3       1 JZG         0.0381
     20 C11        31.0640    5.1560    0.6610 C.ar      1 JZG        -0.0016
     21 C12        31.3840    6.5210    0.3760 C.ar      1 JZG        -0.0561
     22 C13        32.5680    7.1010    0.9080 C.ar      1 JZG        -0.0646
     23 C14        33.4350    6.3230    1.7280 C.ar      1 JZG        -0.0649
     24 C15        33.1190    4.9640    2.0150 C.ar      1 JZG        -0.0646
     25 C16        31.9390    4.3810    1.4830 C.ar      1 JZG        -0.0561
     26 C17        30.7260    3.8840   -2.0750 C.2       1 JZG         0.0511
     27 C18        30.8210    4.7300   -3.1880 C.2       1 JZG         0.0773
     28 C19        32.3230    4.9810   -5.2180 C.3       1 JZG         0.0952
     29 C20        32.6520    6.4550   -4.9720 C.3       1 JZG         0.0741
     30 C21        34.1450    6.6910   -5.0700 C.2       1 JZG         0.2077
     31 C22        35.2070    5.5980   -3.1990 C.ar      1 JZG         0.0687
     32 C23        34.6840    5.4850   -1.8800 C.ar      1 JZG        -0.0389
     33 C24        34.9450    4.3230   -1.1040 C.ar      1 JZG        -0.0662
     34 C25        35.7330    3.2630   -1.6420 C.ar      1 JZG        -0.0321
     35 C26        36.2620    3.3760   -2.9670 C.ar      1 JZG        -0.0662
     36 C27        36.0010    4.5370   -3.7410 C.ar      1 JZG        -0.0389
     37 C28        35.9730    2.1600   -0.9010 C.ar      1 JZG        -0.0276
     38 C29        36.9560    2.1840    0.1370 C.ar      1 JZG        -0.0579
     39 C30        37.1980    1.0140    0.9110 C.ar      1 JZG        -0.0637
     40 C31        36.4620   -0.1790    0.6530 C.ar      1 JZG        -0.0640
     41 C32        35.4840   -0.2040   -0.3770 C.ar      1 JZG        -0.0637
     42 C33        35.2360    0.9570   -1.1540 C.ar      1 JZG        -0.0579
     43 H1         24.2827    2.0755    0.1611 H         1 JZG         0.2482
     44 H2         25.9126    3.8525    1.1515 H         1 JZG         0.0454
     45 H3         28.1737    2.6151   -3.1950 H         1 JZG         0.0581
     46 H4         35.3422    7.5909   -3.6447 H         1 JZG         0.2272
     47 H5         27.3534    4.8102    2.4287 H         1 JZG         0.0555
     48 H6         28.5855    6.1004    2.2188 H         1 JZG         0.0555
     49 H7         29.0591    4.5092    2.9048 H         1 JZG         0.0555
     50 H8         30.7231    7.1136   -0.2462 H         1 JZG         0.0598
     51 H9         32.8109    8.1347    0.6898 H         1 JZG         0.0609
     52 H10        34.3370    6.7661    2.1344 H         1 JZG         0.0591
     53 H11        33.7800    4.3746    2.6401 H         1 JZG         0.0609
     54 H12        31.7013    3.3460    1.7007 H         1 JZG         0.0598
     55 H13        30.1486    5.5609   -3.3964 H         1 JZG         0.0994
     56 H14        31.5347    4.9021   -5.9811 H         1 JZG         0.0678
     57 H15        33.2245    4.4558   -5.5665 H         1 JZG         0.0678
     58 H16        32.3061    6.7400   -3.9675 H         1 JZG         0.0538
     59 H17        32.1384    7.0707   -5.7251 H         1 JZG         0.0538
     60 H18        34.0847    6.2877   -1.4659 H         1 JZG         0.0510
     61 H19        34.5439    4.2423   -0.1002 H         1 JZG         0.0590
     62 H20        36.8628    2.5739   -3.3801 H         1 JZG         0.0590
     63 H21        36.4035    4.6204   -4.7440 H         1 JZG         0.0510
     64 H22        37.5158    3.0911    0.3342 H         1 JZG         0.0602
     65 H23        37.9433    1.0304    1.6980 H         1 JZG         0.0612
     66 H24        36.6488   -1.0686    1.2436 H         1 JZG         0.0599
     67 H25        34.9255   -1.1128   -0.5699 H         1 JZG         0.0612
     68 H26        34.4890    0.9342   -1.9392 H         1 JZG         0.0602
@<TRIPOS>BOND
     1    2    1 1  
     2    1    4 ar 
     3   15    1 ar 
     4   18    2 1  
     5    2   19 1  
     6    7    3 1  
     7    4    7 ar 
     8    8    5 2  
     9   26    5 1  
    10   16    6 ar 
    11   10    7 ar 
    12   11    8 1  
    13   16    9 ar 
    14   13   10 ar 
    15   10   16 1  
    16   11   27 1  
    17   28   11 1  
    18   30   12 2  
    19   15   13 ar 
    20   30   14 am 
    21   14   31 1  
    22   17   15 1  
    23   17   18 2  
    24   26   17 1  
    25   18   20 1  
    26   20   21 ar 
    27   20   25 ar 
    28   21   22 ar 
    29   22   23 ar 
    30   24   23 ar 
    31   25   24 ar 
    32   27   26 2  
    33   29   28 1  
    34   29   30 1  
    35   31   32 ar 
    36   31   36 ar 
    37   32   33 ar 
    38   33   34 ar 
    39   34   35 ar 
    40   34   37 1  
    41   35   36 ar 
    42   37   38 ar 
    43   37   42 ar 
    44   38   39 ar 
    45   39   40 ar 
    46   40   41 ar 
    47   41   42 ar 
    48    3   43 1  
    49    4   44 1  
    50   13   45 1  
    51   14   46 1  
    52   19   47 1  
    53   19   48 1  
    54   19   49 1  
    55   21   50 1  
    56   22   51 1  
    57   23   52 1  
    58   24   53 1  
    59   25   54 1  
    60   27   55 1  
    61   28   56 1  
    62   28   57 1  
    63   29   58 1  
    64   29   59 1  
    65   32   60 1  
    66   33   61 1  
    67   35   62 1  
    68   36   63 1  
    69   38   64 1  
    70   39   65 1  
    71   40   66 1  
    72   41   67 1  
    73   42   68 1  
@<TRIPOS>SUBSTRUCTURE
     1 JZG         1

