### 
### Created by X-TOOL on Mon Sep 10 21:13:06 2018
### 

@<TRIPOS>MOLECULE
3o64_ligand
   68    71     1     0     0
SMALL
GAST_HUCK


@<TRIPOS>ATOM
      1 C1         49.1300   34.7210   36.7950 C.3       1 786         0.0363
      2 N2         50.4790   35.1680   37.2090 N.am      1 786        -0.2588
      3 C3         51.2810   35.3960   35.9750 C.3       1 786         0.0751
      4 C4         50.3740   35.3450   34.7750 C.3       1 786        -0.0199
      5 C5         49.0530   34.7020   35.2340 C.3       1 786        -0.0287
      6 C6         50.9450   35.3250   38.3890 C.2       1 786         0.2142
      7 O7         52.1250   35.7140   38.5950 O.2       1 786        -0.3936
      8 C8         50.0500   35.0120   39.6090 C.3       1 786         0.1867
      9 C9         50.1900   33.4520   39.7620 C.3       1 786         0.1866
     10 C10        49.1620   33.0060   40.7920 C.2       1 786         0.2119
     11 O11        50.7130   35.6130   40.6930 O.3       1 786        -0.3667
     12 O12        47.9420   32.9010   40.4720 O.2       1 786        -0.3938
     13 N13        49.6120   32.7700   42.0450 N.am      1 786        -0.2714
     14 O14        51.5840   33.2440   40.2350 O.3       1 786        -0.3667
     15 C15        48.7390   32.3410   43.1710 C.3       1 786         0.0700
     16 C16        49.5510   31.5300   44.1850 C.ar      1 786        -0.0242
     17 C17        48.9270   31.1400   45.4290 C.ar      1 786        -0.0612
     18 C18        49.6830   30.4070   46.3800 C.ar      1 786        -0.0310
     19 C19        51.0150   30.0310   46.1250 C.ar      1 786         0.1059
     20 C20        51.6340   30.3890   44.9090 C.ar      1 786        -0.0310
     21 C21        50.9000   31.1520   43.9490 C.ar      1 786        -0.0612
     22 N22        51.7540   29.2610   47.0750 N.pl3     1 786        -0.1679
     23 C23        52.2620   34.1990   35.8250 C.2       1 786         0.0233
     24 N24        51.1560   28.2120   47.8410 N.2       1 786        -0.2076
     25 C25        52.1090   27.7200   48.6010 C.2       1 786        -0.0061
     26 C26        53.3570   28.4400   48.3260 C.2       1 786        -0.0478
     27 C27        53.0710   29.3530   47.4110 C.2       1 786         0.0629
     28 N28        51.9600   32.8990   36.2830 N.2       1 786        -0.3114
     29 C29        52.8490   31.9010   36.1040 C.2       1 786         0.1779
     30 S30        54.1990   32.6630   35.3060 S.3       1 786         0.0233
     31 C31        53.4660   34.2730   35.2410 C.2       1 786         0.1376
     32 N32        52.8120   30.5620   36.4460 N.pl3     1 786        -0.2876
     33 C33        51.4700   30.2370   36.9190 C.3       1 786         0.0218
     34 C34        48.0630   33.5780   43.8260 C.3       1 786        -0.0328
     35 S35        54.2870   35.7030   34.5090 S.o2      1 786        -0.0101
     36 O36        54.5430   35.2880   33.1410 O.2       1 786        -0.1736
     37 O37        55.5760   35.9060   35.1580 O.2       1 786        -0.1736
     38 C38        53.4180   37.2770   34.6170 C.3       1 786         0.0558
     39 H          48.3798   35.4058   37.1904 H         1 786         0.0524
     40 H          48.9405   33.7203   37.1833 H         1 786         0.0524
     41 H          51.7930   36.3561   36.0404 H         1 786         0.0692
     42 H          50.8280   34.7619   33.9738 H         1 786         0.0307
     43 H          50.1986   36.3465   34.3821 H         1 786         0.0307
     44 H          48.1838   35.2438   34.8613 H         1 786         0.0287
     45 H          48.9331   33.6916   34.8432 H         1 786         0.0287
     46 H          49.0132   35.3405   39.5373 H         1 786         0.0891
     47 H          50.0137   32.8839   38.8486 H         1 786         0.0891
     48 H          51.6387   35.3589   40.6812 H         1 786         0.2136
     49 H          50.6077   32.8932   42.2290 H         1 786         0.1880
     50 H          51.7269   33.7495   41.0385 H         1 786         0.2136
     51 H          47.9463   31.6965   42.7912 H         1 786         0.0705
     52 H          47.8898   31.4054   45.6338 H         1 786         0.0543
     53 H          49.2224   30.1293   47.3281 H         1 786         0.0574
     54 H          52.6610   30.0870   44.7038 H         1 786         0.0574
     55 H          51.3840   31.4494   43.0187 H         1 786         0.0543
     56 H          51.9910   26.9085   49.3191 H         1 786         0.0654
     57 H          54.3290   28.2589   48.7849 H         1 786         0.0343
     58 H          53.7793   30.0674   46.9916 H         1 786         0.0991
     59 H          53.5930   29.9094   36.3789 H         1 786         0.1896
     60 H          51.2350   30.8489   37.7899 H         1 786         0.0493
     61 H          50.7485   30.4376   36.1270 H         1 786         0.0493
     62 H          51.4278   29.1826   37.1921 H         1 786         0.0493
     63 H          48.8312   34.2518   44.2055 H         1 786         0.0273
     64 H          47.4584   34.0965   43.0819 H         1 786         0.0273
     65 H          47.4271   33.2500   44.6483 H         1 786         0.0273
     66 H          54.0162   38.0542   34.1413 H         1 786         0.0463
     67 H          52.4566   37.1953   34.1100 H         1 786         0.0463
     68 H          53.2573   37.5307   35.6648 H         1 786         0.0463
@<TRIPOS>BOND
     1    1    2 1  
     2    1    5 1  
     3    2    3 1  
     4    2    6 am 
     5    3    4 1  
     6    3   23 1  
     7    4    5 1  
     8    6    7 2  
     9    6    8 1  
    10    8    9 1  
    11    8   11 1  
    12    9   10 1  
    13    9   14 1  
    14   10   12 2  
    15   10   13 am 
    16   13   15 1  
    17   15   16 1  
    18   15   34 1  
    19   16   17 ar 
    20   16   21 ar 
    21   17   18 ar 
    22   18   19 ar 
    23   19   20 ar 
    24   19   22 1  
    25   20   21 ar 
    26   22   24 1  
    27   22   27 1  
    28   23   28 1  
    29   23   31 2  
    30   24   25 2  
    31   25   26 1  
    32   26   27 2  
    33   28   29 2  
    34   29   30 1  
    35   29   32 1  
    36   30   31 1  
    37   31   35 1  
    38   32   33 1  
    39   35   36 2  
    40   35   37 2  
    41   35   38 1  
    42    1   39 1  
    43    1   40 1  
    44    3   41 1  
    45    4   42 1  
    46    4   43 1  
    47    5   44 1  
    48    5   45 1  
    49    8   46 1  
    50    9   47 1  
    51   11   48 1  
    52   13   49 1  
    53   14   50 1  
    54   15   51 1  
    55   17   52 1  
    56   18   53 1  
    57   20   54 1  
    58   21   55 1  
    59   25   56 1  
    60   26   57 1  
    61   27   58 1  
    62   32   59 1  
    63   33   60 1  
    64   33   61 1  
    65   33   62 1  
    66   34   63 1  
    67   34   64 1  
    68   34   65 1  
    69   38   66 1  
    70   38   67 1  
    71   38   68 1  
@<TRIPOS>SUBSTRUCTURE
     1 786         1

