### 
### Created by X-TOOL on Mon Sep 10 21:13:03 2018
### 

@<TRIPOS>MOLECULE
3o6t_ligand
   28    30     1     0     0
SMALL
GAST_HUCK


@<TRIPOS>ATOM
      1 C1         30.0440  -20.2990   20.5180 C.ar      1 PX5        -0.0569
      2 C2         30.8020  -21.0290   19.6680 C.ar      1 PX5        -0.0338
      3 C3         30.3330  -21.3120   18.4280 C.ar      1 PX5         0.0815
      4 C4         29.0970  -20.8860   18.0320 C.ar      1 PX5         0.0755
      5 C5         28.3380  -20.1420   18.9180 C.ar      1 PX5        -0.0337
      6 C6         28.8100  -19.8460   20.1550 C.ar      1 PX5        -0.0578
      7 S7         28.6660  -21.2860   16.5120 S.3       1 PX5        -0.0016
      8 C8         30.1510  -22.0540   16.3840 C.2       1 PX5         0.0922
      9 N9         30.8950  -21.9940   17.4620 N.2       1 PX5        -0.2541
     10 C10        30.7240  -22.8440   15.2840 C.3       1 PX5         0.0851
     11 C11        32.1960  -22.6720   15.3820 C.2       1 PX5        -0.0533
     12 C12        33.0650  -23.6350   15.5830 C.2       1 PX5         0.0361
     13 C13        32.6070  -24.9110   16.0840 C.2       1 PX5         0.1737
     14 C14        31.1410  -25.1140   16.3310 C.3       1 PX5         0.0230
     15 C15        30.2380  -24.2680   15.4520 C.3       1 PX5        -0.0446
     16 O16        30.3210  -22.4100   14.0370 O.3       1 PX5        -0.4463
     17 O17        33.3890  -25.7760   16.2880 O.2       1 PX5        -0.3448
     18 H          30.4269  -20.0684   21.5121 H         1 PX5         0.0598
     19 H          31.7836  -21.3874   19.9782 H         1 PX5         0.0678
     20 H          27.3507  -19.7901   18.6190 H         1 PX5         0.0603
     21 H          28.2118  -19.2549   20.8484 H         1 PX5         0.0671
     22 H          32.5879  -21.6602   15.2782 H         1 PX5         0.0636
     23 H          34.1226  -23.4738   15.3740 H         1 PX5         0.1289
     24 H          30.9462  -24.8252   17.3638 H         1 PX5         0.0480
     25 H          30.9193  -26.1578   16.1088 H         1 PX5         0.0480
     26 H          30.2183  -24.7270   14.4635 H         1 PX5         0.0152
     27 H          29.2594  -24.2267   15.9302 H         1 PX5         0.0152
     28 H          29.3702  -22.5138   13.9552 H         1 PX5         0.1858
@<TRIPOS>BOND
     1    1    2 ar 
     2    1    6 ar 
     3    2    3 ar 
     4    3    4 ar 
     5    3    9 1  
     6    4    5 ar 
     7    4    7 1  
     8    5    6 ar 
     9    7    8 1  
    10    8    9 2  
    11    8   10 1  
    12   10   11 1  
    13   10   15 1  
    14   10   16 1  
    15   11   12 2  
    16   12   13 1  
    17   13   14 1  
    18   13   17 2  
    19   14   15 1  
    20    1   18 1  
    21    2   19 1  
    22    5   20 1  
    23    6   21 1  
    24   11   22 1  
    25   12   23 1  
    26   14   24 1  
    27   14   25 1  
    28   15   26 1  
    29   15   27 1  
    30   16   28 1  
@<TRIPOS>SUBSTRUCTURE
     1 PX5         1

