### 
### Created by X-TOOL on Mon Sep 10 21:13:05 2018
### 

@<TRIPOS>MOLECULE
3o7u_ligand
   15    15     1     0     0
SMALL
GAST_HUCK


@<TRIPOS>ATOM
      1 N1        -68.6610   18.1380  -14.9840 N.am      1 O7U        -0.2028
      2 C2        -68.5570   19.5050  -15.2590 C.2       1 O7U         0.3221
      3 O2        -69.2330   20.4050  -14.7200 O.2       1 O7U        -0.3826
      4 N3        -67.6650   19.8970  -16.2220 N.am      1 O7U        -0.1669
      5 N4        -66.7920   19.1800  -18.6490 N.am      1 O7U        -0.2903
      6 O4        -65.2930   19.4280  -16.6230 O.2       1 O7U        -0.4926
      7 P4        -66.6200   18.9560  -17.0440 P.3       1 O7U         0.1734
      8 C5        -66.9530   17.2680  -16.5620 C.2       1 O7U         0.0354
      9 C6        -67.8540   17.1280  -15.6640 C.2       1 O7U         0.0632
     10 H1        -69.3169   17.8385  -14.2911 H         1 O7U         0.2452
     11 H2        -67.6542   20.8716  -16.4457 H         1 O7U         0.2139
     12 H3        -66.2175   18.6702  -19.2894 H         1 O7U         0.1633
     13 H4        -67.4720   19.8273  -18.9935 H         1 O7U         0.1633
     14 H5        -66.4278   16.4206  -17.0002 H         1 O7U         0.0326
     15 H6        -68.0485   16.1003  -15.3609 H         1 O7U         0.1226
@<TRIPOS>BOND
     1    1    2 am 
     2    1    9 1  
     3    2    3 2  
     4    2    4 am 
     5    4    7 am 
     6    7    5 am 
     7    7    6 2  
     8    7    8 1  
     9    8    9 2  
    10    1   10 1  
    11    4   11 1  
    12    5   12 1  
    13    5   13 1  
    14    8   14 1  
    15    9   15 1  
@<TRIPOS>SUBSTRUCTURE
     1 O7U         1

