### 
### Created by X-TOOL on Mon Sep 10 21:13:03 2018
### 

@<TRIPOS>MOLECULE
3o84_ligand
   38    41     1     0     0
SMALL
GAST_HUCK


@<TRIPOS>ATOM
      1 C1        -26.0130   -6.7110   15.7700 C.ar      1 HTJ         0.0031
      2 C2        -26.5260   -6.6180   14.4700 C.ar      1 HTJ        -0.0298
      3 C3        -25.6570   -6.4870   13.3840 C.ar      1 HTJ         0.0075
      4 C4        -24.2820   -6.4540   13.6650 C.ar      1 HTJ        -0.0298
      5 C5        -23.8100   -6.5470   14.9800 C.ar      1 HTJ         0.0031
      6 N6        -24.6870   -6.6630   15.9970 N.ar      1 HTJ        -0.3066
      7 C7        -26.1860   -6.3840   11.9390 C.3       1 HTJ         0.1099
      8 N8        -25.0660   -5.8580   11.1550 N.pl3     1 HTJ        -0.1690
      9 C9        -24.0360   -6.4940   10.5960 C.ar      1 HTJ         0.1646
     10 C10       -23.2420   -5.4840   10.0760 C.ar      1 HTJ         0.0482
     11 C11       -23.8160   -4.1910   10.3520 C.2       1 HTJ         0.0318
     12 N12       -24.9560   -4.4560   11.0390 N.2       1 HTJ        -0.1932
     13 N13       -23.7340   -7.7900   10.4820 N.ar      1 HTJ        -0.2702
     14 C14       -22.6230   -8.1920    9.8480 C.ar      1 HTJ         0.0452
     15 C15       -21.7670   -7.2370    9.2810 C.ar      1 HTJ        -0.0233
     16 C16       -22.0760   -5.8720    9.3910 C.ar      1 HTJ         0.0262
     17 C18       -21.1610   -4.8390    8.7880 C.2       1 HTJ         0.0697
     18 O19       -20.3330   -5.1930    7.9310 O.co2     1 HTJ        -0.5577
     19 O20       -21.2200   -3.6420    9.1530 O.co2     1 HTJ        -0.5577
     20 C21       -22.3660   -9.6560    9.7730 C.ar      1 HTJ        -0.0022
     21 C22       -23.1510  -10.5250   10.5450 C.ar      1 HTJ        -0.0506
     22 C23       -22.9350  -11.9050   10.4880 C.ar      1 HTJ        -0.0591
     23 C24       -21.9410  -12.4240    9.6560 C.ar      1 HTJ        -0.0598
     24 C25       -21.1480  -11.5670    8.8880 C.ar      1 HTJ        -0.0591
     25 C26       -21.3680  -10.1790    8.9390 C.ar      1 HTJ        -0.0506
     26 H1        -26.6940   -6.8233   16.6059 H         1 HTJ         0.0803
     27 H2        -27.5972   -6.6477   14.3066 H         1 HTJ         0.0652
     28 H3        -23.5738   -6.3549   12.8503 H         1 HTJ         0.0652
     29 H4        -22.7447   -6.5258   15.1791 H         1 HTJ         0.0803
     30 H5        -27.0454   -5.6991   11.8910 H         1 HTJ         0.0811
     31 H6        -26.4855   -7.3748   11.5666 H         1 HTJ         0.0811
     32 H7        -23.4215   -3.2156   10.0710 H         1 HTJ         0.0736
     33 H8        -20.8701   -7.5515    8.7597 H         1 HTJ         0.0659
     34 H9        -23.9272  -10.1255   11.1875 H         1 HTJ         0.0642
     35 H10       -23.5399  -12.5730   11.0905 H         1 HTJ         0.0623
     36 H11       -21.7839  -13.4954    9.6056 H         1 HTJ         0.0633
     37 H12       -20.3660  -11.9708    8.2552 H         1 HTJ         0.0623
     38 H13       -20.7651   -9.5127    8.3327 H         1 HTJ         0.0642
@<TRIPOS>BOND
     1    1    2 ar 
     2    1    6 ar 
     3    2    3 ar 
     4    3    4 ar 
     5    3    7 1  
     6    4    5 ar 
     7    5    6 ar 
     8    7    8 1  
     9    8    9 1  
    10    8   12 1  
    11    9   10 ar 
    12    9   13 ar 
    13   10   11 1  
    14   10   16 ar 
    15   11   12 2  
    16   13   14 ar 
    17   14   15 ar 
    18   14   20 1  
    19   15   16 ar 
    20   16   17 1  
    21   17   18 ar 
    22   17   19 ar 
    23   20   21 ar 
    24   20   25 ar 
    25   21   22 ar 
    26   22   23 ar 
    27   23   24 ar 
    28   24   25 ar 
    29    1   26 1  
    30    2   27 1  
    31    4   28 1  
    32    5   29 1  
    33    7   30 1  
    34    7   31 1  
    35   11   32 1  
    36   15   33 1  
    37   21   34 1  
    38   22   35 1  
    39   23   36 1  
    40   24   37 1  
    41   25   38 1  
@<TRIPOS>SUBSTRUCTURE
     1 HTJ         1

