### 
### Created by X-TOOL on Mon Sep 10 21:13:03 2018
### 

@<TRIPOS>MOLECULE
3o8g_ligand
   36    38     1     0     0
SMALL
GAST_HUCK


@<TRIPOS>ATOM
      1 C1         33.5260   71.9530   10.9420 C.3       1 O8G        -0.0107
      2 C4         33.5350   73.3910   10.4800 C.3       1 O8G         0.0369
      3 N7         32.5430   74.2860   11.1860 N.am      1 O8G        -0.2685
      4 C8         32.1080   73.9630   12.6280 C.3       1 O8G         0.0369
      5 C11        32.1780   72.4660   12.9940 C.3       1 O8G        -0.0107
      6 C14        33.5050   71.8790   12.5000 C.3       1 O8G         0.0595
      7 C16        32.0750   75.4260   10.6050 C.2       1 O8G         0.2400
      8 O17        32.4000   75.7790    9.4590 O.2       1 O8G        -0.3911
      9 C18        31.0870   76.3590   11.3450 C.3       1 O8G         0.2950
     10 N21        33.4510   69.3670   12.2690 N.2       1 O8G        -0.2752
     11 C22        33.5700   70.4560   13.0110 C.2       1 O8G         0.2198
     12 O23        33.7250   70.1320   14.3310 O.3       1 O8G        -0.1351
     13 N24        33.6800   68.7530   14.3610 N.2       1 O8G        -0.1267
     14 C25        33.5130   68.3280   13.1060 C.2       1 O8G         0.1131
     15 C26        33.4380   66.9920   12.7280 C.2       1 O8G         0.0525
     16 C27        33.4810   66.4560   11.5080 C.2       1 O8G        -0.0674
     17 C29        33.3460   65.1090   11.5110 C.2       1 O8G        -0.0745
     18 C31        33.2130   64.4960   12.7030 C.2       1 O8G        -0.0060
     19 S33        33.2400   65.7390   13.8520 S.3       1 O8G        -0.0380
     20 N34        30.4250   77.2490   10.3440 N.2       1 O8G         0.1878
     21 N36        30.9770   78.1920   10.0460 N.1       1 O8G         0.1318
     22 N37        31.5150   79.1250    9.7240 N.1       1 O8G         0.2335
     23 H1         34.4282   71.4471   10.5679 H         1 O8G         0.0319
     24 H2         32.6321   71.4506   10.5439 H         1 O8G         0.0319
     25 H3         33.3060   73.4070    9.4042 H         1 O8G         0.0524
     26 H4         34.5432   73.7983   10.6464 H         1 O8G         0.0524
     27 H5         31.0693   74.3008   12.7580 H         1 O8G         0.0524
     28 H6         32.7626   74.5167   13.3171 H         1 O8G         0.0524
     29 H7         31.3418   71.9329   12.5179 H         1 O8G         0.0319
     30 H8         32.1111   72.3523   14.0861 H         1 O8G         0.0319
     31 H9         34.3521   72.4541   12.9021 H         1 O8G         0.0579
     32 H10        31.6338   76.9698   12.0784 H         1 O8G         0.1210
     33 H11        30.3270   75.7562   11.8637 H         1 O8G         0.1210
     34 H12        33.6116   67.0430   10.6001 H         1 O8G         0.0438
     35 H13        33.3450   64.5408   10.5820 H         1 O8G         0.0422
     36 H14        33.1100   63.4278   12.8882 H         1 O8G         0.0740
@<TRIPOS>BOND
     1    1    2 1  
     2    1    6 1  
     3    2    3 1  
     4    3    4 1  
     5    3    7 am 
     6    4    5 1  
     7    5    6 1  
     8    6   11 1  
     9    7    8 2  
    10    7    9 1  
    11    9   20 1  
    12   11   10 2  
    13   10   14 1  
    14   11   12 1  
    15   12   13 1  
    16   13   14 2  
    17   14   15 1  
    18   15   16 2  
    19   15   19 1  
    20   16   17 1  
    21   17   18 2  
    22   18   19 1  
    23   20   21 2  
    24   21   22 3  
    25    1   23 1  
    26    1   24 1  
    27    2   25 1  
    28    2   26 1  
    29    4   27 1  
    30    4   28 1  
    31    5   29 1  
    32    5   30 1  
    33    6   31 1  
    34    9   32 1  
    35    9   33 1  
    36   16   34 1  
    37   17   35 1  
    38   18   36 1  
@<TRIPOS>SUBSTRUCTURE
     1 O8G         1

