### 
### Created by X-TOOL on Mon Sep 10 21:13:03 2018
### 

@<TRIPOS>MOLECULE
3o8h_ligand
   58    62     1     0     0
SMALL
GAST_HUCK


@<TRIPOS>ATOM
      1 C07        28.0540   82.1680    7.4520 C.ar      1 O8H        -0.0321
      2 C05        27.2350   82.9970    8.2180 C.ar      1 O8H        -0.0488
      3 C04        25.9040   82.6300    8.5020 C.ar      1 O8H         0.0096
      4 I01        24.6180   83.8490    9.6750 I         1 O8H        -0.0493
      5 C02        25.3820   81.4300    8.0250 C.ar      1 O8H        -0.0488
      6 C10        26.2030   80.6000    7.2680 C.ar      1 O8H        -0.0321
      7 C09        27.5150   80.9710    6.9840 C.ar      1 O8H         0.1108
      8 S12        28.4690   79.9030    6.0280 S.o2      1 O8H         0.0706
      9 O13        27.6110   78.9090    5.3390 O.2       1 O8H        -0.1499
     10 O16        29.1270   80.7600    4.9980 O.2       1 O8H        -0.1499
     11 N14        29.5920   79.1080    6.9720 N.am      1 O8H        -0.2393
     12 C17        28.9240   78.2280    7.9430 C.3       1 O8H         0.0611
     13 C20        29.9390   77.6250    8.9170 C.2       1 O8H         0.0554
     14 C24        29.8280   76.4810    9.5560 C.2       1 O8H         0.0736
     15 N21        31.0940   78.1370    9.3240 N.2       1 O8H        -0.2247
     16 N22        31.6430   77.3740   10.1170 N.2       1 O8H        -0.0996
     17 N23        30.9270   76.3990   10.2960 N.pl3     1 O8H        -0.1622
     18 C26        31.2630   75.2630   11.1590 C.3       1 O8H         0.1634
     19 C29        32.0750   74.2450   10.3470 C.2       1 O8H         0.2122
     20 O31        32.3400   74.4860    9.1550 O.2       1 O8H        -0.3935
     21 N30        32.4690   73.0740   10.9200 N.am      1 O8H        -0.2703
     22 C43        33.2680   72.1130   10.1070 C.3       1 O8H         0.0368
     23 C40        33.2430   70.6690   10.6330 C.3       1 O8H        -0.0107
     24 C32        32.1400   72.7990   12.3710 C.3       1 O8H         0.0368
     25 C35        32.2430   71.3060   12.7750 C.3       1 O8H        -0.0107
     26 C38        33.4370   70.6120   12.1370 C.3       1 O8H         0.0595
     27 C46        33.4820   69.1730   12.6070 C.2       1 O8H         0.2198
     28 N50        33.4450   68.0780   11.8410 N.2       1 O8H        -0.2752
     29 O47        33.5820   68.8120   13.9170 O.3       1 O8H        -0.1351
     30 N48        33.5880   67.3910   13.9060 N.2       1 O8H        -0.1267
     31 C49        33.5000   66.9830   12.6320 C.2       1 O8H         0.1131
     32 C51        33.4440   65.6450   12.2000 C.2       1 O8H         0.0525
     33 C52        33.6620   65.1600   10.9830 C.2       1 O8H        -0.0674
     34 C54        33.5020   63.8210   10.8530 C.2       1 O8H        -0.0745
     35 C56        33.1420   63.1210   11.9420 C.2       1 O8H        -0.0060
     36 S58        33.0030   64.2680   13.1630 S.3       1 O8H        -0.0380
     37 H1         29.0775   82.4458    7.2277 H         1 O8H         0.0644
     38 H2         27.6261   83.9335    8.5990 H         1 O8H         0.0646
     39 H3         24.3573   81.1485    8.2391 H         1 O8H         0.0646
     40 H4         25.8184   79.6571    6.8963 H         1 O8H         0.0644
     41 H5         30.5828   79.2151    6.8890 H         1 O8H         0.1693
     42 H6         28.4153   77.4156    7.4033 H         1 O8H         0.0592
     43 H7         28.1835   78.8119    8.5093 H         1 O8H         0.0592
     44 H8         29.0142   75.7601    9.4922 H         1 O8H         0.0901
     45 H9         30.3391   74.7910   11.5246 H         1 O8H         0.0893
     46 H10        31.8594   75.6129   12.0145 H         1 O8H         0.0893
     47 H11        34.3126   72.4573   10.0942 H         1 O8H         0.0524
     48 H12        32.8691   72.1135    9.0819 H         1 O8H         0.0524
     49 H13        34.0500   70.0998   10.1484 H         1 O8H         0.0319
     50 H14        32.2727   70.2157   10.3821 H         1 O8H         0.0319
     51 H15        31.1108   73.1374   12.5613 H         1 O8H         0.0524
     52 H16        32.8371   73.3746   12.9977 H         1 O8H         0.0524
     53 H17        31.3244   70.7904   12.4582 H         1 O8H         0.0319
     54 H18        32.3407   71.2422   13.8688 H         1 O8H         0.0319
     55 H19        34.3700   71.1231   12.4167 H         1 O8H         0.0579
     56 H20        33.9497   65.7953   10.1466 H         1 O8H         0.0438
     57 H21        33.6603   63.3272    9.8954 H         1 O8H         0.0422
     58 H22        32.9767   62.0472   12.0170 H         1 O8H         0.0740
@<TRIPOS>BOND
     1    1    2 ar 
     2    1    7 ar 
     3    2    3 ar 
     4    3    4 1  
     5    3    5 ar 
     6    5    6 ar 
     7    6    7 ar 
     8    7    8 1  
     9    8    9 2  
    10    8   10 2  
    11    8   11 am 
    12   11   12 1  
    13   12   13 1  
    14   13   14 2  
    15   13   15 1  
    16   14   17 1  
    17   15   16 2  
    18   16   17 1  
    19   17   18 1  
    20   18   19 1  
    21   19   20 2  
    22   19   21 am 
    23   21   22 1  
    24   21   24 1  
    25   22   23 1  
    26   23   26 1  
    27   24   25 1  
    28   25   26 1  
    29   26   27 1  
    30   27   28 2  
    31   27   29 1  
    32   28   31 1  
    33   29   30 1  
    34   30   31 2  
    35   31   32 1  
    36   32   33 2  
    37   32   36 1  
    38   33   34 1  
    39   34   35 2  
    40   35   36 1  
    41    1   37 1  
    42    2   38 1  
    43    5   39 1  
    44    6   40 1  
    45   11   41 1  
    46   12   42 1  
    47   12   43 1  
    48   14   44 1  
    49   18   45 1  
    50   18   46 1  
    51   22   47 1  
    52   22   48 1  
    53   23   49 1  
    54   23   50 1  
    55   24   51 1  
    56   24   52 1  
    57   25   53 1  
    58   25   54 1  
    59   26   55 1  
    60   33   56 1  
    61   34   57 1  
    62   35   58 1  
@<TRIPOS>SUBSTRUCTURE
     1 O8H         1

