### 
### Created by X-TOOL on Mon Sep 10 21:13:04 2018
### 

@<TRIPOS>MOLECULE
3o8p_ligand
   40    41     1     0     0
SMALL
GAST_HUCK


@<TRIPOS>ATOM
      1 C1         -0.8030   -2.9520  -14.5390 C.2       1 BMU         0.3229
      2 O1          0.0310   -2.3730  -15.2310 O.2       1 BMU        -0.3788
      3 N2         -2.1040   -3.0490  -14.8690 N.am      1 BMU        -0.2133
      4 C3         -2.7360   -2.3890  -15.8820 C.ar      1 BMU         0.0677
      5 C4         -4.0960   -2.0840  -15.7160 C.ar      1 BMU        -0.0407
      6 C5         -4.8160   -1.4230  -16.7190 C.ar      1 BMU        -0.0617
      7 C6         -4.1630   -1.0680  -17.9120 C.ar      1 BMU         0.0238
      8 CL6        -5.0820   -0.2270  -19.2070 Cl        1 BMU        -0.0850
      9 C7         -2.8090   -1.3880  -18.0990 C.ar      1 BMU        -0.0617
     10 C8         -2.0950   -2.0430  -17.0800 C.ar      1 BMU        -0.0407
     11 N9         -0.4560   -3.5630  -13.3910 N.am      1 BMU        -0.1819
     12 C10         0.7040   -3.3750  -12.7410 C.2       1 BMU         0.2023
     13 C14         1.4390   -2.2490  -12.3970 C.2       1 BMU        -0.0215
     14 C13         2.5270   -2.7860  -11.7150 C.2       1 BMU         0.0006
     15 N12         2.4910   -4.1290  -11.5890 N.2       1 BMU        -0.1752
     16 N11         1.3080   -4.4800  -12.2600 N.pl3     1 BMU        -0.1522
     17 C15         1.0360   -5.9370  -12.2970 C.3       1 BMU         0.0718
     18 C17         3.0350   -1.0780  -10.0050 C.3       1 BMU        -0.0827
     19 C18         4.2430   -1.0760  -12.2520 C.3       1 BMU        -0.0827
     20 C19         4.7300   -2.7900  -10.5330 C.3       1 BMU        -0.0827
     21 C16         3.6270   -1.9280  -11.1360 C.3       1 BMU        -0.0412
     22 H1         -2.6635   -3.6667  -14.3164 H         1 BMU         0.2266
     23 H2         -4.5971   -2.3646  -14.7966 H         1 BMU         0.0502
     24 H3         -5.8646   -1.1879  -16.5770 H         1 BMU         0.0583
     25 H4         -2.3142   -1.1303  -19.0284 H         1 BMU         0.0583
     26 H5         -1.0469   -2.2809  -17.2209 H         1 BMU         0.0502
     27 H6         -1.1109   -4.2049  -12.9923 H         1 BMU         0.2336
     28 H7          1.2188   -1.2037  -12.6085 H         1 BMU         0.0214
     29 H8          1.8271   -6.4716  -11.7509 H         1 BMU         0.0621
     30 H9          1.0159   -6.2799  -13.3420 H         1 BMU         0.0621
     31 H10         0.0632   -6.1405  -11.8255 H         1 BMU         0.0621
     32 H11         3.8232   -0.4455   -9.5706 H         1 BMU         0.0142
     33 H12         2.6241   -1.7380   -9.2268 H         1 BMU         0.0142
     34 H13         2.2332   -0.4408  -10.4063 H         1 BMU         0.0142
     35 H14         4.6506   -1.7343  -13.0333 H         1 BMU         0.0142
     36 H15         5.0512   -0.4561  -11.8365 H         1 BMU         0.0142
     37 H16         3.4692   -0.4263  -12.6869 H         1 BMU         0.0142
     38 H17         4.3108   -3.4116   -9.7280 H         1 BMU         0.0142
     39 H18         5.5188   -2.1422  -10.1230 H         1 BMU         0.0142
     40 H19         5.1563   -3.4384  -11.3127 H         1 BMU         0.0142
@<TRIPOS>BOND
     1    1    2 2  
     2    1    3 am 
     3    1   11 am 
     4    3    4 1  
     5    4    5 ar 
     6    4   10 ar 
     7    5    6 ar 
     8    6    7 ar 
     9    7    8 1  
    10    7    9 ar 
    11    9   10 ar 
    12   11   12 1  
    13   12   13 2  
    14   12   16 1  
    15   13   14 1  
    16   14   15 2  
    17   14   21 1  
    18   15   16 1  
    19   16   17 1  
    20   21   18 1  
    21   21   19 1  
    22   21   20 1  
    23    3   22 1  
    24    5   23 1  
    25    6   24 1  
    26    9   25 1  
    27   10   26 1  
    28   11   27 1  
    29   13   28 1  
    30   17   29 1  
    31   17   30 1  
    32   17   31 1  
    33   18   32 1  
    34   18   33 1  
    35   18   34 1  
    36   19   35 1  
    37   19   36 1  
    38   19   37 1  
    39   20   38 1  
    40   20   39 1  
    41   20   40 1  
@<TRIPOS>SUBSTRUCTURE
     1 BMU         1

