### 
### Created by X-TOOL on Mon Sep 10 21:13:06 2018
### 

@<TRIPOS>MOLECULE
3o95_ligand
   56    57     1     0     0
SMALL
GAST_HUCK


@<TRIPOS>ATOM
      1 C5         16.3760  -35.1240   17.8240 C.ar      1 01T         0.0191
      2 C6         15.5890  -35.9600   18.8110 C.3       1 01T        -0.0065
      3 C7         14.3630  -36.6340   18.1790 C.3       1 01T        -0.0281
      4 C8         14.7360  -37.4110   16.9300 C.3       1 01T        -0.0583
      5 C10        13.8060  -37.6270   19.1850 C.3       1 01T        -0.0583
      6 C15        17.7000  -33.4600   16.0500 C.ar      1 01T        -0.0076
      7 C17        19.2310  -31.4100   15.5910 C.2       1 01T         0.0454
      8 C20        19.4490  -35.2450   15.6700 C.ar      1 01T        -0.0257
      9 C21        20.6650  -34.6510   16.0060 C.ar      1 01T        -0.0610
     10 C22        21.8440  -35.1330   15.4530 C.ar      1 01T        -0.0598
     11 C24        23.0910  -36.7040   13.9690 C.3       1 01T        -0.0309
     12 C26        19.4270  -36.3360   14.7900 C.ar      1 01T        -0.0610
     13 O19        19.0430  -30.9200   16.7280 O.co2     1 01T        -0.5665
     14 O18        20.1080  -30.9750   14.8140 O.co2     1 01T        -0.5665
     15 C16        18.3860  -32.5470   15.0540 C.3       1 01T         0.0330
     16 C3         16.5290  -33.0540   16.6830 C.ar      1 01T         0.0148
     17 C2         15.8960  -31.7010   16.4480 C.3       1 01T        -0.0143
     18 C1         14.3940  -31.8090   16.6390 C.3       1 01T        -0.0554
     19 N4         15.9190  -33.8900   17.5520 N.ar      1 01T        -0.3159
     20 C9         13.2610  -35.6570   17.8000 C.3       1 01T        -0.0583
     21 C11        17.5330  -35.5690   17.2080 C.ar      1 01T         0.0239
     22 C12        18.0690  -36.9520   17.5270 C.3       1 01T        -0.0020
     23 N13        19.3940  -36.8510   18.1140 N.4       1 01T         0.2301
     24 C14        18.1930  -34.7390   16.3030 C.ar      1 01T        -0.0048
     25 C25        20.6030  -36.8170   14.2330 C.ar      1 01T        -0.0598
     26 C23        21.8090  -36.2050   14.5690 C.ar      1 01T        -0.0456
     27 H          15.2346  -35.2972   19.6004 H         1 01T         0.0430
     28 H          16.2474  -36.7461   19.1808 H         1 01T         0.0430
     29 H          13.8612  -37.9476   16.5627 H         1 01T         0.0236
     30 H          15.0873  -36.7191   16.1646 H         1 01T         0.0236
     31 H          15.5265  -38.1225   17.1688 H         1 01T         0.0236
     32 H          13.4633  -37.0917   20.0705 H         1 01T         0.0236
     33 H          12.9701  -38.1650   18.7379 H         1 01T         0.0236
     34 H          14.5864  -38.3343   19.4658 H         1 01T         0.0236
     35 H          20.6900  -33.8112   16.7004 H         1 01T         0.0604
     36 H          22.7966  -34.6708   15.7121 H         1 01T         0.0559
     37 H          23.5625  -35.9008   13.4028 H         1 01T         0.0393
     38 H          23.7603  -37.0305   14.7650 H         1 01T         0.0393
     39 H          22.8780  -37.5418   13.3051 H         1 01T         0.0393
     40 H          18.4777  -36.8105   14.5413 H         1 01T         0.0604
     41 H          17.5792  -32.0687   14.4987 H         1 01T         0.0577
     42 H          19.0783  -33.1866   14.5065 H         1 01T         0.0577
     43 H          16.1115  -31.3691   15.4324 H         1 01T         0.0422
     44 H          16.3028  -30.9800   17.1571 H         1 01T         0.0422
     45 H          13.9896  -32.5298   15.9284 H         1 01T         0.0251
     46 H          14.1812  -32.1402   17.6554 H         1 01T         0.0251
     47 H          13.9365  -30.8342   16.4699 H         1 01T         0.0251
     48 H          12.4276  -36.2043   17.3595 H         1 01T         0.0236
     49 H          12.9209  -35.1310   18.6921 H         1 01T         0.0236
     50 H          13.6474  -34.9379   17.0777 H         1 01T         0.0236
     51 H          18.1288  -37.5333   16.6069 H         1 01T         0.0967
     52 H          17.4001  -37.4401   18.2358 H         1 01T         0.0967
     53 H          19.7437  -37.7859   18.3240 H         1 01T         0.2007
     54 H          20.0225  -36.3917   17.4548 H         1 01T         0.2007
     55 H          19.3429  -36.3047   18.9739 H         1 01T         0.2007
     56 H          20.5839  -37.6607   13.5431 H         1 01T         0.0559
@<TRIPOS>BOND
     1    1    2 1  
     2   19    1 ar 
     3    1   21 ar 
     4    2    3 1  
     5    3    4 1  
     6    3    5 1  
     7    3   20 1  
     8    6   15 1  
     9   16    6 ar 
    10    6   24 ar 
    11    7   13 ar 
    12    7   14 ar 
    13   15    7 1  
    14    8    9 ar 
    15    8   12 ar 
    16   24    8 1  
    17    9   10 ar 
    18   10   26 ar 
    19   26   11 1  
    20   12   25 ar 
    21   16   17 1  
    22   16   19 ar 
    23   17   18 1  
    24   21   22 1  
    25   21   24 ar 
    26   22   23 1  
    27   25   26 ar 
    28    2   27 1  
    29    2   28 1  
    30    4   29 1  
    31    4   30 1  
    32    4   31 1  
    33    5   32 1  
    34    5   33 1  
    35    5   34 1  
    36    9   35 1  
    37   10   36 1  
    38   11   37 1  
    39   11   38 1  
    40   11   39 1  
    41   12   40 1  
    42   15   41 1  
    43   15   42 1  
    44   17   43 1  
    45   17   44 1  
    46   18   45 1  
    47   18   46 1  
    48   18   47 1  
    49   20   48 1  
    50   20   49 1  
    51   20   50 1  
    52   22   51 1  
    53   22   52 1  
    54   23   53 1  
    55   23   54 1  
    56   23   55 1  
    57   25   56 1  
@<TRIPOS>SUBSTRUCTURE
     1 01T         1

