### 
### Created by X-TOOL on Mon Sep 10 21:13:06 2018
### 

@<TRIPOS>MOLECULE
3o99_ligand
   78    81     1     0     0
SMALL
GAST_HUCK


@<TRIPOS>ATOM
      1 N1         14.2900   34.9560   18.1170 N.pl3     1 K13        -0.3369
      2 C2         15.1850   34.3770   17.2940 C.ar      1 K13         0.0353
      3 C3         16.2760   35.0950   16.7970 C.ar      1 K13        -0.0429
      4 C4         17.1690   34.4450   15.9350 C.ar      1 K13        -0.0471
      5 C5         16.9870   33.1050   15.5770 C.ar      1 K13         0.0949
      6 C6         15.8960   32.4230   16.0900 C.ar      1 K13        -0.0471
      7 C7         14.9950   33.0570   16.9390 C.ar      1 K13        -0.0429
      8 S8         18.0160   32.3170   14.6060 S.o2      1 K13         0.0648
      9 O9         17.3560   31.2410   13.9410 O.2       1 K13        -0.1518
     10 O10        18.5970   33.2130   13.6530 O.2       1 K13        -0.1518
     11 N11        19.2770   31.7200   15.4300 N.am      1 K13        -0.2327
     12 C12        19.9720   32.7460   16.2460 C.3       1 K13         0.0321
     13 C13        21.4690   32.4510   16.3100 C.3       1 K13        -0.0270
     14 C14        22.1470   32.4360   14.9330 C.3       1 K13        -0.0610
     15 C15        22.1430   33.4300   17.2830 C.3       1 K13        -0.0518
     16 C16        18.9850   30.4770   16.1570 C.3       1 K13         0.0578
     17 C17        19.9100   29.3860   15.6070 C.3       1 K13         0.0967
     18 C18        22.1510   34.8520   16.7800 C.3       1 K13        -0.0650
     19 O18        19.8660   28.2590   16.4930 O.3       1 K13        -0.3877
     20 C19        19.5700   28.9530   14.1740 C.3       1 K13         0.0807
     21 N20        20.6780   28.1510   13.7030 N.am      1 K13        -0.2550
     22 C21        21.5550   28.5010   12.7730 C.2       1 K13         0.3203
     23 O22        21.5970   29.5460   12.1620 O.2       1 K13        -0.3775
     24 O23        22.5340   27.4800   12.5300 O.3       1 K13        -0.2578
     25 C24        23.3880   27.5350   11.4060 C.3       1 K13         0.1189
     26 C25        24.6900   26.9110   11.8740 C.3       1 K13         0.0815
     27 O26        24.5150   25.5030   11.6570 O.3       1 K13        -0.3480
     28 C27        23.5510   25.2830   10.6260 C.3       1 K13         0.1648
     29 O28        22.4990   24.4350   11.0710 O.3       1 K13        -0.3509
     30 C29        21.2500   25.1230   11.1120 C.3       1 K13         0.0512
     31 C30        21.4290   26.3300   10.2060 C.3       1 K13        -0.0191
     32 C31        22.9180   26.6200   10.2920 C.3       1 K13         0.0449
     33 C32        18.2670   28.1530   14.0400 C.3       1 K13         0.0064
     34 C33        18.1720   26.4220   12.1900 C.ar      1 K13        -0.0603
     35 C34        17.9980   26.0690   10.8630 C.ar      1 K13        -0.0686
     36 C35        17.6470   27.0140    9.9130 C.ar      1 K13        -0.0687
     37 C36        17.5150   28.3280   10.3130 C.ar      1 K13        -0.0686
     38 C37        17.6940   28.6800   11.6430 C.ar      1 K13        -0.0603
     39 C38        18.0380   27.7420   12.5950 C.ar      1 K13        -0.0408
     40 H1         14.4091   35.9400   18.3970 H         1 K13         0.1719
     41 H2         13.4863   34.4148   18.4665 H         1 K13         0.1719
     42 H3         16.4281   36.1323   17.0724 H         1 K13         0.0515
     43 H4         18.0172   34.9909   15.5379 H         1 K13         0.0602
     44 H5         15.7426   31.3827   15.8267 H         1 K13         0.0602
     45 H6         14.1403   32.5122   17.3233 H         1 K13         0.0515
     46 H7         19.5577   32.7404   17.2650 H         1 K13         0.0480
     47 H8         19.8168   33.7360   15.7924 H         1 K13         0.0480
     48 H9         21.5837   31.4402   16.7284 H         1 K13         0.0314
     49 H10        23.2184   32.2185   15.0542 H         1 K13         0.0233
     50 H11        22.0243   33.4182   14.4531 H         1 K13         0.0233
     51 H12        21.6843   31.6606   14.3049 H         1 K13         0.0233
     52 H13        23.1831   33.1080   17.4393 H         1 K13         0.0266
     53 H14        21.6022   33.4003   18.2404 H         1 K13         0.0266
     54 H15        17.9344   30.1904   16.0018 H         1 K13         0.0504
     55 H16        19.1714   30.6191   17.2317 H         1 K13         0.0504
     56 H17        20.9351   29.7848   15.5984 H         1 K13         0.0634
     57 H18        22.6452   35.4996   17.5192 H         1 K13         0.0230
     58 H19        21.1163   35.1929   16.6276 H         1 K13         0.0230
     59 H20        22.6973   34.9006   15.8265 H         1 K13         0.0230
     60 H21        18.9753   27.9328   16.5446 H         1 K13         0.2100
     61 H22        19.4791   29.8548   13.5508 H         1 K13         0.0604
     62 H23        20.7929   27.2484   14.1178 H         1 K13         0.1873
     63 H24        23.5129   28.5684   11.0505 H         1 K13         0.0675
     64 H25        24.8603   27.1214   12.9402 H         1 K13         0.0590
     65 H26        25.5372   27.2923   11.2851 H         1 K13         0.0590
     66 H27        24.0400   24.8484    9.7417 H         1 K13         0.0913
     67 H28        21.0194   25.4426   12.1389 H         1 K13         0.0561
     68 H29        20.4416   24.4772   10.7386 H         1 K13         0.0561
     69 H30        20.8403   27.1852   10.5693 H         1 K13         0.0293
     70 H31        21.1335   26.0937    9.1731 H         1 K13         0.0293
     71 H32        23.2673   27.0122    9.3255 H         1 K13         0.0380
     72 H33        17.4246   28.7750   14.3767 H         1 K13         0.0449
     73 H34        18.3304   27.2512   14.6666 H         1 K13         0.0449
     74 H35        18.4155   25.6590   12.9204 H         1 K13         0.0557
     75 H36        18.1386   25.0370   10.5625 H         1 K13         0.0599
     76 H37        17.4801   26.7283    8.8807 H         1 K13         0.0559
     77 H38        17.2697   29.0907    9.5828 H         1 K13         0.0599
     78 H39        17.5608   29.7138   11.9407 H         1 K13         0.0557
@<TRIPOS>BOND
     1    2    1 1  
     2    3    2 ar 
     3    7    2 ar 
     4    4    3 ar 
     5    5    4 ar 
     6    5    6 ar 
     7    8    5 1  
     8    6    7 ar 
     9    8    9 2  
    10    8   10 2  
    11   11    8 am 
    12   11   12 1  
    13   16   11 1  
    14   12   13 1  
    15   13   14 1  
    16   13   15 1  
    17   15   18 1  
    18   17   16 1  
    19   17   19 1  
    20   20   17 1  
    21   20   21 1  
    22   33   20 1  
    23   21   22 am 
    24   22   23 2  
    25   22   24 1  
    26   24   25 1  
    27   25   26 1  
    28   25   32 1  
    29   26   27 1  
    30   28   27 1  
    31   28   29 1  
    32   32   28 1  
    33   30   29 1  
    34   31   30 1  
    35   32   31 1  
    36   39   33 1  
    37   34   35 ar 
    38   34   39 ar 
    39   35   36 ar 
    40   36   37 ar 
    41   37   38 ar 
    42   38   39 ar 
    43    1   40 1  
    44    1   41 1  
    45    3   42 1  
    46    4   43 1  
    47    6   44 1  
    48    7   45 1  
    49   12   46 1  
    50   12   47 1  
    51   13   48 1  
    52   14   49 1  
    53   14   50 1  
    54   14   51 1  
    55   15   52 1  
    56   15   53 1  
    57   16   54 1  
    58   16   55 1  
    59   17   56 1  
    60   18   57 1  
    61   18   58 1  
    62   18   59 1  
    63   19   60 1  
    64   20   61 1  
    65   21   62 1  
    66   25   63 1  
    67   26   64 1  
    68   26   65 1  
    69   28   66 1  
    70   30   67 1  
    71   30   68 1  
    72   31   69 1  
    73   31   70 1  
    74   32   71 1  
    75   33   72 1  
    76   33   73 1  
    77   34   74 1  
    78   35   75 1  
    79   36   76 1  
    80   37   77 1  
    81   38   78 1  
@<TRIPOS>SUBSTRUCTURE
     1 K13         1

