### 
### Created by X-TOOL on Mon Sep 10 21:13:06 2018
### 

@<TRIPOS>MOLECULE
3o9a_ligand
   80    83     1     0     0
SMALL
GAST_HUCK


@<TRIPOS>ATOM
      1 C1         15.2640   36.8980   18.8620 C.3       1 K14         0.0594
      2 O1         14.9130   35.5430   18.5380 O.3       1 K14        -0.3212
      3 C2         15.6430   34.7940   17.6380 C.ar      1 K14         0.0908
      4 C3         16.6690   35.3650   16.8740 C.ar      1 K14        -0.0313
      5 C4         17.4010   34.5810   15.9790 C.ar      1 K14        -0.0440
      6 C5         17.1500   33.2230   15.8090 C.ar      1 K14         0.0971
      7 C6         16.1150   32.6610   16.5710 C.ar      1 K14        -0.0440
      8 C7         15.3780   33.4320   17.4870 C.ar      1 K14        -0.0313
      9 S8         18.0510   32.3340   14.7750 S.o2      1 K14         0.0657
     10 O9         17.2730   31.2520   14.2660 O.2       1 K14        -0.1515
     11 O10        18.5690   33.1480   13.6970 O.2       1 K14        -0.1515
     12 N11        19.3640   31.7370   15.5100 N.am      1 K14        -0.2325
     13 C12        20.0780   32.7780   16.2950 C.3       1 K14         0.0322
     14 C13        21.5800   32.4850   16.3810 C.3       1 K14        -0.0270
     15 C14        22.2640   32.3920   15.0110 C.3       1 K14        -0.0610
     16 C15        22.2460   33.5250   17.2850 C.3       1 K14        -0.0518
     17 C16        19.0910   30.5110   16.2930 C.3       1 K14         0.0578
     18 C17        19.9380   29.3640   15.7330 C.3       1 K14         0.0967
     19 C18        22.1360   34.9420   16.7850 C.3       1 K14        -0.0650
     20 O18        19.8840   28.2340   16.6120 O.3       1 K14        -0.3877
     21 C19        19.5400   28.9130   14.3330 C.3       1 K14         0.0807
     22 N20        20.6230   28.1000   13.8510 N.am      1 K14        -0.2550
     23 C21        21.4740   28.4390   12.8860 C.2       1 K14         0.3203
     24 O22        21.5030   29.4720   12.2360 O.2       1 K14        -0.3775
     25 O23        22.4340   27.4000   12.6390 O.3       1 K14        -0.2578
     26 C24        23.2840   27.5150   11.5100 C.3       1 K14         0.1189
     27 C25        24.6090   26.9590   11.9810 C.3       1 K14         0.0815
     28 O26        24.4480   25.5390   11.8700 O.3       1 K14        -0.3480
     29 C27        23.5370   25.2630   10.8020 C.3       1 K14         0.1648
     30 O28        22.5090   24.3610   11.2120 O.3       1 K14        -0.3509
     31 C29        21.2220   25.0020   11.1960 C.3       1 K14         0.0512
     32 C30        21.3860   26.2250   10.3070 C.3       1 K14        -0.0191
     33 C31        22.8660   26.5640   10.4090 C.3       1 K14         0.0449
     34 C32        18.2250   28.1220   14.2440 C.3       1 K14         0.0064
     35 C33        18.1390   26.4190   12.3770 C.ar      1 K14        -0.0603
     36 C34        17.9430   26.0680   11.0550 C.ar      1 K14        -0.0686
     37 C35        17.5910   27.0290   10.1290 C.ar      1 K14        -0.0687
     38 C36        17.4440   28.3460   10.5230 C.ar      1 K14        -0.0686
     39 C37        17.6280   28.6950   11.8560 C.ar      1 K14        -0.0603
     40 C38        17.9870   27.7390   12.7890 C.ar      1 K14        -0.0408
     41 H1         14.5484   37.2966   19.5962 H         1 K14         0.0577
     42 H2         15.2343   37.5125   17.9502 H         1 K14         0.0577
     43 H3         16.2779   36.9223   19.2878 H         1 K14         0.0577
     44 H4         16.8959   36.4199   16.9778 H         1 K14         0.0542
     45 H5         18.1898   35.0455   15.3984 H         1 K14         0.0608
     46 H6         15.8784   31.6100   16.4511 H         1 K14         0.0608
     47 H7         14.5992   32.9658   18.0796 H         1 K14         0.0542
     48 H8         19.6608   32.8074   17.3124 H         1 K14         0.0480
     49 H9         19.9315   33.7545   15.8102 H         1 K14         0.0480
     50 H10        21.6956   31.5024   16.8618 H         1 K14         0.0314
     51 H11        23.3347   32.1809   15.1493 H         1 K14         0.0233
     52 H12        22.1445   33.3456   14.4760 H         1 K14         0.0233
     53 H13        21.8035   31.5827   14.4254 H         1 K14         0.0233
     54 H14        23.3130   33.2725   17.3728 H         1 K14         0.0266
     55 H15        21.7738   33.4721   18.2771 H         1 K14         0.0266
     56 H16        18.0243   30.2537   16.2158 H         1 K14         0.0504
     57 H17        19.3518   30.6812   17.3480 H         1 K14         0.0504
     58 H18        20.9782   29.7184   15.6851 H         1 K14         0.0634
     59 H19        22.6385   35.6198   17.4907 H         1 K14         0.0230
     60 H20        21.0750   35.2202   16.7018 H         1 K14         0.0230
     61 H21        22.6142   35.0206   15.7975 H         1 K14         0.0230
     62 H22        18.9836   27.9434   16.6974 H         1 K14         0.2100
     63 H23        19.4378   29.8050   13.6975 H         1 K14         0.0604
     64 H24        20.7474   27.2038   14.2770 H         1 K14         0.1873
     65 H25        23.3493   28.5532   11.1523 H         1 K14         0.0675
     66 H26        24.8068   27.2498   13.0232 H         1 K14         0.0590
     67 H27        25.4308   27.3106   11.3399 H         1 K14         0.0590
     68 H28        24.0856   24.8393    9.9479 H         1 K14         0.0913
     69 H29        20.9300   25.3028   12.2130 H         1 K14         0.0561
     70 H30        20.4608   24.3249   10.7811 H         1 K14         0.0561
     71 H31        20.7686   27.0588   10.6725 H         1 K14         0.0293
     72 H32        21.1097   25.9921    9.2680 H         1 K14         0.0293
     73 H33        23.2220   26.9406    9.4387 H         1 K14         0.0380
     74 H34        17.3928   28.7445   14.6044 H         1 K14         0.0449
     75 H35        18.2966   27.2132   14.8596 H         1 K14         0.0449
     76 H36        18.4137   25.6590   13.0995 H         1 K14         0.0557
     77 H37        18.0658   25.0366   10.7448 H         1 K14         0.0599
     78 H38        17.4299   26.7514    9.0936 H         1 K14         0.0559
     79 H39        17.1857   29.1052    9.7937 H         1 K14         0.0599
     80 H40        17.4891   29.7242   12.1666 H         1 K14         0.0557
@<TRIPOS>BOND
     1    2    1 1  
     2    3    2 1  
     3    4    3 ar 
     4    8    3 ar 
     5    5    4 ar 
     6    6    5 ar 
     7    6    7 ar 
     8    9    6 1  
     9    7    8 ar 
    10    9   10 2  
    11    9   11 2  
    12   12    9 am 
    13   12   13 1  
    14   17   12 1  
    15   13   14 1  
    16   14   15 1  
    17   14   16 1  
    18   16   19 1  
    19   18   17 1  
    20   18   20 1  
    21   21   18 1  
    22   21   22 1  
    23   34   21 1  
    24   22   23 am 
    25   23   24 2  
    26   23   25 1  
    27   25   26 1  
    28   26   27 1  
    29   26   33 1  
    30   27   28 1  
    31   29   28 1  
    32   29   30 1  
    33   33   29 1  
    34   31   30 1  
    35   32   31 1  
    36   33   32 1  
    37   40   34 1  
    38   35   36 ar 
    39   35   40 ar 
    40   36   37 ar 
    41   37   38 ar 
    42   38   39 ar 
    43   39   40 ar 
    44    1   41 1  
    45    1   42 1  
    46    1   43 1  
    47    4   44 1  
    48    5   45 1  
    49    7   46 1  
    50    8   47 1  
    51   13   48 1  
    52   13   49 1  
    53   14   50 1  
    54   15   51 1  
    55   15   52 1  
    56   15   53 1  
    57   16   54 1  
    58   16   55 1  
    59   17   56 1  
    60   17   57 1  
    61   18   58 1  
    62   19   59 1  
    63   19   60 1  
    64   19   61 1  
    65   20   62 1  
    66   21   63 1  
    67   22   64 1  
    68   26   65 1  
    69   27   66 1  
    70   27   67 1  
    71   29   68 1  
    72   31   69 1  
    73   31   70 1  
    74   32   71 1  
    75   32   72 1  
    76   33   73 1  
    77   34   74 1  
    78   34   75 1  
    79   35   76 1  
    80   36   77 1  
    81   37   78 1  
    82   38   79 1  
    83   39   80 1  
@<TRIPOS>SUBSTRUCTURE
     1 K14         1

