### 
### Created by X-TOOL on Mon Sep 10 21:13:05 2018
### 

@<TRIPOS>MOLECULE
3o9b_ligand
   80    83     1     0     0
SMALL
GAST_HUCK


@<TRIPOS>ATOM
      1 C1         14.4380   35.8720   18.1600 C.3       1 K2A         0.0782
      2 O1         14.8780   35.8530   19.5200 O.3       1 K2A        -0.3825
      3 C2         15.3400   34.9860   17.3250 C.ar      1 K2A        -0.0177
      4 C3         15.1730   33.6060   17.2980 C.ar      1 K2A        -0.0563
      5 C4         16.0200   32.8070   16.5100 C.ar      1 K2A        -0.0419
      6 C5         17.0480   33.3780   15.7560 C.ar      1 K2A         0.1013
      7 C6         17.2020   34.7690   15.8050 C.ar      1 K2A        -0.0419
      8 C7         16.3580   35.5640   16.5770 C.ar      1 K2A        -0.0563
      9 S8         18.0590   32.4580   14.8510 S.o2      1 K2A         0.0676
     10 O9         18.7050   33.2860   13.8770 O.2       1 K2A        -0.1510
     11 O10        17.3100   31.3870   14.2920 O.2       1 K2A        -0.1510
     12 N11        19.2950   31.8410   15.7160 N.am      1 K2A        -0.2320
     13 C12        20.0050   32.8810   16.5120 C.3       1 K2A         0.0322
     14 C13        21.5080   32.6080   16.5480 C.3       1 K2A        -0.0270
     15 C14        22.1360   32.5700   15.1530 C.3       1 K2A        -0.0610
     16 C15        22.1890   33.6270   17.4650 C.3       1 K2A        -0.0518
     17 C16        18.9830   30.5720   16.4190 C.3       1 K2A         0.0578
     18 C17        19.9020   29.4720   15.8520 C.3       1 K2A         0.0967
     19 C18        22.0610   35.0490   16.9680 C.3       1 K2A        -0.0650
     20 O18        19.8240   28.3060   16.6990 O.3       1 K2A        -0.3877
     21 C19        19.5720   29.0820   14.4110 C.3       1 K2A         0.0807
     22 N20        20.6510   28.2500   13.9230 N.am      1 K2A        -0.2550
     23 C21        21.5330   28.6230   13.0110 C.2       1 K2A         0.3203
     24 O22        21.6000   29.6810   12.4120 O.2       1 K2A        -0.3775
     25 O23        22.5140   27.6090   12.7640 O.3       1 K2A        -0.2578
     26 C24        23.3400   27.7570   11.6190 C.3       1 K2A         0.1189
     27 C25        24.6600   27.1610   12.0530 C.3       1 K2A         0.0815
     28 O26        24.4580   25.7540   11.8940 O.3       1 K2A        -0.3480
     29 C27        23.5610   25.5260   10.8110 C.3       1 K2A         0.1648
     30 O28        22.5520   24.5950   11.1860 O.3       1 K2A        -0.3509
     31 C29        21.2730   25.2420   11.2340 C.3       1 K2A         0.0512
     32 C30        21.3980   26.5350   10.4380 C.3       1 K2A        -0.0191
     33 C31        22.8850   26.8470   10.5100 C.3       1 K2A         0.0449
     34 C32        18.2660   28.2930   14.2550 C.3       1 K2A         0.0064
     35 C33        17.7190   28.8950   11.8580 C.ar      1 K2A        -0.0603
     36 C34        17.5150   28.5510   10.5250 C.ar      1 K2A        -0.0686
     37 C35        17.5970   27.2270   10.1230 C.ar      1 K2A        -0.0687
     38 C36        17.8940   26.2620   11.0550 C.ar      1 K2A        -0.0686
     39 C37        18.1060   26.5940   12.3890 C.ar      1 K2A        -0.0603
     40 C38        18.0280   27.9170   12.8070 C.ar      1 K2A        -0.0408
     41 H1         14.4783   36.9020   17.7759 H         1 K2A         0.0721
     42 H2         13.4044   35.4998   18.1037 H         1 K2A         0.0721
     43 H3         14.3119   36.4087   20.0426 H         1 K2A         0.2126
     44 H4         14.3877   33.1449   17.8860 H         1 K2A         0.0558
     45 H5         15.8733   31.7332   16.4872 H         1 K2A         0.0619
     46 H6         17.9937   35.2364   15.2307 H         1 K2A         0.0619
     47 H7         16.4962   36.6390   16.5942 H         1 K2A         0.0558
     48 H8         19.6136   32.8774   17.5400 H         1 K2A         0.0481
     49 H9         19.8288   33.8664   16.0560 H         1 K2A         0.0481
     50 H10        21.6530   31.6121   16.9921 H         1 K2A         0.0314
     51 H11        23.2142   32.3708   15.2416 H         1 K2A         0.0233
     52 H12        21.9819   33.5386   14.6550 H         1 K2A         0.0233
     53 H13        21.6635   31.7733   14.5597 H         1 K2A         0.0233
     54 H14        23.2575   33.3755   17.5357 H         1 K2A         0.0266
     55 H15        21.7302   33.5620   18.4626 H         1 K2A         0.0266
     56 H16        17.9301   30.3016   16.2506 H         1 K2A         0.0504
     57 H17        19.1635   30.6892   17.4977 H         1 K2A         0.0504
     58 H18        20.9342   29.8519   15.8696 H         1 K2A         0.0634
     59 H19        22.5688   35.7291   17.6678 H         1 K2A         0.0230
     60 H20        20.9969   35.3196   16.9008 H         1 K2A         0.0230
     61 H21        22.5242   35.1331   15.9739 H         1 K2A         0.0230
     62 H22        20.1039   28.5348   17.5775 H         1 K2A         0.2100
     63 H23        19.5024   29.9984   13.8065 H         1 K2A         0.0604
     64 H24        20.7355   27.3285   14.3020 H         1 K2A         0.1873
     65 H25        23.4141   28.8048   11.2924 H         1 K2A         0.0675
     66 H26        24.8787   27.4110   13.1016 H         1 K2A         0.0590
     67 H27        25.4812   27.5153   11.4126 H         1 K2A         0.0590
     68 H28        24.1094   25.1571    9.9317 H         1 K2A         0.0913
     69 H29        21.0012   25.4649   12.2763 H         1 K2A         0.0561
     70 H30        20.5051   24.5948   10.7851 H         1 K2A         0.0561
     71 H31        20.8039   27.3392   10.8966 H         1 K2A         0.0293
     72 H32        21.0758   26.3894    9.3964 H         1 K2A         0.0293
     73 H33        23.2120   27.2599    9.5443 H         1 K2A         0.0380
     74 H34        17.4278   28.9115   14.6084 H         1 K2A         0.0449
     75 H35        18.3254   27.3759   14.8595 H         1 K2A         0.0449
     76 H36        17.6374   29.9320   12.1631 H         1 K2A         0.0557
     77 H37        17.2908   29.3225    9.7973 H         1 K2A         0.0599
     78 H38        17.4290   26.9564    9.0868 H         1 K2A         0.0559
     79 H39        17.9642   25.2254   10.7457 H         1 K2A         0.0599
     80 H40        18.3337   25.8151   13.1077 H         1 K2A         0.0557
@<TRIPOS>BOND
     1    1    2 1  
     2    3    1 1  
     3    4    3 ar 
     4    8    3 ar 
     5    5    4 ar 
     6    6    5 ar 
     7    6    7 ar 
     8    9    6 1  
     9    7    8 ar 
    10    9   10 2  
    11    9   11 2  
    12   12    9 am 
    13   12   13 1  
    14   17   12 1  
    15   13   14 1  
    16   14   15 1  
    17   14   16 1  
    18   16   19 1  
    19   18   17 1  
    20   18   20 1  
    21   21   18 1  
    22   21   22 1  
    23   34   21 1  
    24   22   23 am 
    25   23   24 2  
    26   23   25 1  
    27   25   26 1  
    28   26   27 1  
    29   26   33 1  
    30   27   28 1  
    31   29   28 1  
    32   29   30 1  
    33   33   29 1  
    34   31   30 1  
    35   32   31 1  
    36   33   32 1  
    37   40   34 1  
    38   35   36 ar 
    39   35   40 ar 
    40   36   37 ar 
    41   37   38 ar 
    42   38   39 ar 
    43   39   40 ar 
    44    1   41 1  
    45    1   42 1  
    46    2   43 1  
    47    4   44 1  
    48    5   45 1  
    49    7   46 1  
    50    8   47 1  
    51   13   48 1  
    52   13   49 1  
    53   14   50 1  
    54   15   51 1  
    55   15   52 1  
    56   15   53 1  
    57   16   54 1  
    58   16   55 1  
    59   17   56 1  
    60   17   57 1  
    61   18   58 1  
    62   19   59 1  
    63   19   60 1  
    64   19   61 1  
    65   20   62 1  
    66   21   63 1  
    67   22   64 1  
    68   26   65 1  
    69   27   66 1  
    70   27   67 1  
    71   29   68 1  
    72   31   69 1  
    73   31   70 1  
    74   32   71 1  
    75   32   72 1  
    76   33   73 1  
    77   34   74 1  
    78   34   75 1  
    79   35   76 1  
    80   36   77 1  
    81   37   78 1  
    82   38   79 1  
    83   39   80 1  
@<TRIPOS>SUBSTRUCTURE
     1 K2A         1

