### 
### Created by X-TOOL on Mon Sep 10 21:13:06 2018
### 

@<TRIPOS>MOLECULE
3o9c_ligand
   79    83     1     0     0
SMALL
GAST_HUCK


@<TRIPOS>ATOM
      1 C1         15.6860   36.7420   18.4310 C.3       1 K20         0.1868
      2 O1         15.0120   35.4700   18.5970 O.3       1 K20        -0.2910
      3 C2         15.6050   34.5810   17.7220 C.ar      1 K20         0.1233
      4 O2         16.6340   36.5460   17.3740 O.3       1 K20        -0.2909
      5 C3         16.5950   35.2180   17.0020 C.ar      1 K20         0.1250
      6 C4         17.3370   34.5430   16.0350 C.ar      1 K20        -0.0149
      7 C5         17.1220   33.1740   15.8070 C.ar      1 K20         0.0885
      8 C6         16.1140   32.5460   16.5500 C.ar      1 K20        -0.0554
      9 C7         15.3500   33.2310   17.5120 C.ar      1 K20        -0.0395
     10 S8         18.0290   32.3410   14.7480 S.o2      1 K20         0.0633
     11 O9         17.3140   31.2170   14.2430 O.2       1 K20        -0.1517
     12 O10        18.5200   33.2070   13.6830 O.2       1 K20        -0.1517
     13 N11        19.3370   31.7340   15.4920 N.am      1 K20        -0.2326
     14 C12        20.1080   32.7450   16.2580 C.3       1 K20         0.0322
     15 C13        21.6060   32.4410   16.3620 C.3       1 K20        -0.0270
     16 C14        22.3340   32.4190   15.0120 C.3       1 K20        -0.0610
     17 C15        22.2570   33.4460   17.3190 C.3       1 K20        -0.0518
     18 C16        19.0540   30.5120   16.2740 C.3       1 K20         0.0578
     19 C17        19.9560   29.3810   15.7650 C.3       1 K20         0.0967
     20 C18        22.0590   34.8880   16.9170 C.3       1 K20        -0.0650
     21 O18        19.9420   28.2620   16.6590 O.3       1 K20        -0.3877
     22 C19        19.5790   28.9150   14.3640 C.3       1 K20         0.0807
     23 N20        20.6490   28.0800   13.8710 N.am      1 K20        -0.2550
     24 C21        21.4910   28.4340   12.9130 C.2       1 K20         0.3203
     25 O22        21.5540   29.4800   12.2750 O.2       1 K20        -0.3775
     26 O23        22.4540   27.4050   12.6720 O.3       1 K20        -0.2578
     27 C24        23.2520   27.5490   11.5030 C.3       1 K20         0.1189
     28 C25        24.5770   26.9610   11.9210 C.3       1 K20         0.0815
     29 O26        24.3060   25.5610   11.8970 O.3       1 K20        -0.3480
     30 C27        23.4600   25.2900   10.7860 C.3       1 K20         0.1648
     31 O28        22.4810   24.3360   11.1700 O.3       1 K20        -0.3509
     32 C29        21.2020   24.9680   11.2500 C.3       1 K20         0.0512
     33 C30        21.3050   26.2320   10.3990 C.3       1 K20        -0.0191
     34 C31        22.7810   26.5960   10.4180 C.3       1 K20         0.0449
     35 C32        18.2720   28.1290   14.2720 C.3       1 K20         0.0064
     36 C33        18.1060   26.3830   12.4390 C.ar      1 K20        -0.0603
     37 C34        17.8720   26.0170   11.1200 C.ar      1 K20        -0.0686
     38 C35        17.5120   26.9650   10.1800 C.ar      1 K20        -0.0687
     39 C36        17.4180   28.2930   10.5560 C.ar      1 K20        -0.0686
     40 C37        17.6510   28.6580   11.8820 C.ar      1 K20        -0.0603
     41 C38        18.0000   27.7140   12.8360 C.ar      1 K20        -0.0408
     42 H1         16.2015   37.0266   19.3601 H         1 K20         0.0973
     43 H2         14.9639   37.5254   18.1576 H         1 K20         0.0973
     44 H3         18.0828   35.0763   15.4567 H         1 K20         0.0528
     45 H4         15.9157   31.4944   16.3773 H         1 K20         0.0514
     46 H5         14.5800   32.7178   18.0766 H         1 K20         0.0509
     47 H6         19.6944   32.7966   17.2760 H         1 K20         0.0480
     48 H7         19.9868   33.7199   15.7631 H         1 K20         0.0480
     49 H8         21.7087   31.4375   16.8006 H         1 K20         0.0314
     50 H9         23.3988   32.1951   15.1733 H         1 K20         0.0233
     51 H10        22.2354   33.4009   14.5261 H         1 K20         0.0233
     52 H11        21.8900   31.6452   14.3685 H         1 K20         0.0233
     53 H12        23.3372   33.2413   17.3544 H         1 K20         0.0266
     54 H13        21.8235   33.3025   18.3198 H         1 K20         0.0266
     55 H14        17.9987   30.2284   16.1482 H         1 K20         0.0504
     56 H15        19.2593   30.6982   17.3385 H         1 K20         0.0504
     57 H16        20.9833   29.7720   15.7240 H         1 K20         0.0634
     58 H17        22.5526   35.5438   17.6493 H         1 K20         0.0230
     59 H18        20.9833   35.1160   16.8871 H         1 K20         0.0230
     60 H19        22.4969   35.0547   15.9218 H         1 K20         0.0230
     61 H20        19.0550   27.9306   16.7359 H         1 K20         0.2100
     62 H21        19.4851   29.8042   13.7233 H         1 K20         0.0604
     63 H22        20.7613   27.1746   14.2804 H         1 K20         0.1873
     64 H23        23.3103   28.5910   11.1555 H         1 K20         0.0675
     65 H24        24.8612   27.2950   12.9298 H         1 K20         0.0590
     66 H25        25.3730   27.2254   11.2094 H         1 K20         0.0590
     67 H26        24.0463   24.9084    9.9371 H         1 K20         0.0913
     68 H27        20.9680   25.2272   12.2931 H         1 K20         0.0561
     69 H28        20.4210   24.3026   10.8535 H         1 K20         0.0561
     70 H29        20.7009   27.0419   10.8339 H         1 K20         0.0293
     71 H30        20.9681   26.0349    9.3706 H         1 K20         0.0293
     72 H31        23.0859   26.9726    9.4305 H         1 K20         0.0380
     73 H32        17.4446   28.7596   14.6293 H         1 K20         0.0449
     74 H33        18.3456   27.2295   14.9009 H         1 K20         0.0449
     75 H34        18.3738   25.6255   13.1668 H         1 K20         0.0557
     76 H35        17.9725   24.9788   10.8247 H         1 K20         0.0599
     77 H36        17.3053   26.6702    9.1575 H         1 K20         0.0559
     78 H37        17.1637   29.0486    9.8215 H         1 K20         0.0599
     79 H38        17.5576   29.6983   12.1719 H         1 K20         0.0557
@<TRIPOS>BOND
     1    2    1 1  
     2    4    1 1  
     3    3    2 1  
     4    5    3 ar 
     5    9    3 ar 
     6    5    4 1  
     7    6    5 ar 
     8    7    6 ar 
     9    7    8 ar 
    10   10    7 1  
    11    8    9 ar 
    12   10   11 2  
    13   10   12 2  
    14   13   10 am 
    15   13   14 1  
    16   18   13 1  
    17   14   15 1  
    18   15   16 1  
    19   15   17 1  
    20   17   20 1  
    21   19   18 1  
    22   19   21 1  
    23   22   19 1  
    24   22   23 1  
    25   35   22 1  
    26   23   24 am 
    27   24   25 2  
    28   24   26 1  
    29   26   27 1  
    30   27   28 1  
    31   27   34 1  
    32   28   29 1  
    33   30   29 1  
    34   30   31 1  
    35   34   30 1  
    36   32   31 1  
    37   33   32 1  
    38   34   33 1  
    39   41   35 1  
    40   36   37 ar 
    41   36   41 ar 
    42   37   38 ar 
    43   38   39 ar 
    44   39   40 ar 
    45   40   41 ar 
    46    1   42 1  
    47    1   43 1  
    48    6   44 1  
    49    8   45 1  
    50    9   46 1  
    51   14   47 1  
    52   14   48 1  
    53   15   49 1  
    54   16   50 1  
    55   16   51 1  
    56   16   52 1  
    57   17   53 1  
    58   17   54 1  
    59   18   55 1  
    60   18   56 1  
    61   19   57 1  
    62   20   58 1  
    63   20   59 1  
    64   20   60 1  
    65   21   61 1  
    66   22   62 1  
    67   23   63 1  
    68   27   64 1  
    69   28   65 1  
    70   28   66 1  
    71   30   67 1  
    72   32   68 1  
    73   32   69 1  
    74   33   70 1  
    75   33   71 1  
    76   34   72 1  
    77   35   73 1  
    78   35   74 1  
    79   36   75 1  
    80   37   76 1  
    81   38   77 1  
    82   39   78 1  
    83   40   79 1  
@<TRIPOS>SUBSTRUCTURE
     1 K20         1

