### 
### Created by X-TOOL on Mon Sep 10 21:13:06 2018
### 

@<TRIPOS>MOLECULE
3o9d_ligand
   78    82     1     0     0
SMALL
GAST_HUCK


@<TRIPOS>ATOM
      1 C1         15.4230   36.5910   18.5040 C.2       1 K19         0.0809
      2 N1         14.9650   35.3250   18.5930 N.2       1 K19        -0.2931
      3 S1         16.6670   36.8450   17.3180 S.3       1 K19         0.0026
      4 C2         15.5860   34.4770   17.7090 C.ar      1 K19         0.0375
      5 C3         16.5510   35.1650   16.9660 C.ar      1 K19         0.0595
      6 C4         17.3010   34.4470   15.9980 C.ar      1 K19        -0.0206
      7 C5         17.1400   33.0660   15.7560 C.ar      1 K19         0.1007
      8 C6         16.1580   32.4210   16.5200 C.ar      1 K19        -0.0433
      9 C7         15.4000   33.1190   17.4800 C.ar      1 K19        -0.0517
     10 S8         18.0450   32.1760   14.7100 S.o2      1 K19         0.0679
     11 O9         18.5810   33.0370   13.6850 O.2       1 K19        -0.1506
     12 O10        17.2750   31.0920   14.1970 O.2       1 K19        -0.1506
     13 N11        19.3380   31.5720   15.4780 N.am      1 K19        -0.2317
     14 C12        20.0850   32.5990   16.2530 C.3       1 K19         0.0322
     15 C13        21.5850   32.3130   16.2950 C.3       1 K19        -0.0270
     16 C14        22.2520   32.2240   14.9210 C.3       1 K19        -0.0610
     17 C15        22.2790   33.3600   17.1790 C.3       1 K19        -0.0518
     18 C16        19.0480   30.3530   16.2500 C.3       1 K19         0.0579
     19 C17        19.9220   29.2230   15.7060 C.3       1 K19         0.0967
     20 C18        22.1480   34.7680   16.6620 C.3       1 K19        -0.0650
     21 O18        19.8890   28.0940   16.5910 O.3       1 K19        -0.3877
     22 C19        19.5400   28.7640   14.3060 C.3       1 K19         0.0807
     23 N20        20.6410   27.9570   13.8350 N.am      1 K19        -0.2550
     24 C21        21.4870   28.3090   12.8780 C.2       1 K19         0.3203
     25 O22        21.5370   29.3390   12.2230 O.2       1 K19        -0.3775
     26 O23        22.4430   27.2710   12.6300 O.3       1 K19        -0.2578
     27 C24        23.2910   27.3900   11.4990 C.3       1 K19         0.1189
     28 C25        24.6060   26.7870   11.9600 C.3       1 K19         0.0815
     29 O26        24.3880   25.3850   11.8250 O.3       1 K19        -0.3480
     30 C27        23.5020   25.1410   10.7440 C.3       1 K19         0.1648
     31 O28        22.5060   24.2330   11.1720 O.3       1 K19        -0.3509
     32 C29        21.2210   24.8640   11.2200 C.3       1 K19         0.0512
     33 C30        21.3530   26.1120   10.3620 C.3       1 K19        -0.0191
     34 C31        22.8300   26.4570   10.3990 C.3       1 K19         0.0449
     35 C32        18.2540   27.9490   14.1900 C.3       1 K19         0.0064
     36 C33        17.6740   28.5440   11.8030 C.ar      1 K19        -0.0603
     37 C34        17.4470   28.1940   10.4720 C.ar      1 K19        -0.0686
     38 C35        17.5270   26.8780   10.0750 C.ar      1 K19        -0.0687
     39 C36        17.8370   25.8960   10.9980 C.ar      1 K19        -0.0686
     40 C37        18.0700   26.2470   12.3170 C.ar      1 K19        -0.0603
     41 C38        17.9940   27.5700   12.7390 C.ar      1 K19        -0.0408
     42 H1         15.0405   37.3956   19.1304 H         1 K19         0.1260
     43 H2         18.0364   34.9882   15.4137 H         1 K19         0.0592
     44 H3         15.9781   31.3628   16.3689 H         1 K19         0.0580
     45 H4         14.6528   32.5836   18.0546 H         1 K19         0.0584
     46 H5         19.6988   32.6158   17.2828 H         1 K19         0.0481
     47 H6         19.9248   33.5816   15.7852 H         1 K19         0.0481
     48 H7         21.7135   31.3312   16.7741 H         1 K19         0.0314
     49 H8         23.3249   32.0168   15.0470 H         1 K19         0.0233
     50 H9         22.1229   33.1777   14.3882 H         1 K19         0.0233
     51 H10        21.7879   31.4135   14.3399 H         1 K19         0.0233
     52 H11        23.3485   33.1100   17.2397 H         1 K19         0.0266
     53 H12        21.8345   33.3160   18.1842 H         1 K19         0.0266
     54 H13        17.9861   30.0874   16.1414 H         1 K19         0.0504
     55 H14        19.2769   30.5220   17.3125 H         1 K19         0.0504
     56 H15        20.9548   29.5991   15.6630 H         1 K19         0.0634
     57 H16        22.6669   35.4585   17.3432 H         1 K19         0.0230
     58 H17        21.0837   35.0401   16.6049 H         1 K19         0.0230
     59 H18        22.5977   34.8342   15.6603 H         1 K19         0.0230
     60 H19        18.9951   27.7826   16.6721 H         1 K19         0.2100
     61 H20        19.4315   29.6544   13.6693 H         1 K19         0.0604
     62 H21        20.7752   27.0638   14.2641 H         1 K19         0.1873
     63 H22        23.3810   28.4303   11.1532 H         1 K19         0.0675
     64 H23        24.8170   27.0542   13.0060 H         1 K19         0.0590
     65 H24        25.4376   27.1199   11.3216 H         1 K19         0.0590
     66 H25        24.0458   24.7394    9.8763 H         1 K19         0.0913
     67 H26        20.9629   25.1337   12.2547 H         1 K19         0.0561
     68 H27        20.4485   24.1959   10.8115 H         1 K19         0.0561
     69 H28        20.7531   26.9340   10.7796 H         1 K19         0.0293
     70 H29        21.0289   25.9087    9.3307 H         1 K19         0.0293
     71 H30        23.1453   26.8488    9.4207 H         1 K19         0.0380
     72 H31        17.4107   28.5476   14.5647 H         1 K19         0.0449
     73 H32        18.3498   27.0333   14.7920 H         1 K19         0.0449
     74 H33        17.6002   29.5816   12.1080 H         1 K19         0.0557
     75 H34        17.2063   28.9623    9.7462 H         1 K19         0.0599
     76 H35        17.3471   26.6119    9.0397 H         1 K19         0.0559
     77 H36        17.8972   24.8582   10.6909 H         1 K19         0.0599
     78 H37        18.3169   25.4742   13.0359 H         1 K19         0.0557
@<TRIPOS>BOND
     1    2    1 2  
     2    3    1 1  
     3    4    2 1  
     4    5    3 1  
     5    5    4 ar 
     6    9    4 ar 
     7    6    5 ar 
     8    7    6 ar 
     9    7    8 ar 
    10   10    7 1  
    11    8    9 ar 
    12   10   11 2  
    13   10   12 2  
    14   13   10 am 
    15   13   14 1  
    16   18   13 1  
    17   14   15 1  
    18   15   16 1  
    19   15   17 1  
    20   17   20 1  
    21   19   18 1  
    22   19   21 1  
    23   22   19 1  
    24   22   23 1  
    25   35   22 1  
    26   23   24 am 
    27   24   25 2  
    28   24   26 1  
    29   26   27 1  
    30   27   28 1  
    31   27   34 1  
    32   28   29 1  
    33   30   29 1  
    34   30   31 1  
    35   34   30 1  
    36   32   31 1  
    37   33   32 1  
    38   34   33 1  
    39   41   35 1  
    40   36   37 ar 
    41   36   41 ar 
    42   37   38 ar 
    43   38   39 ar 
    44   39   40 ar 
    45   40   41 ar 
    46    1   42 1  
    47    6   43 1  
    48    8   44 1  
    49    9   45 1  
    50   14   46 1  
    51   14   47 1  
    52   15   48 1  
    53   16   49 1  
    54   16   50 1  
    55   16   51 1  
    56   17   52 1  
    57   17   53 1  
    58   18   54 1  
    59   18   55 1  
    60   19   56 1  
    61   20   57 1  
    62   20   58 1  
    63   20   59 1  
    64   21   60 1  
    65   22   61 1  
    66   23   62 1  
    67   27   63 1  
    68   28   64 1  
    69   28   65 1  
    70   30   66 1  
    71   32   67 1  
    72   32   68 1  
    73   33   69 1  
    74   33   70 1  
    75   34   71 1  
    76   35   72 1  
    77   35   73 1  
    78   36   74 1  
    79   37   75 1  
    80   38   76 1  
    81   39   77 1  
    82   40   78 1  
@<TRIPOS>SUBSTRUCTURE
     1 K19         1

