### 
### Created by X-TOOL on Mon Sep 10 21:13:05 2018
### 

@<TRIPOS>MOLECULE
3o9e_ligand
   81    84     1     0     0
SMALL
GAST_HUCK


@<TRIPOS>ATOM
      1 N1         14.1220   34.9960   18.1770 N.pl3     1 A60        -0.3369
      2 C2         15.0450   34.4400   17.3340 C.ar      1 A60         0.0353
      3 C3         16.0790   35.1940   16.7600 C.ar      1 A60        -0.0429
      4 C4         17.0010   34.5490   15.9040 C.ar      1 A60        -0.0471
      5 C5         16.8810   33.1750   15.6100 C.ar      1 A60         0.0949
      6 C6         15.8160   32.4820   16.1860 C.ar      1 A60        -0.0471
      7 C7         14.9120   33.0970   17.0460 C.ar      1 A60        -0.0429
      8 S8         17.9220   32.3510   14.6640 S.o2      1 A60         0.0648
      9 O9         18.5510   33.2510   13.7270 O.2       1 A60        -0.1518
     10 O10        17.2320   31.2410   14.0660 O.2       1 A60        -0.1518
     11 N11        19.1350   31.7400   15.5410 N.am      1 A60        -0.2327
     12 C12        19.8370   32.7500   16.3720 C.3       1 A60         0.0324
     13 C13        21.3460   32.5390   16.4010 C.3       1 A60        -0.0244
     14 C14        21.9630   32.6500   15.0040 C.3       1 A60        -0.0516
     15 C15        21.9710   33.5400   17.3890 C.3       1 A60        -0.0516
     16 C16        18.8900   30.4560   16.2290 C.3       1 A60         0.0578
     17 C17        19.8470   29.3850   15.6840 C.3       1 A60         0.0967
     18 C18        21.8570   34.9960   16.9810 C.3       1 A60        -0.0650
     19 O18        19.8090   28.2110   16.5400 O.3       1 A60        -0.3877
     20 C19        19.5310   28.9630   14.2500 C.3       1 A60         0.0807
     21 C20        23.4170   32.2320   14.8960 C.3       1 A60        -0.0650
     22 N20        20.6360   28.1570   13.7800 N.am      1 A60        -0.2550
     23 C21        21.5070   28.5430   12.8640 C.2       1 A60         0.3203
     24 O22        21.5780   29.5870   12.2530 O.2       1 A60        -0.3775
     25 O23        22.4610   27.5140   12.6150 O.3       1 A60        -0.2578
     26 C24        23.2940   27.6600   11.4710 C.3       1 A60         0.1189
     27 C25        24.6080   27.0590   11.9260 C.3       1 A60         0.0815
     28 O26        24.4060   25.6500   11.7980 O.3       1 A60        -0.3480
     29 C27        23.5230   25.3880   10.7120 C.3       1 A60         0.1648
     30 O28        22.5430   24.4650   11.1440 O.3       1 A60        -0.3509
     31 C29        21.2680   25.0990   11.1960 C.3       1 A60         0.0512
     32 C30        21.3660   26.3480   10.3170 C.3       1 A60        -0.0191
     33 C31        22.8460   26.7100   10.3840 C.3       1 A60         0.0449
     34 C32        18.2300   28.1730   14.1010 C.3       1 A60         0.0064
     35 C33        18.0640   26.4150   12.2380 C.ar      1 A60        -0.0603
     36 C34        17.8720   26.0870   10.9020 C.ar      1 A60        -0.0686
     37 C35        17.5830   27.0730    9.9760 C.ar      1 A60        -0.0687
     38 C36        17.5110   28.3840   10.3910 C.ar      1 A60        -0.0686
     39 C37        17.7040   28.7160   11.7220 C.ar      1 A60        -0.0603
     40 C38        17.9890   27.7380   12.6660 C.ar      1 A60        -0.0408
     41 H1         14.1823   35.9951   18.4198 H         1 A60         0.1719
     42 H2         13.3668   34.4154   18.5688 H         1 A60         0.1719
     43 H3         16.1697   36.2537   16.9692 H         1 A60         0.0515
     44 H4         17.8126   35.1194   15.4670 H         1 A60         0.0602
     45 H5         15.6888   31.4303   15.9560 H         1 A60         0.0602
     46 H6         14.1058   32.5232   17.4885 H         1 A60         0.0515
     47 H7         19.4529   32.6882   17.4009 H         1 A60         0.0481
     48 H8         19.6289   33.7494   15.9623 H         1 A60         0.0481
     49 H9         21.5437   31.5225   16.7719 H         1 A60         0.0316
     50 H10        21.8876   33.6994   14.6828 H         1 A60         0.0266
     51 H11        21.3767   32.0152   14.3234 H         1 A60         0.0266
     52 H12        23.0388   33.2968   17.4922 H         1 A60         0.0266
     53 H13        21.4714   33.4176   18.3613 H         1 A60         0.0266
     54 H14        17.8508   30.1403   16.0547 H         1 A60         0.0504
     55 H15        19.0589   30.5817   17.3087 H         1 A60         0.0504
     56 H16        20.8648   29.8019   15.7000 H         1 A60         0.0634
     57 H17        22.3300   35.6292   17.7460 H         1 A60         0.0230
     58 H18        20.7955   35.2679   16.8851 H         1 A60         0.0230
     59 H19        22.3629   35.1471   16.0160 H         1 A60         0.0230
     60 H20        20.0748   28.4529   17.4194 H         1 A60         0.2100
     61 H21        19.4516   29.8692   13.6315 H         1 A60         0.0604
     62 H22        23.7564   32.3509   13.8565 H         1 A60         0.0230
     63 H23        23.5191   31.1789   15.1968 H         1 A60         0.0230
     64 H24        24.0300   32.8631   15.5563 H         1 A60         0.0230
     65 H25        20.7487   27.2453   14.1751 H         1 A60         0.1873
     66 H26        23.3673   28.7017   11.1255 H         1 A60         0.0675
     67 H27        24.8212   27.3302   12.9705 H         1 A60         0.0590
     68 H28        25.4352   27.3954   11.2836 H         1 A60         0.0590
     69 H29        24.0687   24.9957    9.8412 H         1 A60         0.0913
     70 H30        21.0262   25.3813   12.2313 H         1 A60         0.0561
     71 H31        20.4915   24.4226   10.8094 H         1 A60         0.0561
     72 H32        20.7431   27.1614   10.7174 H         1 A60         0.0293
     73 H33        21.0609   26.1273    9.2835 H         1 A60         0.0293
     74 H34        23.1669   27.1053    9.4089 H         1 A60         0.0380
     75 H35        17.3911   28.8060   14.4257 H         1 A60         0.0449
     76 H36        18.2827   27.2785   14.7390 H         1 A60         0.0449
     77 H37        18.2749   25.6312   12.9565 H         1 A60         0.0557
     78 H38        17.9490   25.0537   10.5836 H         1 A60         0.0599
     79 H39        17.4152   26.8168    8.9362 H         1 A60         0.0559
     80 H40        17.3011   29.1645    9.6686 H         1 A60         0.0599
     81 H41        17.6316   29.7526   12.0307 H         1 A60         0.0557
@<TRIPOS>BOND
     1    2    1 1  
     2    3    2 ar 
     3    7    2 ar 
     4    4    3 ar 
     5    5    4 ar 
     6    5    6 ar 
     7    8    5 1  
     8    6    7 ar 
     9    8    9 2  
    10    8   10 2  
    11   11    8 am 
    12   11   12 1  
    13   16   11 1  
    14   12   13 1  
    15   13   14 1  
    16   13   15 1  
    17   14   21 1  
    18   15   18 1  
    19   17   16 1  
    20   17   19 1  
    21   20   17 1  
    22   20   22 1  
    23   34   20 1  
    24   22   23 am 
    25   23   24 2  
    26   23   25 1  
    27   25   26 1  
    28   26   27 1  
    29   26   33 1  
    30   27   28 1  
    31   29   28 1  
    32   29   30 1  
    33   33   29 1  
    34   31   30 1  
    35   32   31 1  
    36   33   32 1  
    37   40   34 1  
    38   35   36 ar 
    39   35   40 ar 
    40   36   37 ar 
    41   37   38 ar 
    42   38   39 ar 
    43   39   40 ar 
    44    1   41 1  
    45    1   42 1  
    46    3   43 1  
    47    4   44 1  
    48    6   45 1  
    49    7   46 1  
    50   12   47 1  
    51   12   48 1  
    52   13   49 1  
    53   14   50 1  
    54   14   51 1  
    55   15   52 1  
    56   15   53 1  
    57   16   54 1  
    58   16   55 1  
    59   17   56 1  
    60   18   57 1  
    61   18   58 1  
    62   18   59 1  
    63   19   60 1  
    64   20   61 1  
    65   21   62 1  
    66   21   63 1  
    67   21   64 1  
    68   22   65 1  
    69   26   66 1  
    70   27   67 1  
    71   27   68 1  
    72   29   69 1  
    73   31   70 1  
    74   31   71 1  
    75   32   72 1  
    76   32   73 1  
    77   33   74 1  
    78   34   75 1  
    79   34   76 1  
    80   35   77 1  
    81   36   78 1  
    82   37   79 1  
    83   38   80 1  
    84   39   81 1  
@<TRIPOS>SUBSTRUCTURE
     1 A60         1

