### 
### Created by X-TOOL on Mon Sep 10 21:13:05 2018
### 

@<TRIPOS>MOLECULE
3o9f_ligand
   83    86     1     0     0
SMALL
GAST_HUCK


@<TRIPOS>ATOM
      1 C1         15.1490   36.9220   18.8820 C.3       1 K2D         0.0594
      2 O1         14.7710   35.5590   18.6410 O.3       1 K2D        -0.3212
      3 C2         15.4970   34.8340   17.7240 C.ar      1 K2D         0.0908
      4 C3         16.4500   35.4730   16.9080 C.ar      1 K2D        -0.0313
      5 C4         17.1840   34.7020   15.9980 C.ar      1 K2D        -0.0440
      6 C5         16.9690   33.3300   15.8340 C.ar      1 K2D         0.0971
      7 C6         16.0100   32.7130   16.6490 C.ar      1 K2D        -0.0440
      8 C7         15.2760   33.4620   17.5790 C.ar      1 K2D        -0.0313
      9 S8         17.9050   32.4670   14.7990 S.o2      1 K2D         0.0657
     10 O9         18.4970   33.3130   13.7890 O.2       1 K2D        -0.1515
     11 O10        17.1750   31.3810   14.2430 O.2       1 K2D        -0.1515
     12 N11        19.1630   31.8510   15.6290 N.am      1 K2D        -0.2324
     13 C12        19.8450   32.8350   16.5200 C.3       1 K2D         0.0324
     14 C13        21.3720   32.6880   16.4850 C.3       1 K2D        -0.0244
     15 C14        21.9310   32.8190   15.0660 C.3       1 K2D        -0.0516
     16 C15        22.0230   33.6720   17.4660 C.3       1 K2D        -0.0516
     17 C16        18.8620   30.5570   16.2850 C.3       1 K2D         0.0578
     18 C17        19.8240   29.5010   15.7260 C.3       1 K2D         0.0967
     19 C18        21.8880   35.1200   17.0730 C.3       1 K2D        -0.0650
     20 O18        19.8240   28.3360   16.5680 O.3       1 K2D        -0.3877
     21 C19        19.5010   29.0910   14.2980 C.3       1 K2D         0.0807
     22 C20        23.3300   32.2530   14.9340 C.3       1 K2D        -0.0650
     23 N20        20.6070   28.2910   13.8380 N.am      1 K2D        -0.2550
     24 C21        21.4980   28.6560   12.9190 C.2       1 K2D         0.3203
     25 O22        21.5780   29.7020   12.2980 O.2       1 K2D        -0.3775
     26 O23        22.4490   27.6110   12.6550 O.3       1 K2D        -0.2578
     27 C24        23.2980   27.7780   11.5230 C.3       1 K2D         0.1189
     28 C25        24.6300   27.2310   11.9960 C.3       1 K2D         0.0815
     29 O26        24.4260   25.8270   11.8710 O.3       1 K2D        -0.3480
     30 C27        23.5310   25.5490   10.7880 C.3       1 K2D         0.1648
     31 O28        22.5340   24.6020   11.1750 O.3       1 K2D        -0.3509
     32 C29        21.2440   25.2290   11.1580 C.3       1 K2D         0.0512
     33 C30        21.3720   26.4980   10.3230 C.3       1 K2D        -0.0191
     34 C31        22.8500   26.8490   10.4090 C.3       1 K2D         0.0449
     35 C32        18.2070   28.2840   14.1910 C.3       1 K2D         0.0064
     36 C33        18.0840   26.5880   12.3280 C.ar      1 K2D        -0.0603
     37 C34        17.8740   26.2360   11.0060 C.ar      1 K2D        -0.0686
     38 C35        17.5310   27.2060   10.0850 C.ar      1 K2D        -0.0687
     39 C36        17.4090   28.5350   10.4790 C.ar      1 K2D        -0.0686
     40 C37        17.6150   28.8930   11.8130 C.ar      1 K2D        -0.0603
     41 C38        17.9620   27.9150   12.7400 C.ar      1 K2D        -0.0408
     42 H1         14.4776   37.3611   19.6346 H         1 K2D         0.0577
     43 H2         15.0743   37.4943   17.9456 H         1 K2D         0.0577
     44 H3         16.1848   36.9556   19.2507 H         1 K2D         0.0577
     45 H4         16.6126   36.5421   16.9828 H         1 K2D         0.0542
     46 H5         17.9466   35.1864   15.3989 H         1 K2D         0.0608
     47 H6         15.8344   31.6471   16.5593 H         1 K2D         0.0608
     48 H7         14.5288   32.9715   18.1924 H         1 K2D         0.0542
     49 H8         19.4977   32.6785   17.5519 H         1 K2D         0.0481
     50 H9         19.5795   33.8515   16.1939 H         1 K2D         0.0481
     51 H10        21.6127   31.6723   16.8321 H         1 K2D         0.0316
     52 H11        21.9555   33.8847   14.7944 H         1 K2D         0.0266
     53 H12        21.2666   32.2797   14.3749 H         1 K2D         0.0266
     54 H13        23.0943   33.4321   17.5345 H         1 K2D         0.0266
     55 H14        21.5534   33.5374   18.4515 H         1 K2D         0.0266
     56 H15        17.8233   30.2643   16.0721 H         1 K2D         0.0504
     57 H16        19.0014   30.6493   17.3722 H         1 K2D         0.0504
     58 H17        20.8351   29.9342   15.7313 H         1 K2D         0.0634
     59 H18        22.3799   35.7520   17.8271 H         1 K2D         0.0230
     60 H19        20.8223   35.3853   17.0110 H         1 K2D         0.0230
     61 H20        22.3633   35.2801   16.0940 H         1 K2D         0.0230
     62 H21        18.9473   27.9719   16.6029 H         1 K2D         0.2100
     63 H22        19.4062   29.9925   13.6748 H         1 K2D         0.0604
     64 H23        23.6783   32.3744   13.8977 H         1 K2D         0.0230
     65 H24        23.3193   31.1843   15.1944 H         1 K2D         0.0230
     66 H25        24.0082   32.7893   15.6140 H         1 K2D         0.0230
     67 H26        20.7147   27.3835   14.2439 H         1 K2D         0.1873
     68 H27        23.3518   28.8250   11.1899 H         1 K2D         0.0675
     69 H28        24.8328   27.5154   13.0391 H         1 K2D         0.0590
     70 H29        25.4552   27.5749   11.3551 H         1 K2D         0.0590
     71 H30        24.0975   25.1548    9.9315 H         1 K2D         0.0913
     72 H31        20.9339   25.4816   12.1827 H         1 K2D         0.0561
     73 H32        20.5024   24.5537   10.7064 H         1 K2D         0.0561
     74 H33        20.7536   27.3055   10.7419 H         1 K2D         0.0293
     75 H34        21.0747   26.3115    9.2805 H         1 K2D         0.0293
     76 H35        23.1897   27.2386    9.4380 H         1 K2D         0.0380
     77 H36        17.3661   28.8877   14.5632 H         1 K2D         0.0449
     78 H37        18.2952   27.3675   14.7929 H         1 K2D         0.0449
     79 H38        18.3461   25.8241   13.0510 H         1 K2D         0.0557
     80 H39        17.9784   25.2029   10.6948 H         1 K2D         0.0599
     81 H40        17.3561   26.9311    9.0511 H         1 K2D         0.0559
     82 H41        17.1534   29.2942    9.7487 H         1 K2D         0.0599
     83 H42        17.5053   29.9256   12.1242 H         1 K2D         0.0557
@<TRIPOS>BOND
     1    2    1 1  
     2    3    2 1  
     3    4    3 ar 
     4    8    3 ar 
     5    5    4 ar 
     6    6    5 ar 
     7    6    7 ar 
     8    9    6 1  
     9    7    8 ar 
    10    9   10 2  
    11    9   11 2  
    12   12    9 am 
    13   12   13 1  
    14   17   12 1  
    15   13   14 1  
    16   14   15 1  
    17   14   16 1  
    18   15   22 1  
    19   16   19 1  
    20   18   17 1  
    21   18   20 1  
    22   21   18 1  
    23   21   23 1  
    24   35   21 1  
    25   23   24 am 
    26   24   25 2  
    27   24   26 1  
    28   26   27 1  
    29   27   28 1  
    30   27   34 1  
    31   28   29 1  
    32   30   29 1  
    33   30   31 1  
    34   34   30 1  
    35   32   31 1  
    36   33   32 1  
    37   34   33 1  
    38   41   35 1  
    39   36   37 ar 
    40   36   41 ar 
    41   37   38 ar 
    42   38   39 ar 
    43   39   40 ar 
    44   40   41 ar 
    45    1   42 1  
    46    1   43 1  
    47    1   44 1  
    48    4   45 1  
    49    5   46 1  
    50    7   47 1  
    51    8   48 1  
    52   13   49 1  
    53   13   50 1  
    54   14   51 1  
    55   15   52 1  
    56   15   53 1  
    57   16   54 1  
    58   16   55 1  
    59   17   56 1  
    60   17   57 1  
    61   18   58 1  
    62   19   59 1  
    63   19   60 1  
    64   19   61 1  
    65   20   62 1  
    66   21   63 1  
    67   22   64 1  
    68   22   65 1  
    69   22   66 1  
    70   23   67 1  
    71   27   68 1  
    72   28   69 1  
    73   28   70 1  
    74   30   71 1  
    75   32   72 1  
    76   32   73 1  
    77   33   74 1  
    78   33   75 1  
    79   34   76 1  
    80   35   77 1  
    81   35   78 1  
    82   36   79 1  
    83   37   80 1  
    84   38   81 1  
    85   39   82 1  
    86   40   83 1  
@<TRIPOS>SUBSTRUCTURE
     1 K2D         1

