### 
### Created by X-TOOL on Mon Sep 10 21:13:06 2018
### 

@<TRIPOS>MOLECULE
3o9g_ligand
   83    86     1     0     0
SMALL
GAST_HUCK


@<TRIPOS>ATOM
      1 C1         14.2960   35.7890   18.2350 C.3       1 F53         0.0782
      2 O1         14.8510   35.8600   19.5590 O.3       1 F53        -0.3825
      3 C2         15.2060   34.9220   17.3790 C.ar      1 F53        -0.0177
      4 C3         16.2360   35.5150   16.6580 C.ar      1 F53        -0.0563
      5 C4         17.0740   34.7250   15.8480 C.ar      1 F53        -0.0419
      6 C5         16.9100   33.3270   15.7550 C.ar      1 F53         0.1013
      7 C6         15.8810   32.7460   16.5160 C.ar      1 F53        -0.0419
      8 C7         15.0210   33.5420   17.3020 C.ar      1 F53        -0.0563
      9 O8         22.5210   24.6060   11.2720 O.3       1 F53        -0.3509
     10 S8         17.9290   32.3990   14.8720 S.o2      1 F53         0.0676
     11 O9         18.5970   33.2150   13.9280 O.2       1 F53        -0.1510
     12 O10        17.2180   31.2890   14.2940 O.2       1 F53        -0.1510
     13 N11        19.1210   31.7980   15.7940 N.am      1 F53        -0.2320
     14 C12        19.7810   32.8440   16.6270 C.3       1 F53         0.0324
     15 C13        21.2890   32.6320   16.5680 C.3       1 F53        -0.0244
     16 C14        21.8490   32.8160   15.1560 C.3       1 F53        -0.0516
     17 C15        21.9750   33.5550   17.5770 C.3       1 F53        -0.0516
     18 C16        18.8230   30.4980   16.4310 C.3       1 F53         0.0578
     19 C17        19.7940   29.4340   15.8810 C.3       1 F53         0.0967
     20 C18        21.8030   35.0240   17.2580 C.3       1 F53        -0.0650
     21 O18        19.7890   28.2430   16.6950 O.3       1 F53        -0.3877
     22 C19        19.4670   29.0490   14.4330 C.3       1 F53         0.0807
     23 C20        23.3300   32.4940   15.0310 C.3       1 F53        -0.0650
     24 N20        20.5620   28.2570   13.9230 N.am      1 F53        -0.2550
     25 C21        21.4570   28.6380   13.0100 C.2       1 F53         0.3203
     26 O22        21.5550   29.6840   12.4000 O.2       1 F53        -0.3775
     27 O23        22.4390   27.6090   12.7640 O.3       1 F53        -0.2578
     28 C24        23.2770   27.7790   11.6290 C.3       1 F53         0.1189
     29 C25        24.5910   27.1810   12.1260 C.3       1 F53         0.0815
     30 O26        24.3900   25.7760   11.9720 O.3       1 F53        -0.3480
     31 C27        23.5160   25.5460   10.8720 C.3       1 F53         0.1648
     32 C29        21.2370   25.2510   11.3180 C.3       1 F53         0.0512
     33 C30        21.3650   26.4900   10.4390 C.3       1 F53        -0.0191
     34 C31        22.8480   26.8540   10.5110 C.3       1 F53         0.0449
     35 C32        18.1900   28.2210   14.2730 C.3       1 F53         0.0064
     36 C33        18.0810   26.5890   12.3620 C.ar      1 F53        -0.0603
     37 C34        17.8970   26.2280   11.0320 C.ar      1 F53        -0.0686
     38 C35        17.5650   27.2110   10.1090 C.ar      1 F53        -0.0687
     39 C36        17.4330   28.5250   10.5340 C.ar      1 F53        -0.0686
     40 C37        17.6080   28.8820   11.8810 C.ar      1 F53        -0.0603
     41 C38        17.9600   27.9060   12.8070 C.ar      1 F53        -0.0408
     42 H1         14.2324   36.7991   17.8042 H         1 F53         0.0721
     43 H2         13.2908   35.3442   18.2769 H         1 F53         0.0721
     44 H3         14.2927   36.3993   20.1067 H         1 F53         0.2126
     45 H4         16.3940   36.5857   16.7194 H         1 F53         0.0558
     46 H5         17.8650   35.2031   15.2816 H         1 F53         0.0619
     47 H6         15.7461   31.6706   16.4988 H         1 F53         0.0619
     48 H7         14.2099   33.0769   17.8505 H         1 F53         0.0558
     49 H8         19.4356   32.7613   17.6681 H         1 F53         0.0481
     50 H9         19.5314   33.8414   16.2359 H         1 F53         0.0481
     51 H10        21.4934   31.5936   16.8679 H         1 F53         0.0316
     52 H11        21.6964   33.8636   14.8572 H         1 F53         0.0266
     53 H12        21.2928   32.1556   14.4745 H         1 F53         0.0266
     54 H13        23.0503   33.3236   17.5870 H         1 F53         0.0266
     55 H14        21.5491   33.3618   18.5726 H         1 F53         0.0266
     56 H15        17.7875   30.2048   16.2035 H         1 F53         0.0504
     57 H16        18.9489   30.5838   17.5204 H         1 F53         0.0504
     58 H17        20.8068   29.8628   15.9020 H         1 F53         0.0634
     59 H18        22.3185   35.6274   18.0197 H         1 F53         0.0230
     60 H19        20.7321   35.2755   17.2541 H         1 F53         0.0230
     61 H20        22.2334   35.2372   16.2684 H         1 F53         0.0230
     62 H21        20.0544   28.4645   17.5800 H         1 F53         0.2100
     63 H22        19.3642   29.9707   13.8415 H         1 F53         0.0604
     64 H23        23.6528   32.6507   13.9912 H         1 F53         0.0230
     65 H24        23.5024   31.4452   15.3143 H         1 F53         0.0230
     66 H25        23.9061   33.1532   15.6970 H         1 F53         0.0230
     67 H26        20.6587   27.3320   14.2905 H         1 F53         0.1873
     68 H27        23.3508   28.8269   11.3026 H         1 F53         0.0675
     69 H28        24.7686   27.4406   13.1800 H         1 F53         0.0590
     70 H29        25.4378   27.5274   11.5153 H         1 F53         0.0590
     71 H30        24.0799   25.1577   10.0110 H         1 F53         0.0913
     72 H31        20.9887   25.5375   12.3506 H         1 F53         0.0561
     73 H32        20.4574   24.5815   10.9256 H         1 F53         0.0561
     74 H33        20.7435   27.3098   10.8284 H         1 F53         0.0293
     75 H34        21.0690   26.2653    9.4037 H         1 F53         0.0293
     76 H35        23.1840   27.2527    9.5424 H         1 F53         0.0380
     77 H36        17.3339   28.7917   14.6622 H         1 F53         0.0449
     78 H37        18.2912   27.2817   14.8364 H         1 F53         0.0449
     79 H38        18.3282   25.8169   13.0816 H         1 F53         0.0557
     80 H39        18.0109   25.1959   10.7206 H         1 F53         0.0599
     81 H40        17.4106   26.9543    9.0672 H         1 F53         0.0559
     82 H41        17.1892   29.2938    9.8098 H         1 F53         0.0599
     83 H42        17.4698   29.9099   12.1963 H         1 F53         0.0557
@<TRIPOS>BOND
     1    1    2 1  
     2    3    1 1  
     3    4    3 ar 
     4    8    3 ar 
     5    5    4 ar 
     6    6    5 ar 
     7    6    7 ar 
     8   10    6 1  
     9    7    8 ar 
    10   31    9 1  
    11   32    9 1  
    12   10   11 2  
    13   10   12 2  
    14   13   10 am 
    15   13   14 1  
    16   18   13 1  
    17   14   15 1  
    18   15   16 1  
    19   15   17 1  
    20   16   23 1  
    21   17   20 1  
    22   19   18 1  
    23   19   21 1  
    24   22   19 1  
    25   22   24 1  
    26   35   22 1  
    27   24   25 am 
    28   25   26 2  
    29   25   27 1  
    30   27   28 1  
    31   28   29 1  
    32   28   34 1  
    33   29   30 1  
    34   31   30 1  
    35   34   31 1  
    36   33   32 1  
    37   34   33 1  
    38   41   35 1  
    39   36   37 ar 
    40   36   41 ar 
    41   37   38 ar 
    42   38   39 ar 
    43   39   40 ar 
    44   40   41 ar 
    45    1   42 1  
    46    1   43 1  
    47    2   44 1  
    48    4   45 1  
    49    5   46 1  
    50    7   47 1  
    51    8   48 1  
    52   14   49 1  
    53   14   50 1  
    54   15   51 1  
    55   16   52 1  
    56   16   53 1  
    57   17   54 1  
    58   17   55 1  
    59   18   56 1  
    60   18   57 1  
    61   19   58 1  
    62   20   59 1  
    63   20   60 1  
    64   20   61 1  
    65   21   62 1  
    66   22   63 1  
    67   23   64 1  
    68   23   65 1  
    69   23   66 1  
    70   24   67 1  
    71   28   68 1  
    72   29   69 1  
    73   29   70 1  
    74   31   71 1  
    75   32   72 1  
    76   32   73 1  
    77   33   74 1  
    78   33   75 1  
    79   34   76 1  
    80   35   77 1  
    81   35   78 1  
    82   36   79 1  
    83   37   80 1  
    84   38   81 1  
    85   39   82 1  
    86   40   83 1  
@<TRIPOS>SUBSTRUCTURE
     1 F53         1

