### 
### Created by X-TOOL on Mon Sep 10 21:13:05 2018
### 

@<TRIPOS>MOLECULE
3o9h_ligand
   82    86     1     0     0
SMALL
GAST_HUCK


@<TRIPOS>ATOM
      1 C1         15.6200   36.7170   18.3630 C.3       1 K2E         0.1868
      2 O1         14.9180   35.4570   18.5330 O.3       1 K2E        -0.2910
      3 C2         15.5210   34.5500   17.6900 C.ar      1 K2E         0.1233
      4 O2         16.5050   36.5260   17.2440 O.3       1 K2E        -0.2909
      5 C3         16.4570   35.1900   16.9080 C.ar      1 K2E         0.1250
      6 C4         17.1950   34.5020   15.9530 C.ar      1 K2E        -0.0149
      7 C5         17.0290   33.1160   15.7760 C.ar      1 K2E         0.0885
      8 C6         16.0420   32.4880   16.5600 C.ar      1 K2E        -0.0554
      9 C7         15.2840   33.1980   17.5180 C.ar      1 K2E        -0.0395
     10 S8         17.9600   32.2970   14.7070 S.o2      1 K2E         0.0633
     11 O9         17.2300   31.1650   14.1990 O.2       1 K2E        -0.1517
     12 O10        18.4890   33.1680   13.6830 O.2       1 K2E        -0.1517
     13 N11        19.2300   31.6890   15.5320 N.am      1 K2E        -0.2326
     14 C12        19.9510   32.6910   16.3510 C.3       1 K2E         0.0324
     15 C13        21.4670   32.4750   16.3430 C.3       1 K2E        -0.0244
     16 C14        22.0610   32.6170   14.9310 C.3       1 K2E        -0.0516
     17 C15        22.1360   33.4370   17.3380 C.3       1 K2E        -0.0516
     18 C16        18.9190   30.4610   16.2880 C.3       1 K2E         0.0578
     19 C17        19.8470   29.3730   15.7400 C.3       1 K2E         0.0967
     20 C18        21.9910   34.9000   17.0010 C.3       1 K2E        -0.0650
     21 O18        19.9230   28.2710   16.6430 O.3       1 K2E        -0.3877
     22 C19        19.4860   28.9020   14.3340 C.3       1 K2E         0.0807
     23 C20        23.4600   32.0600   14.8370 C.3       1 K2E        -0.0650
     24 N20        20.5830   28.1050   13.8450 N.am      1 K2E        -0.2550
     25 C21        21.4770   28.4460   12.9310 C.2       1 K2E         0.3203
     26 O22        21.6270   29.4930   12.3300 O.2       1 K2E        -0.3775
     27 O23        22.3930   27.3740   12.6440 O.3       1 K2E        -0.2578
     28 C24        23.2650   27.5210   11.5280 C.3       1 K2E         0.1189
     29 C25        24.5850   26.9280   12.0000 C.3       1 K2E         0.0815
     30 O26        24.3950   25.5220   11.8700 O.3       1 K2E        -0.3480
     31 C27        23.5090   25.2500   10.7890 C.3       1 K2E         0.1648
     32 O28        22.5120   24.3050   11.1980 O.3       1 K2E        -0.3509
     33 C29        21.2600   24.9760   11.3350 C.3       1 K2E         0.0512
     34 C30        21.3560   26.1900   10.4100 C.3       1 K2E        -0.0191
     35 C31        22.8330   26.5640   10.4400 C.3       1 K2E         0.0449
     36 C32        18.2020   28.0610   14.2430 C.3       1 K2E         0.0064
     37 C33        18.1340   26.3530   12.3800 C.ar      1 K2E        -0.0603
     38 C34        17.9310   25.9860   11.0530 C.ar      1 K2E        -0.0686
     39 C35        17.5280   26.9380   10.1290 C.ar      1 K2E        -0.0687
     40 C36        17.3330   28.2480   10.5260 C.ar      1 K2E        -0.0686
     41 C37        17.5410   28.6170   11.8580 C.ar      1 K2E        -0.0603
     42 C38        17.9530   27.6730   12.7940 C.ar      1 K2E        -0.0408
     43 H1         16.1950   36.9602   19.2687 H         1 K2E         0.0973
     44 H2         14.9066   37.5275   18.1529 H         1 K2E         0.0973
     45 H3         17.9070   35.0392   15.3370 H         1 K2E         0.0528
     46 H4         15.8583   31.4283   16.4245 H         1 K2E         0.0514
     47 H5         14.5291   32.6916   18.1085 H         1 K2E         0.0509
     48 H6         19.5908   32.6238   17.3882 H         1 K2E         0.0481
     49 H7         19.7356   33.6933   15.9522 H         1 K2E         0.0481
     50 H8         21.6629   31.4472   16.6823 H         1 K2E         0.0316
     51 H9         22.0869   33.6838   14.6643 H         1 K2E         0.0266
     52 H10        21.4174   32.0770   14.2210 H         1 K2E         0.0266
     53 H11        23.2094   33.1994   17.3742 H         1 K2E         0.0266
     54 H12        21.6895   33.2687   18.3291 H         1 K2E         0.0266
     55 H13        17.8673   30.1764   16.1366 H         1 K2E         0.0504
     56 H14        19.1060   30.6164   17.3608 H         1 K2E         0.0504
     57 H15        20.8521   29.8155   15.6772 H         1 K2E         0.0634
     58 H16        22.4995   35.5047   17.7664 H         1 K2E         0.0230
     59 H17        20.9240   35.1658   16.9729 H         1 K2E         0.0230
     60 H18        22.4439   35.0965   16.0180 H         1 K2E         0.0230
     61 H19        19.0560   27.9024   16.7647 H         1 K2E         0.2100
     62 H20        19.3605   29.7887   13.6952 H         1 K2E         0.0604
     63 H21        23.8366   32.1860   13.8112 H         1 K2E         0.0230
     64 H22        23.4469   30.9905   15.0939 H         1 K2E         0.0230
     65 H23        24.1165   32.5974   15.5372 H         1 K2E         0.0230
     66 H24        20.6792   27.1918   14.2410 H         1 K2E         0.1873
     67 H25        23.3407   28.5620   11.1809 H         1 K2E         0.0675
     68 H26        24.7845   27.2008   13.0468 H         1 K2E         0.0590
     69 H27        25.4167   27.2707   11.3668 H         1 K2E         0.0590
     70 H28        24.0657   24.8586    9.9248 H         1 K2E         0.0913
     71 H29        21.1046   25.2951   12.3762 H         1 K2E         0.0561
     72 H30        20.4338   24.3191   11.0256 H         1 K2E         0.0561
     73 H31        20.7360   27.0173   10.7857 H         1 K2E         0.0293
     74 H32        21.0399   25.9292    9.3892 H         1 K2E         0.0293
     75 H33        23.1447   26.9515    9.4589 H         1 K2E         0.0380
     76 H34        17.3509   28.6492   14.6166 H         1 K2E         0.0449
     77 H35        18.3150   27.1519   14.8519 H         1 K2E         0.0449
     78 H36        18.4369   25.6031   13.1018 H         1 K2E         0.0557
     79 H37        18.0874   24.9592   10.7428 H         1 K2E         0.0599
     80 H38        17.3658   26.6552    9.0952 H         1 K2E         0.0559
     81 H39        17.0179   28.9909    9.8022 H         1 K2E         0.0599
     82 H40        17.3805   29.6445   12.1638 H         1 K2E         0.0557
@<TRIPOS>BOND
     1    2    1 1  
     2    4    1 1  
     3    3    2 1  
     4    5    3 ar 
     5    9    3 ar 
     6    5    4 1  
     7    6    5 ar 
     8    7    6 ar 
     9    7    8 ar 
    10   10    7 1  
    11    8    9 ar 
    12   10   11 2  
    13   10   12 2  
    14   13   10 am 
    15   13   14 1  
    16   18   13 1  
    17   14   15 1  
    18   15   16 1  
    19   15   17 1  
    20   16   23 1  
    21   17   20 1  
    22   19   18 1  
    23   19   21 1  
    24   22   19 1  
    25   22   24 1  
    26   36   22 1  
    27   24   25 am 
    28   25   26 2  
    29   25   27 1  
    30   27   28 1  
    31   28   29 1  
    32   28   35 1  
    33   29   30 1  
    34   31   30 1  
    35   31   32 1  
    36   35   31 1  
    37   33   32 1  
    38   34   33 1  
    39   35   34 1  
    40   42   36 1  
    41   37   38 ar 
    42   37   42 ar 
    43   38   39 ar 
    44   39   40 ar 
    45   40   41 ar 
    46   41   42 ar 
    47    1   43 1  
    48    1   44 1  
    49    6   45 1  
    50    8   46 1  
    51    9   47 1  
    52   14   48 1  
    53   14   49 1  
    54   15   50 1  
    55   16   51 1  
    56   16   52 1  
    57   17   53 1  
    58   17   54 1  
    59   18   55 1  
    60   18   56 1  
    61   19   57 1  
    62   20   58 1  
    63   20   59 1  
    64   20   60 1  
    65   21   61 1  
    66   22   62 1  
    67   23   63 1  
    68   23   64 1  
    69   23   65 1  
    70   24   66 1  
    71   28   67 1  
    72   29   68 1  
    73   29   69 1  
    74   31   70 1  
    75   33   71 1  
    76   33   72 1  
    77   34   73 1  
    78   34   74 1  
    79   35   75 1  
    80   36   76 1  
    81   36   77 1  
    82   37   78 1  
    83   38   79 1  
    84   39   80 1  
    85   40   81 1  
    86   41   82 1  
@<TRIPOS>SUBSTRUCTURE
     1 K2E         1

