### 
### Created by X-TOOL on Mon Sep 10 21:13:05 2018
### 

@<TRIPOS>MOLECULE
3o9i_ligand
   81    85     1     0     0
SMALL
GAST_HUCK


@<TRIPOS>ATOM
      1 C1         15.3520   36.5310   18.5170 C.2       1 A61         0.0809
      2 N1         14.9080   35.2650   18.5990 N.2       1 A61        -0.2931
      3 S1         16.5800   36.8090   17.3170 S.3       1 A61         0.0026
      4 C2         15.5210   34.4370   17.7000 C.ar      1 A61         0.0375
      5 C3         16.4610   35.1460   16.9520 C.ar      1 A61         0.0595
      6 C4         17.1930   34.4420   15.9750 C.ar      1 A61        -0.0206
      7 C5         17.0150   33.0530   15.7370 C.ar      1 A61         0.1007
      8 C6         16.0430   32.3860   16.4880 C.ar      1 A61        -0.0433
      9 C7         15.3180   33.0860   17.4470 C.ar      1 A61        -0.0517
     10 S8         17.9260   32.1540   14.7010 S.o2      1 A61         0.0679
     11 O9         18.4850   33.0220   13.7250 O.2       1 A61        -0.1506
     12 O10        17.1830   31.0640   14.1980 O.2       1 A61        -0.1506
     13 N11        19.1700   31.5540   15.5690 N.am      1 A61        -0.2317
     14 C12        19.9270   32.5650   16.3450 C.3       1 A61         0.0325
     15 C13        21.4440   32.3750   16.2810 C.3       1 A61        -0.0244
     16 C14        22.0330   32.4620   14.8690 C.3       1 A61        -0.0516
     17 C15        22.0940   33.3740   17.2590 C.3       1 A61        -0.0516
     18 C16        18.9220   30.2750   16.2580 C.3       1 A61         0.0579
     19 C17        19.8650   29.2000   15.7010 C.3       1 A61         0.0967
     20 C18        21.9790   34.8330   16.8600 C.3       1 A61        -0.0650
     21 O18        19.8310   28.0670   16.5910 O.3       1 A61        -0.3877
     22 C19        19.5080   28.7470   14.2770 C.3       1 A61         0.0807
     23 C20        23.4810   32.0150   14.8060 C.3       1 A61        -0.0650
     24 N20        20.5950   27.9280   13.7770 N.am      1 A61        -0.2550
     25 C21        21.4730   28.2990   12.8690 C.2       1 A61         0.3203
     26 O22        21.6050   29.3650   12.3130 O.2       1 A61        -0.3775
     27 O23        22.3820   27.2420   12.5840 O.3       1 A61        -0.2578
     28 C24        23.2490   27.4100   11.4690 C.3       1 A61         0.1189
     29 C25        24.5720   26.8190   11.9320 C.3       1 A61         0.0815
     30 O26        24.3840   25.4160   11.8230 O.3       1 A61        -0.3480
     31 C27        23.4930   25.1260   10.7590 C.3       1 A61         0.1648
     32 O28        22.5000   24.2140   11.1870 O.3       1 A61        -0.3509
     33 C29        21.2100   24.8230   11.2280 C.3       1 A61         0.0512
     34 C30        21.3300   26.0860   10.3880 C.3       1 A61        -0.0191
     35 C31        22.8110   26.4320   10.4000 C.3       1 A61         0.0449
     36 C32        18.2080   27.9410   14.1700 C.3       1 A61         0.0064
     37 C33        18.0390   26.1960   12.3640 C.ar      1 A61        -0.0603
     38 C34        17.8360   25.8160   11.0380 C.ar      1 A61        -0.0686
     39 C35        17.4940   26.7750   10.0950 C.ar      1 A61        -0.0687
     40 C36        17.3780   28.1100   10.4600 C.ar      1 A61        -0.0686
     41 C37        17.5970   28.4980   11.7730 C.ar      1 A61        -0.0603
     42 C38        17.9510   27.5410   12.7280 C.ar      1 A61        -0.0408
     43 H1         14.9702   37.3258   19.1561 H         1 A61         0.1260
     44 H2         17.9213   34.9823   15.3811 H         1 A61         0.0592
     45 H3         15.8555   31.3310   16.3244 H         1 A61         0.0580
     46 H4         14.5650   32.5565   18.0195 H         1 A61         0.0584
     47 H5         19.6127   32.5028   17.3973 H         1 A61         0.0481
     48 H6         19.6842   33.5617   15.9480 H         1 A61         0.0481
     49 H7         21.6622   31.3608   16.6468 H         1 A61         0.0316
     50 H8         21.9725   33.5057   14.5269 H         1 A61         0.0266
     51 H9         21.4385   31.8220   14.2005 H         1 A61         0.0266
     52 H10        23.1627   33.1260   17.3392 H         1 A61         0.0266
     53 H11        21.6142   33.2506   18.2411 H         1 A61         0.0266
     54 H12        17.8787   29.9672   16.0946 H         1 A61         0.0504
     55 H13        19.1034   30.3984   17.3359 H         1 A61         0.0504
     56 H14        20.8848   29.6119   15.6814 H         1 A61         0.0634
     57 H15        22.4709   35.4603   17.6180 H         1 A61         0.0230
     58 H16        20.9171   35.1107   16.7873 H         1 A61         0.0230
     59 H17        22.4656   34.9861   15.8854 H         1 A61         0.0230
     60 H18        18.9439   27.7306   16.6398 H         1 A61         0.2100
     61 H19        19.4068   29.6436   13.6478 H         1 A61         0.0604
     62 H20        23.8462   32.0997   13.7719 H         1 A61         0.0230
     63 H21        23.5565   30.9687   15.1369 H         1 A61         0.0230
     64 H22        24.0905   32.6524   15.4634 H         1 A61         0.0230
     65 H23        20.6851   27.0057   14.1527 H         1 A61         0.1873
     66 H24        23.3130   28.4506   11.1182 H         1 A61         0.0675
     67 H25        24.7838   27.1044   12.9730 H         1 A61         0.0590
     68 H26        25.3964   27.1535   11.2851 H         1 A61         0.0590
     69 H27        24.0401   24.7167    9.8970 H         1 A61         0.0913
     70 H28        20.9363   25.0745   12.2633 H         1 A61         0.0561
     71 H29        20.4527   24.1485   10.8020 H         1 A61         0.0561
     72 H30        20.7395   26.9016   10.8308 H         1 A61         0.0293
     73 H31        20.9854   25.9001    9.3600 H         1 A61         0.0293
     74 H32        23.1174   26.8015    9.4103 H         1 A61         0.0380
     75 H33        17.3698   28.5553   14.5307 H         1 A61         0.0449
     76 H34        18.2912   27.0350   14.7882 H         1 A61         0.0449
     77 H35        18.2655   25.4462   13.1133 H         1 A61         0.0557
     78 H36        17.9446   24.7779   10.7454 H         1 A61         0.0599
     79 H37        17.3163   26.4803    9.0671 H         1 A61         0.0559
     80 H38        17.1150   28.8521    9.7149 H         1 A61         0.0599
     81 H39        17.4941   29.5389   12.0575 H         1 A61         0.0557
@<TRIPOS>BOND
     1    2    1 2  
     2    3    1 1  
     3    4    2 1  
     4    5    3 1  
     5    5    4 ar 
     6    9    4 ar 
     7    6    5 ar 
     8    7    6 ar 
     9    7    8 ar 
    10   10    7 1  
    11    8    9 ar 
    12   10   11 2  
    13   10   12 2  
    14   13   10 am 
    15   13   14 1  
    16   18   13 1  
    17   14   15 1  
    18   15   16 1  
    19   15   17 1  
    20   16   23 1  
    21   17   20 1  
    22   19   18 1  
    23   19   21 1  
    24   22   19 1  
    25   22   24 1  
    26   36   22 1  
    27   24   25 am 
    28   25   26 2  
    29   25   27 1  
    30   27   28 1  
    31   28   29 1  
    32   28   35 1  
    33   29   30 1  
    34   31   30 1  
    35   31   32 1  
    36   35   31 1  
    37   33   32 1  
    38   34   33 1  
    39   35   34 1  
    40   42   36 1  
    41   37   38 ar 
    42   37   42 ar 
    43   38   39 ar 
    44   39   40 ar 
    45   40   41 ar 
    46   41   42 ar 
    47    1   43 1  
    48    6   44 1  
    49    8   45 1  
    50    9   46 1  
    51   14   47 1  
    52   14   48 1  
    53   15   49 1  
    54   16   50 1  
    55   16   51 1  
    56   17   52 1  
    57   17   53 1  
    58   18   54 1  
    59   18   55 1  
    60   19   56 1  
    61   20   57 1  
    62   20   58 1  
    63   20   59 1  
    64   21   60 1  
    65   22   61 1  
    66   23   62 1  
    67   23   63 1  
    68   23   64 1  
    69   24   65 1  
    70   28   66 1  
    71   29   67 1  
    72   29   68 1  
    73   31   69 1  
    74   33   70 1  
    75   33   71 1  
    76   34   72 1  
    77   34   73 1  
    78   35   74 1  
    79   36   75 1  
    80   36   76 1  
    81   37   77 1  
    82   38   78 1  
    83   39   79 1  
    84   40   80 1  
    85   41   81 1  
@<TRIPOS>SUBSTRUCTURE
     1 A61         1

