### 
### Created by X-TOOL on Mon Sep 10 21:13:08 2018
### 

@<TRIPOS>MOLECULE
3o9l_ligand
   86    90     1     0     0
SMALL
GAST_HUCK


@<TRIPOS>ATOM
      1 CL1         3.1700    8.5520   -5.8500 Cl        1 LPN        -0.0805
      2 C2          2.4500    8.1280   -4.2770 C.ar      1 LPN         0.0623
      3 C3          3.2270    7.6570   -3.2240 C.ar      1 LPN         0.1129
      4 C4          1.0720    8.2840   -4.1490 C.ar      1 LPN        -0.0548
      5 O5          4.6050    7.4750   -3.3050 O.3       1 LPN        -0.3180
      6 C6          2.5730    7.3700   -2.0340 C.ar      1 LPN         0.0623
      7 C7          0.4350    7.9790   -2.9550 C.ar      1 LPN        -0.0557
      8 C8          5.2240    6.4650   -4.1440 C.3       1 LPN         0.0968
      9 CL9         3.5520    6.7760   -0.6740 Cl        1 LPN        -0.0805
     10 C10         1.1910    7.5200   -1.8790 C.ar      1 LPN        -0.0548
     11 C11        -1.0480    8.1600   -2.8380 C.3       1 LPN        -0.0362
     12 C12         6.1690    5.4700   -3.4420 C.3       1 LPN         0.0964
     13 O13         5.7820    5.5460   -2.0930 O.3       1 LPN        -0.3198
     14 C14         6.3280    5.3000   -0.8600 C.ar      1 LPN         0.0842
     15 C15         7.2710    6.2070   -0.3660 C.ar      1 LPN        -0.0396
     16 C16         5.8430    4.2770   -0.0400 C.ar      1 LPN        -0.0396
     17 C17         7.7830    6.0590    0.9230 C.ar      1 LPN        -0.0683
     18 C18         6.3640    4.1240    1.2430 C.ar      1 LPN        -0.0683
     19 C19         7.3400    5.0070    1.7380 C.ar      1 LPN        -0.0478
     20 C20         7.8180    4.8410    3.1530 C.3       1 LPN         0.0170
     21 C21         6.8440    5.6500    4.0740 C.3       1 LPN         0.0997
     22 C22         9.2870    5.2050    3.4030 C.3       1 LPN         0.0010
     23 C23         5.4120    5.2200    3.7880 C.2       1 LPN         0.1908
     24 C24         7.1980    5.5210    5.5650 C.3       1 LPN        -0.0118
     25 C25         9.6130    5.1650    4.9020 C.3       1 LPN        -0.0315
     26 O26         5.0270    4.1390    4.1980 O.2       1 LPN        -0.3960
     27 N27         4.5570    5.9740    3.0690 N.am      1 LPN        -0.2584
     28 N28         8.6090    5.8310    5.7490 N.4       1 LPN         0.2291
     29 C29         4.8650    7.2730    2.4280 C.3       1 LPN         0.0474
     30 C30         3.2210    5.4900    2.7210 C.3       1 LPN         0.0668
     31 C31         5.2180    8.3370    3.4610 C.3       1 LPN        -0.0274
     32 C32         3.8240    8.2940    2.8590 C.3       1 LPN        -0.0274
     33 C33         2.0530    5.7930    3.6390 C.ar      1 LPN        -0.0135
     34 C34         0.7790    5.5680    3.1300 C.ar      1 LPN         0.0357
     35 C35         2.2040    6.2880    4.9310 C.ar      1 LPN        -0.0565
     36 CL36        0.5990    4.9490    1.4690 Cl        1 LPN        -0.0834
     37 C37        -0.3620    5.8270    3.8720 C.ar      1 LPN        -0.0612
     38 C38         1.0600    6.5430    5.6820 C.ar      1 LPN        -0.0493
     39 C39        -0.2090    6.3160    5.1640 C.ar      1 LPN        -0.0666
     40 C40         1.1730    7.0940    7.0750 C.3       1 LPN        -0.0185
     41 C41         1.0700    8.6050    6.9450 C.3       1 LPN        -0.0198
     42 C42         1.9420    9.2500    8.0050 C.3       1 LPN         0.0491
     43 O43         2.1120   10.6220    7.6730 O.3       1 LPN        -0.3828
     44 C44         2.1000   11.4500    8.8330 C.3       1 LPN         0.0364
     45 H1          0.4921    8.6470   -4.9898 H         1 LPN         0.0537
     46 H2          5.8042    6.9855   -4.9202 H         1 LPN         0.0639
     47 H3          4.4184    5.8837   -4.6163 H         1 LPN         0.0639
     48 H4          0.7149    7.2823   -0.9346 H         1 LPN         0.0537
     49 H5         -1.4490    8.5279   -3.7940 H         1 LPN         0.0370
     50 H6         -1.2669    8.8889   -2.0438 H         1 LPN         0.0370
     51 H7         -1.5167    7.1961   -2.5905 H         1 LPN         0.0370
     52 H8          7.2197    5.7705   -3.5671 H         1 LPN         0.0638
     53 H9          6.0296    4.4518   -3.8342 H         1 LPN         0.0638
     54 H10         7.6057    7.0292   -0.9880 H         1 LPN         0.0525
     55 H11         5.0686    3.6089   -0.3991 H         1 LPN         0.0525
     56 H12         8.5238    6.7575    1.2951 H         1 LPN         0.0530
     57 H13         6.0117    3.3122    1.8690 H         1 LPN         0.0530
     58 H14         7.7168    3.7757    3.4075 H         1 LPN         0.0471
     59 H15         6.9366    6.7134    3.8084 H         1 LPN         0.0615
     60 H16         9.4773    6.2184    3.0199 H         1 LPN         0.0341
     61 H17         9.9311    4.4864    2.8750 H         1 LPN         0.0341
     62 H18         6.9998    4.4932    5.9030 H         1 LPN         0.0844
     63 H19         6.5872    6.2238    6.1506 H         1 LPN         0.0844
     64 H20        10.5823    5.6608    5.0590 H         1 LPN         0.0815
     65 H21         9.6849    4.1123    5.2129 H         1 LPN         0.0815
     66 H22         8.8365    5.6068    6.7050 H         1 LPN         0.2015
     67 H23         8.7131    6.8229    5.6026 H         1 LPN         0.2015
     68 H24         5.3132    7.2089    1.4255 H         1 LPN         0.0560
     69 H25         3.2886    4.3950    2.6406 H         1 LPN         0.0687
     70 H26         2.9731    5.9154    1.7373 H         1 LPN         0.0687
     71 H27         5.9064    9.1533    3.1968 H         1 LPN         0.0288
     72 H28         5.3721    8.0532    4.5125 H         1 LPN         0.0288
     73 H29         2.9688    7.9800    3.4755 H         1 LPN         0.0288
     74 H30         3.5030    9.0802    2.1598 H         1 LPN         0.0288
     75 H31         3.1899    6.4708    5.3430 H         1 LPN         0.0495
     76 H32        -1.3477    5.6529    3.4560 H         1 LPN         0.0588
     77 H33        -1.0838    6.5212    5.7703 H         1 LPN         0.0500
     78 H34         2.1404    6.8148    7.5179 H         1 LPN         0.0427
     79 H35         0.3569    6.7093    7.7043 H         1 LPN         0.0427
     80 H36         0.0248    8.9174    7.0865 H         1 LPN         0.0309
     81 H37         1.4131    8.9139    5.9466 H         1 LPN         0.0309
     82 H38         2.9218    8.7508    8.0342 H         1 LPN         0.0561
     83 H39         1.4568    9.1632    8.9884 H         1 LPN         0.0561
     84 H40         2.2338   12.5004    8.5351 H         1 LPN         0.0523
     85 H41         2.9187   11.1522    9.5046 H         1 LPN         0.0523
     86 H42         1.1382   11.3365    9.3546 H         1 LPN         0.0523
@<TRIPOS>BOND
     1    1    2 1  
     2    2    3 ar 
     3    2    4 ar 
     4    3    5 1  
     5    3    6 ar 
     6    4    7 ar 
     7    5    8 1  
     8    6    9 1  
     9    6   10 ar 
    10    7   10 ar 
    11    7   11 1  
    12    8   12 1  
    13   12   13 1  
    14   13   14 1  
    15   14   15 ar 
    16   14   16 ar 
    17   15   17 ar 
    18   16   18 ar 
    19   17   19 ar 
    20   18   19 ar 
    21   19   20 1  
    22   20   21 1  
    23   20   22 1  
    24   21   23 1  
    25   21   24 1  
    26   22   25 1  
    27   23   26 2  
    28   23   27 am 
    29   24   28 1  
    30   25   28 1  
    31   27   29 1  
    32   27   30 1  
    33   29   31 1  
    34   29   32 1  
    35   30   33 1  
    36   31   32 1  
    37   33   34 ar 
    38   33   35 ar 
    39   34   36 1  
    40   34   37 ar 
    41   35   38 ar 
    42   37   39 ar 
    43   38   39 ar 
    44   38   40 1  
    45   40   41 1  
    46   41   42 1  
    47   42   43 1  
    48   43   44 1  
    49    4   45 1  
    50    8   46 1  
    51    8   47 1  
    52   10   48 1  
    53   11   49 1  
    54   11   50 1  
    55   11   51 1  
    56   12   52 1  
    57   12   53 1  
    58   15   54 1  
    59   16   55 1  
    60   17   56 1  
    61   18   57 1  
    62   20   58 1  
    63   21   59 1  
    64   22   60 1  
    65   22   61 1  
    66   24   62 1  
    67   24   63 1  
    68   25   64 1  
    69   25   65 1  
    70   28   66 1  
    71   28   67 1  
    72   29   68 1  
    73   30   69 1  
    74   30   70 1  
    75   31   71 1  
    76   31   72 1  
    77   32   73 1  
    78   32   74 1  
    79   35   75 1  
    80   37   76 1  
    81   39   77 1  
    82   40   78 1  
    83   40   79 1  
    84   41   80 1  
    85   41   81 1  
    86   42   82 1  
    87   42   83 1  
    88   44   84 1  
    89   44   85 1  
    90   44   86 1  
@<TRIPOS>SUBSTRUCTURE
     1 LPN         1

