### 
### Created by X-TOOL on Mon Sep 10 21:13:05 2018
### 

@<TRIPOS>MOLECULE
3o9p_ligand
   52    51     1     0     0
SMALL
GAST_HUCK


@<TRIPOS>ATOM
      1 C1         13.9010   55.4970   39.6030 C.3       1 MHI        -0.0040
      2 N1         11.6660   54.7650   39.0260 N.4       1 MHI         0.2377
      3 O1         11.2740   57.3170   39.7000 O.2       1 MHI        -0.3908
      4 C2         12.4230   55.3430   40.1100 C.3       1 MHI         0.0621
      5 N2         12.0990   57.1490   41.7450 N.am      1 MHI        -0.2666
      6 O2         11.7910   57.3670   44.4160 O.co2     1 MHI        -0.5666
      7 C3         11.8690   56.6880   40.5110 C.2       1 MHI         0.2259
      8 N3         13.3980   61.9190   39.6640 N.am      1 MHI        -0.2714
      9 O3         10.7170   59.2320   44.2480 O.co2     1 MHI        -0.5666
     10 C4         11.5870   58.4290   42.2150 C.3       1 MHI         0.0965
     11 N4         15.2220   65.6490   33.6330 N.4       1 MHI         0.2327
     12 O4         15.0560   60.8900   40.7570 O.2       1 MHI        -0.3970
     13 C5         11.3130   58.3530   43.6850 C.2       1 MHI         0.0602
     14 O5         14.4940   65.3490   40.2320 O.co2     1 MHI        -0.5666
     15 C6         12.5630   59.5780   41.9900 C.3       1 MHI        -0.0010
     16 O6         12.7470   64.2830   40.8560 O.co2     1 MHI        -0.5666
     17 C7         12.9740   59.6920   40.5230 C.3       1 MHI         0.0410
     18 O7         15.3110   67.4810   36.6150 O.co2     1 MHI        -0.5643
     19 C8         13.8980   60.8910   40.3340 C.2       1 MHI         0.1778
     20 O8         14.3280   67.7710   34.6270 O.co2     1 MHI        -0.5643
     21 C9         14.1550   63.0820   39.2840 C.3       1 MHI         0.0943
     22 C10        13.7440   64.2700   40.1510 C.2       1 MHI         0.0601
     23 C11        13.8570   63.3120   37.8160 C.3       1 MHI        -0.0176
     24 C12        14.4860   64.5820   37.2600 C.3       1 MHI        -0.0427
     25 C13        14.4360   64.6570   35.7540 C.3       1 MHI         0.0026
     26 C15        14.9630   67.0550   35.4210 C.2       1 MHI         0.0844
     27 C14        15.3580   65.6810   35.0720 C.3       1 MHI         0.0283
     28 H1         14.5183   55.9362   40.4005 H         1 MHI         0.0310
     29 H2         13.9195   56.1541   38.7211 H         1 MHI         0.0310
     30 H3         14.3007   54.5086   39.3323 H         1 MHI         0.0310
     31 H4         10.7062   54.6486   39.3111 H         1 MHI         0.2015
     32 H5         12.0561   53.8674   38.7849 H         1 MHI         0.2015
     33 H6         11.7068   55.3753   38.2248 H         1 MHI         0.2015
     34 H7         12.3944   54.6706   40.9801 H         1 MHI         0.1095
     35 H8         12.6450   56.5920   42.3709 H         1 MHI         0.1877
     36 H9         12.4325   61.8843   39.4059 H         1 MHI         0.1875
     37 H10        10.6520   58.6473   41.6782 H         1 MHI         0.0727
     38 H11        15.4739   64.7345   33.2920 H         1 MHI         0.2010
     39 H12        15.8304   66.3399   33.2225 H         1 MHI         0.2010
     40 H13        14.2669   65.8502   33.3812 H         1 MHI         0.2010
     41 H14        13.4623   59.4063   42.5997 H         1 MHI         0.0330
     42 H15        12.0839   60.5184   42.2999 H         1 MHI         0.0330
     43 H16        12.0757   59.8224   39.9017 H         1 MHI         0.0504
     44 H17        13.5000   58.7749   40.2193 H         1 MHI         0.0504
     45 H18        15.2307   62.8962   39.4191 H         1 MHI         0.0726
     46 H19        12.7665   63.3791   37.6885 H         1 MHI         0.0306
     47 H20        14.2410   62.4543   37.2443 H         1 MHI         0.0306
     48 H21        15.5385   64.6194   37.5776 H         1 MHI         0.0270
     49 H22        13.9477   65.4485   37.6717 H         1 MHI         0.0270
     50 H23        13.4020   64.9007   35.4686 H         1 MHI         0.0339
     51 H24        14.6994   63.6628   35.3639 H         1 MHI         0.0339
     52 H25        16.3990   65.4851   35.3685 H         1 MHI         0.1024
@<TRIPOS>BOND
     1    4    1 1  
     2    4    2 1  
     3    7    3 2  
     4    7    4 1  
     5    5    7 am 
     6   10    5 1  
     7   13    6 ar 
     8    8   19 am 
     9   21    8 1  
    10   13    9 ar 
    11   10   13 1  
    12   15   10 1  
    13   27   11 1  
    14   19   12 2  
    15   22   14 ar 
    16   17   15 1  
    17   22   16 ar 
    18   19   17 1  
    19   26   18 ar 
    20   26   20 ar 
    21   21   22 1  
    22   23   21 1  
    23   24   23 1  
    24   25   24 1  
    25   27   25 1  
    26   26   27 1  
    27    1   28 1  
    28    1   29 1  
    29    1   30 1  
    30    2   31 1  
    31    2   32 1  
    32    2   33 1  
    33    4   34 1  
    34    5   35 1  
    35    8   36 1  
    36   10   37 1  
    37   11   38 1  
    38   11   39 1  
    39   11   40 1  
    40   15   41 1  
    41   15   42 1  
    42   17   43 1  
    43   17   44 1  
    44   21   45 1  
    45   23   46 1  
    46   23   47 1  
    47   24   48 1  
    48   24   49 1  
    49   25   50 1  
    50   25   51 1  
    51   27   52 1  
@<TRIPOS>SUBSTRUCTURE
     1 MHI         1

