### 
### Created by X-TOOL on Mon Sep 10 21:13:07 2018
### 

@<TRIPOS>MOLECULE
3o9v_ligand
   47    48     1     0     0
SMALL
GAST_HUCK


@<TRIPOS>ATOM
      1 C4         45.6130   35.5110   18.2080 C.3       1 10T        -0.0048
      2 C5         44.6560   34.7670   17.3000 C.ar      1 10T         0.0281
      3 C7         44.2270   32.7070   16.2450 C.ar      1 10T         0.0222
      4 C8         44.6810   31.2860   15.9800 C.3       1 10T        -0.0187
      5 C13        42.1450   32.3820   14.8420 C.2       1 10T         0.0587
      6 C17        43.4810   35.3130   16.7910 C.ar      1 10T         0.0327
      7 C20        41.3900   35.0200   15.3790 C.ar      1 10T        -0.0200
      8 C21        41.3840   35.9930   14.3740 C.ar      1 10T        -0.0586
      9 C22        40.1800   36.4640   13.8450 C.ar      1 10T        -0.0582
     10 C24        37.6680   36.4380   13.7460 C.3       1 10T        -0.0302
     11 C26        40.1750   34.5150   15.8370 C.ar      1 10T        -0.0586
     12 O14        41.5670   31.3640   15.3460 O.co2     1 10T        -0.5636
     13 O15        42.0100   32.7630   13.6480 O.co2     1 10T        -0.5636
     14 C12        43.0440   33.2140   15.7110 C.ar      1 10T         0.0295
     15 C16        42.6740   34.5150   15.9710 C.ar      1 10T         0.0041
     16 C23        38.9700   35.9550   14.3090 C.ar      1 10T        -0.0442
     17 C25        38.9730   34.9880   15.3030 C.ar      1 10T        -0.0582
     18 C18        43.0600   36.7500   17.0950 C.3       1 10T         0.0000
     19 N19        41.7730   36.7760   17.7730 N.4       1 10T         0.2302
     20 C2         46.5620   36.4680   17.4990 C.3       1 10T        -0.0358
     21 C1         47.4950   37.0540   18.5510 C.3       1 10T        -0.0607
     22 C3         47.3110   35.7840   16.3640 C.3       1 10T        -0.0607
     23 N6         44.9880   33.4940   17.0230 N.ar      1 10T        -0.3053
     24 H          46.2323   34.7585   18.6962 H         1 10T         0.0445
     25 H          45.0032   36.1140   18.8808 H         1 10T         0.0445
     26 H          45.6540   31.3024   15.4889 H         1 10T         0.0413
     27 H          44.7586   30.7485   16.9251 H         1 10T         0.0413
     28 H          43.9559   30.7884   15.3360 H         1 10T         0.0413
     29 H          42.3286   36.3877   13.9998 H         1 10T         0.0617
     30 H          40.1878   37.2297   13.0693 H         1 10T         0.0563
     31 H          37.5762   37.5109   13.9150 H         1 10T         0.0396
     32 H          37.6383   36.2336   12.6757 H         1 10T         0.0396
     33 H          36.8457   35.9196   14.2392 H         1 10T         0.0396
     34 H          40.1618   33.7497   16.6131 H         1 10T         0.0617
     35 H          38.0269   34.5922   15.6722 H         1 10T         0.0563
     36 H          42.9753   37.2984   16.1568 H         1 10T         0.0968
     37 H          43.8086   37.2072   17.7421 H         1 10T         0.0968
     38 H          41.5113   37.7427   17.9662 H         1 10T         0.2007
     39 H          41.0671   36.3441   17.1767 H         1 10T         0.2007
     40 H          41.8415   36.2593   18.6498 H         1 10T         0.2007
     41 H          46.0029   37.2731   17.0222 H         1 10T         0.0319
     42 H          48.1002   36.2568   18.9826 H         1 10T         0.0234
     43 H          48.1456   37.7946   18.0858 H         1 10T         0.0234
     44 H          46.9044   37.5285   19.3347 H         1 10T         0.0234
     45 H          47.9592   36.5078   15.8699 H         1 10T         0.0234
     46 H          47.9138   34.9701   16.7668 H         1 10T         0.0234
     47 H          46.5945   35.3861   15.6454 H         1 10T         0.0234
@<TRIPOS>BOND
     1    2    1 1  
     2    1   20 1  
     3    6    2 ar 
     4    2   23 ar 
     5    3    4 1  
     6    3   14 ar 
     7   23    3 ar 
     8    5   12 ar 
     9    5   13 ar 
    10   14    5 1  
    11   15    6 ar 
    12    6   18 1  
    13    7    8 ar 
    14    7   11 ar 
    15    7   15 1  
    16    8    9 ar 
    17    9   16 ar 
    18   16   10 1  
    19   11   17 ar 
    20   14   15 ar 
    21   16   17 ar 
    22   18   19 1  
    23   20   21 1  
    24   20   22 1  
    25    1   24 1  
    26    1   25 1  
    27    4   26 1  
    28    4   27 1  
    29    4   28 1  
    30    8   29 1  
    31    9   30 1  
    32   10   31 1  
    33   10   32 1  
    34   10   33 1  
    35   11   34 1  
    36   17   35 1  
    37   18   36 1  
    38   18   37 1  
    39   19   38 1  
    40   19   39 1  
    41   19   40 1  
    42   20   41 1  
    43   21   42 1  
    44   21   43 1  
    45   21   44 1  
    46   22   45 1  
    47   22   46 1  
    48   22   47 1  
@<TRIPOS>SUBSTRUCTURE
     1 10T         1

