### 
### Created by X-TOOL on Mon Sep 10 21:13:04 2018
### 

@<TRIPOS>MOLECULE
3oad_ligand
   83    87     1     0     0
SMALL
GAST_HUCK


@<TRIPOS>ATOM
      1 C1         24.4060   -6.2150    2.7660 C.3       1 LPO        -0.0079
      2 C2         23.9170   -6.2260    4.2060 C.3       1 LPO        -0.0392
      3 N3         24.8310   -6.8160    5.1760 N.4       1 LPO         0.2277
      4 C4         26.2760   -6.7320    5.0900 C.3       1 LPO        -0.0197
      5 C5         26.7450   -6.8380    3.6500 C.3       1 LPO         0.0915
      6 C6         25.9030   -5.9530    2.7080 C.3       1 LPO         0.0822
      7 C7         28.1890   -6.3940    3.5140 C.2       1 LPO         0.1823
      8 N8         29.0470   -7.1060    2.7560 N.am      1 LPO        -0.2591
      9 O9         26.1930   -4.5960    3.0710 O.3       1 LPO        -0.4251
     10 C10        26.3730   -6.1550    1.2990 C.ar      1 LPO        -0.0052
     11 C11        25.8530   -7.1480    0.4570 C.ar      1 LPO         0.0294
     12 N12        26.3100   -7.2910   -0.7920 N.ar      1 LPO        -0.2333
     13 C13        27.3180   -6.4800   -1.2490 C.ar      1 LPO         0.1995
     14 C14        27.8600   -5.4930   -0.4440 C.ar      1 LPO         0.0249
     15 C15        27.3750   -5.3090    0.8480 C.ar      1 LPO        -0.0282
     16 O16        27.8430   -6.5630   -2.5090 O.3       1 LPO        -0.2742
     17 C17        27.6400   -7.6570   -3.3780 C.3       1 LPO         0.1097
     18 C18        28.9700   -7.8730   -4.0700 C.3       1 LPO         0.0990
     19 O19        29.5750   -8.9870   -3.4260 O.3       1 LPO        -0.3178
     20 C20        30.9290   -9.1390   -3.4290 C.ar      1 LPO         0.1129
     21 C21        31.6230   -9.5180   -4.5600 C.ar      1 LPO         0.0623
     22 C22        33.0050   -9.6510   -4.5030 C.ar      1 LPO        -0.0548
     23 C23        33.6720   -9.4260   -3.3040 C.ar      1 LPO        -0.0557
     24 C24        32.9650   -9.0500   -2.1610 C.ar      1 LPO        -0.0548
     25 C25        31.5850   -8.9240   -2.2440 C.ar      1 LPO         0.0623
     26 CL26       30.5730   -8.4710   -0.8530 Cl        1 LPO        -0.0805
     27 CL27       30.7270   -9.8440   -6.0710 Cl        1 LPO        -0.0805
     28 C28        35.1650   -9.5700   -3.2350 C.3       1 LPO        -0.0362
     29 O29        28.5570   -5.3580    4.0840 O.2       1 LPO        -0.3971
     30 C30        30.4260   -6.6640    2.5470 C.3       1 LPO         0.0668
     31 C31        28.6700   -8.3370    1.9920 C.3       1 LPO         0.0473
     32 C32        31.4730   -7.0620    3.5680 C.ar      1 LPO        -0.0135
     33 C33        31.2040   -7.7810    4.7290 C.ar      1 LPO        -0.0565
     34 C34        32.2240   -8.1330    5.6190 C.ar      1 LPO        -0.0472
     35 C35        33.5330   -7.7770    5.3600 C.ar      1 LPO        -0.0665
     36 C36        33.8070   -7.0770    4.1990 C.ar      1 LPO        -0.0612
     37 C37        32.7780   -6.7120    3.3220 C.ar      1 LPO         0.0357
     38 C38        28.2440   -9.4630    2.9250 C.3       1 LPO        -0.0274
     39 C39        29.6110   -9.5210    2.2630 C.3       1 LPO        -0.0274
     40 CL40       33.1740   -5.8050    1.8230 Cl        1 LPO        -0.0834
     41 C41        31.9200   -8.9350    6.8700 C.3       1 LPO         0.0030
     42 C42        32.1490  -10.4020    6.4850 C.3       1 LPO         0.0568
     43 O43        31.7530  -11.3980    7.4380 O.3       1 LPO        -0.3809
     44 C44        30.7070  -11.0300    8.3500 C.3       1 LPO         0.0367
     45 H1         23.8794   -5.4240    2.2120 H         1 LPO         0.0239
     46 H2         24.1922   -7.1904    2.3047 H         1 LPO         0.0239
     47 H3         22.9753   -6.7934    4.2395 H         1 LPO         0.0806
     48 H4         23.7289   -5.1851    4.5077 H         1 LPO         0.0806
     49 H5         24.6158   -7.8007    5.1891 H         1 LPO         0.2014
     50 H6         24.5868   -6.4068    6.0642 H         1 LPO         0.2014
     51 H7         26.7189   -7.5527    5.6733 H         1 LPO         0.0834
     52 H8         26.6052   -5.7679    5.5049 H         1 LPO         0.0834
     53 H9         26.6567   -7.8876    3.3328 H         1 LPO         0.0512
     54 H10        27.1216   -4.4306    2.9576 H         1 LPO         0.1947
     55 H11        25.0729   -7.8064    0.8217 H         1 LPO         0.1054
     56 H12        28.6601   -4.8649   -0.8186 H         1 LPO         0.0721
     57 H13        27.7700   -4.5254    1.4844 H         1 LPO         0.0914
     58 H14        26.8566   -7.4237   -4.1141 H         1 LPO         0.0664
     59 H15        27.3527   -8.5530   -2.8082 H         1 LPO         0.0664
     60 H16        29.6044   -6.9806   -3.9644 H         1 LPO         0.0641
     61 H17        28.8142   -8.0879   -5.1375 H         1 LPO         0.0641
     62 H18        33.5614   -9.9293   -5.3907 H         1 LPO         0.0537
     63 H19        33.4827   -8.8603   -1.2277 H         1 LPO         0.0537
     64 H20        35.5504   -9.8699   -4.2207 H         1 LPO         0.0370
     65 H21        35.4254  -10.3369   -2.4907 H         1 LPO         0.0370
     66 H22        35.6130   -8.6087   -2.9432 H         1 LPO         0.0370
     67 H23        30.4126   -5.5648    2.5065 H         1 LPO         0.0687
     68 H24        30.7516   -7.0628    1.5750 H         1 LPO         0.0687
     69 H25        28.2077   -8.1371    1.0141 H         1 LPO         0.0560
     70 H26        30.1836   -8.0740    4.9478 H         1 LPO         0.0495
     71 H27        34.3266   -8.0399    6.0500 H         1 LPO         0.0500
     72 H28        34.8306   -6.8077    3.9651 H         1 LPO         0.0588
     73 H29        27.4544  -10.1631    2.6145 H         1 LPO         0.0288
     74 H30        28.1662   -9.2788    4.0067 H         1 LPO         0.0288
     75 H31        30.5205   -9.3751    2.8642 H         1 LPO         0.0288
     76 H32        29.8088  -10.2594    1.4720 H         1 LPO         0.0288
     77 H33        30.8771   -8.7784    7.1826 H         1 LPO         0.0448
     78 H34        32.5956   -8.6426    7.6873 H         1 LPO         0.0448
     79 H35        33.2254  -10.5314    6.2987 H         1 LPO         0.0582
     80 H36        31.5907  -10.5917    5.5564 H         1 LPO         0.0582
     81 H37        30.4958  -11.8725    9.0249 H         1 LPO         0.0524
     82 H38        29.7986  -10.7775    7.7835 H         1 LPO         0.0524
     83 H39        31.0252  -10.1581    8.9404 H         1 LPO         0.0524
@<TRIPOS>BOND
     1    1    2 1  
     2    1    6 1  
     3    2    3 1  
     4    3    4 1  
     5    4    5 1  
     6    5    6 1  
     7    5    7 1  
     8    6    9 1  
     9    6   10 1  
    10    7    8 am 
    11    7   29 2  
    12    8   30 1  
    13    8   31 1  
    14   10   11 ar 
    15   10   15 ar 
    16   11   12 ar 
    17   12   13 ar 
    18   13   14 ar 
    19   13   16 1  
    20   14   15 ar 
    21   16   17 1  
    22   17   18 1  
    23   18   19 1  
    24   19   20 1  
    25   20   21 ar 
    26   20   25 ar 
    27   21   22 ar 
    28   21   27 1  
    29   22   23 ar 
    30   23   24 ar 
    31   23   28 1  
    32   24   25 ar 
    33   25   26 1  
    34   30   32 1  
    35   31   38 1  
    36   31   39 1  
    37   32   33 ar 
    38   32   37 ar 
    39   33   34 ar 
    40   34   35 ar 
    41   34   41 1  
    42   35   36 ar 
    43   36   37 ar 
    44   37   40 1  
    45   38   39 1  
    46   41   42 1  
    47   42   43 1  
    48   43   44 1  
    49    1   45 1  
    50    1   46 1  
    51    2   47 1  
    52    2   48 1  
    53    3   49 1  
    54    3   50 1  
    55    4   51 1  
    56    4   52 1  
    57    5   53 1  
    58    9   54 1  
    59   11   55 1  
    60   14   56 1  
    61   15   57 1  
    62   17   58 1  
    63   17   59 1  
    64   18   60 1  
    65   18   61 1  
    66   22   62 1  
    67   24   63 1  
    68   28   64 1  
    69   28   65 1  
    70   28   66 1  
    71   30   67 1  
    72   30   68 1  
    73   31   69 1  
    74   33   70 1  
    75   35   71 1  
    76   36   72 1  
    77   38   73 1  
    78   38   74 1  
    79   39   75 1  
    80   39   76 1  
    81   41   77 1  
    82   41   78 1  
    83   42   79 1  
    84   42   80 1  
    85   44   81 1  
    86   44   82 1  
    87   44   83 1  
@<TRIPOS>SUBSTRUCTURE
     1 LPO         1

