### 
### Created by X-TOOL on Mon Sep 10 21:13:03 2018
### 

@<TRIPOS>MOLECULE
3oag_ligand
   85    90     1     0     0
SMALL
GAST_HUCK


@<TRIPOS>ATOM
      1 C1         24.5230   -6.0440    2.9490 C.3       1 LPQ         0.0021
      2 C2         24.1430   -6.3550    4.4020 C.3       1 LPQ        -0.0314
      3 N3         25.1640   -7.0420    5.1710 N.4       1 LPQ         0.2291
      4 C4         26.5340   -6.5420    5.0810 C.3       1 LPQ        -0.0117
      5 C5         26.9580   -6.5630    3.6080 C.3       1 LPQ         0.1007
      6 C6         26.0030   -5.7140    2.7330 C.3       1 LPQ         0.0230
      7 C7         26.4060   -5.9330    1.3080 C.ar      1 LPQ        -0.0208
      8 C8         25.8840   -6.9640    0.5150 C.ar      1 LPQ         0.0011
      9 N9         26.2980   -7.1330   -0.7570 N.ar      1 LPQ        -0.2819
     10 C10        27.2550   -6.3340   -1.3050 C.ar      1 LPQ         0.1577
     11 C11        27.8080   -5.3070   -0.5490 C.ar      1 LPQ        -0.0106
     12 C12        27.3860   -5.1070    0.7580 C.ar      1 LPQ        -0.0484
     13 O13        27.7150   -6.4780   -2.5960 O.3       1 LPQ        -0.3007
     14 C14        27.5980   -7.6750   -3.3600 C.3       1 LPQ         0.1000
     15 C15        28.3770   -6.1370    3.2840 C.2       1 LPQ         0.1910
     16 O16        28.7510   -5.0350    3.6700 O.2       1 LPQ        -0.3960
     17 N17        29.1760   -6.9380    2.5360 N.am      1 LPQ        -0.2584
     18 C18        28.8810   -7.9000   -4.1510 C.3       1 LPQ         0.0973
     19 O19        29.4640   -9.1500   -3.7520 O.3       1 LPQ        -0.3179
     20 C20        30.8190   -9.2030   -3.5710 C.ar      1 LPQ         0.1129
     21 C21        31.6330   -9.4900   -4.6450 C.ar      1 LPQ         0.0623
     22 C22        33.0180   -9.5310   -4.5060 C.ar      1 LPQ        -0.0548
     23 C23        33.5790   -9.2960   -3.2560 C.ar      1 LPQ        -0.0557
     24 C24        32.7690   -9.0080   -2.1660 C.ar      1 LPQ        -0.0548
     25 C25        31.3900   -8.9610   -2.3340 C.ar      1 LPQ         0.0623
     26 CL26       30.8500   -9.8110   -6.2030 Cl        1 LPQ        -0.0805
     27 CL27       30.3270   -8.5940   -0.9540 Cl        1 LPQ        -0.0805
     28 C28        35.0700   -9.3470   -3.0830 C.3       1 LPQ        -0.0362
     29 C29        30.5130   -6.5740    2.0410 C.3       1 LPQ         0.0669
     30 C30        28.7560   -8.2480    1.9840 C.3       1 LPQ         0.0474
     31 C31        31.7500   -6.6210    2.9030 C.ar      1 LPQ        -0.0133
     32 C32        31.6620   -6.8330    4.2670 C.ar      1 LPQ        -0.0515
     33 C33        32.8200   -6.8680    5.0310 C.ar      1 LPQ        -0.0051
     34 C34        34.0690   -6.6940    4.4470 C.ar      1 LPQ        -0.0615
     35 C35        34.1610   -6.4870    3.0730 C.ar      1 LPQ        -0.0610
     36 C36        33.0000   -6.4520    2.3090 C.ar      1 LPQ         0.0357
     37 CL37       33.1700   -6.1840    0.5440 Cl        1 LPQ        -0.0834
     38 C38        32.7090   -7.0760    6.5160 C.3       1 LPQ        -0.0010
     39 N39        32.6750   -5.7730    7.1880 N.4       1 LPQ         0.2412
     40 C40        28.5070   -9.2610    3.0980 C.3       1 LPQ        -0.0274
     41 C41        29.8030   -9.3240    2.3130 C.3       1 LPQ        -0.0274
     42 C42        31.6180   -4.7750    6.9790 C.3       1 LPQ        -0.0209
     43 C43        30.9260   -4.4060    8.2910 C.3       1 LPQ        -0.0046
     44 C44        30.2260   -5.3180    7.2850 C.3       1 LPQ        -0.0046
     45 H1         23.9272   -5.1815    2.6157 H         1 LPQ         0.0342
     46 H2         24.2740   -6.9214    2.3340 H         1 LPQ         0.0342
     47 H3         23.2421   -6.9860    4.3912 H         1 LPQ         0.0815
     48 H4         23.9184   -5.4038    4.9067 H         1 LPQ         0.0815
     49 H5         25.1739   -8.0031    4.8673 H         1 LPQ         0.2015
     50 H6         24.8909   -6.9987    6.1403 H         1 LPQ         0.2015
     51 H7         27.2042   -7.1852    5.6702 H         1 LPQ         0.0844
     52 H8         26.5805   -5.5129    5.4668 H         1 LPQ         0.0844
     53 H9         26.8651   -7.6104    3.2851 H         1 LPQ         0.0616
     54 H10        26.1485   -4.6534    2.9860 H         1 LPQ         0.0486
     55 H11        25.1387   -7.6334    0.9292 H         1 LPQ         0.0725
     56 H12        28.5671   -4.6638   -0.9792 H         1 LPQ         0.0622
     57 H13        27.8179   -4.3091    1.3511 H         1 LPQ         0.0650
     58 H14        26.7499   -7.5852   -4.0547 H         1 LPQ         0.0644
     59 H15        27.4298   -8.5264   -2.6842 H         1 LPQ         0.0644
     60 H16        29.5878   -7.0820   -3.9476 H         1 LPQ         0.0639
     61 H17        28.6512   -7.9271   -5.2264 H         1 LPQ         0.0639
     62 H18        33.6500   -9.7432   -5.3608 H         1 LPQ         0.0537
     63 H19        33.2080   -8.8214   -1.1926 H         1 LPQ         0.0537
     64 H20        35.5429   -9.5871   -4.0467 H         1 LPQ         0.0370
     65 H21        35.3273  -10.1214   -2.3453 H         1 LPQ         0.0370
     66 H22        35.4319   -8.3699   -2.7304 H         1 LPQ         0.0370
     67 H23        30.4318   -5.5367    1.6842 H         1 LPQ         0.0687
     68 H24        30.7123   -7.2404    1.1888 H         1 LPQ         0.0687
     69 H25        28.1806   -8.1972    1.0479 H         1 LPQ         0.0560
     70 H26        30.6946   -6.9709    4.7362 H         1 LPQ         0.0497
     71 H27        34.9650   -6.7192    5.0566 H         1 LPQ         0.0502
     72 H28        35.1290   -6.3544    2.6034 H         1 LPQ         0.0588
     73 H29        33.5769   -7.6503    6.8723 H         1 LPQ         0.0980
     74 H30        31.7855   -7.6295    6.7413 H         1 LPQ         0.0980
     75 H31        33.5381   -5.3144    6.9413 H         1 LPQ         0.2031
     76 H32        32.6715   -5.9736    8.1758 H         1 LPQ         0.2031
     77 H33        27.7474  -10.0455    2.9657 H         1 LPQ         0.0288
     78 H34        28.5178   -8.9344    4.1483 H         1 LPQ         0.0288
     79 H35        30.7512   -9.0403    2.7930 H         1 LPQ         0.0288
     80 H36        29.9808  -10.1515    1.6104 H         1 LPQ         0.0288
     81 H37        31.8281   -4.0581    6.1716 H         1 LPQ         0.0851
     82 H38        30.5609   -3.3808    8.4513 H         1 LPQ         0.0322
     83 H39        31.2950   -4.8168    9.2423 H         1 LPQ         0.0322
     84 H40        30.0901   -6.3856    7.5126 H         1 LPQ         0.0322
     85 H41        29.3561   -4.9496    6.7216 H         1 LPQ         0.0322
@<TRIPOS>BOND
     1    1    2 1  
     2    1    6 1  
     3    2    3 1  
     4    3    4 1  
     5    4    5 1  
     6    5    6 1  
     7    5   15 1  
     8    6    7 1  
     9    7    8 ar 
    10    7   12 ar 
    11    8    9 ar 
    12    9   10 ar 
    13   10   11 ar 
    14   10   13 1  
    15   11   12 ar 
    16   13   14 1  
    17   14   18 1  
    18   15   16 2  
    19   15   17 am 
    20   17   29 1  
    21   17   30 1  
    22   18   19 1  
    23   19   20 1  
    24   20   21 ar 
    25   20   25 ar 
    26   21   22 ar 
    27   21   26 1  
    28   22   23 ar 
    29   23   24 ar 
    30   23   28 1  
    31   24   25 ar 
    32   25   27 1  
    33   29   31 1  
    34   30   40 1  
    35   30   41 1  
    36   31   32 ar 
    37   31   36 ar 
    38   32   33 ar 
    39   33   34 ar 
    40   33   38 1  
    41   34   35 ar 
    42   35   36 ar 
    43   36   37 1  
    44   38   39 1  
    45   39   42 1  
    46   40   41 1  
    47   42   43 1  
    48   42   44 1  
    49   43   44 1  
    50    1   45 1  
    51    1   46 1  
    52    2   47 1  
    53    2   48 1  
    54    3   49 1  
    55    3   50 1  
    56    4   51 1  
    57    4   52 1  
    58    5   53 1  
    59    6   54 1  
    60    8   55 1  
    61   11   56 1  
    62   12   57 1  
    63   14   58 1  
    64   14   59 1  
    65   18   60 1  
    66   18   61 1  
    67   22   62 1  
    68   24   63 1  
    69   28   64 1  
    70   28   65 1  
    71   28   66 1  
    72   29   67 1  
    73   29   68 1  
    74   30   69 1  
    75   32   70 1  
    76   34   71 1  
    77   35   72 1  
    78   38   73 1  
    79   38   74 1  
    80   39   75 1  
    81   39   76 1  
    82   40   77 1  
    83   40   78 1  
    84   41   79 1  
    85   41   80 1  
    86   42   81 1  
    87   43   82 1  
    88   43   83 1  
    89   44   84 1  
    90   44   85 1  
@<TRIPOS>SUBSTRUCTURE
     1 LPQ         1

