### 
### Created by X-TOOL on Mon Sep 10 21:13:04 2018
### 

@<TRIPOS>MOLECULE
3oaw_ligand
   36    38     1     0     0
SMALL
GAST_HUCK


@<TRIPOS>ATOM
      1 N1         47.3440   13.0850   28.4050 N.ar      1 OAW        -0.2727
      2 C2         47.9520   14.1050   29.0090 C.ar      1 OAW         0.1602
      3 N3         47.3110   14.8650   29.8820 N.ar      1 OAW        -0.2487
      4 C4         46.0130   14.6980   30.1420 C.ar      1 OAW         0.1629
      5 C5         45.3330   13.6210   29.5180 C.ar      1 OAW         0.0960
      6 C6         46.0590   12.8240   28.6110 C.ar      1 OAW         0.0353
      7 N7         49.2790   14.3730   28.7290 N.pl3     1 OAW        -0.3081
      8 C8         46.0940   16.6900   31.5790 C.3       1 OAW         0.0699
      9 C9         45.4010   11.6850   27.8850 C.3       1 OAW        -0.0140
     10 N10        45.3410   15.5350   31.0230 N.am      1 OAW        -0.1898
     11 C11        44.0210   15.2550   31.3170 C.2       1 OAW         0.2594
     12 C12        43.3630   14.0800   30.6660 C.2       1 OAW         0.1176
     13 N13        44.0410   13.3580   29.8000 N.2       1 OAW        -0.2886
     14 O14        43.3780   15.9550   32.0900 O.2       1 OAW        -0.3748
     15 C15        41.9450   13.6940   30.9330 C.2       1 OAW         0.0390
     16 C16        45.4680   18.0580   31.2970 C.3       1 OAW        -0.0346
     17 C17        46.5030   16.5210   33.0440 C.3       1 OAW        -0.0346
     18 C18        41.2280   12.7680   30.2100 C.2       1 OAW         0.0138
     19 N19        40.0030   12.7080   30.7540 N.2       1 OAW        -0.2114
     20 N20        39.9320   13.6000   31.8370 N.pl3     1 OAW        -0.2107
     21 C21        41.0860   14.1770   31.9590 C.2       1 OAW         0.0726
     22 H          49.7873   13.7911   28.0631 H         1 OAW         0.1828
     23 H          49.7498   15.1526   29.1883 H         1 OAW         0.1828
     24 H          47.0222   16.6808   31.0076 H         1 OAW         0.0646
     25 H          45.0215   10.9647   28.6097 H         1 OAW         0.0443
     26 H          44.5757   12.0671   27.2842 H         1 OAW         0.0443
     27 H          46.1302   11.1997   27.2362 H         1 OAW         0.0443
     28 H          45.4044   18.2119   30.2198 H         1 OAW         0.0259
     29 H          44.4685   18.0950   31.7302 H         1 OAW         0.0259
     30 H          46.0869   18.8378   31.7409 H         1 OAW         0.0259
     31 H          45.6105   16.3936   33.6567 H         1 OAW         0.0259
     32 H          47.1414   15.6430   33.1427 H         1 OAW         0.0259
     33 H          47.0474   17.4064   33.3724 H         1 OAW         0.0259
     34 H          41.5873   12.1924   29.3570 H         1 OAW         0.0695
     35 H          39.1148   13.7648   32.4247 H         1 OAW         0.2626
     36 H          41.3536   14.9097   32.7203 H         1 OAW         0.1109
@<TRIPOS>BOND
     1    1    2 ar 
     2    1    6 ar 
     3    2    3 ar 
     4    2    7 1  
     5    3    4 ar 
     6    4    5 ar 
     7    4   10 1  
     8    5    6 ar 
     9    5   13 1  
    10    6    9 1  
    11   10    8 1  
    12    8   16 1  
    13    8   17 1  
    14   10   11 am 
    15   11   12 1  
    16   11   14 2  
    17   12   13 2  
    18   12   15 1  
    19   15   18 1  
    20   15   21 2  
    21   18   19 2  
    22   19   20 1  
    23   20   21 1  
    24    7   22 1  
    25    7   23 1  
    26    8   24 1  
    27    9   25 1  
    28    9   26 1  
    29    9   27 1  
    30   16   28 1  
    31   16   29 1  
    32   16   30 1  
    33   17   31 1  
    34   17   32 1  
    35   17   33 1  
    36   18   34 1  
    37   20   35 1  
    38   21   36 1  
@<TRIPOS>SUBSTRUCTURE
     1 OAW         1

