### 
### Created by X-TOOL on Mon Sep 10 21:13:06 2018
### 

@<TRIPOS>MOLECULE
3oay_ligand
   24    24     1     0     0
SMALL
GAST_HUCK


@<TRIPOS>ATOM
      1 C1         50.9540  -16.5470  -29.4010 C.3       1 BDF         0.1006
      2 C2         50.2900  -17.7480  -30.0670 C.3       1 BDF         0.2201
      3 C3         49.3290  -17.3950  -31.2670 C.3       1 BDF         0.1392
      4 C4         48.6260  -18.6480  -31.7460 C.3       1 BDF         0.1141
      5 C5         47.8710  -19.2830  -30.5870 C.3       1 BDF         0.1070
      6 C6         48.8160  -19.5520  -29.4130 C.3       1 BDF         0.0795
      7 O1         49.8960  -15.7050  -28.8690 O.3       1 BDF        -0.3896
      8 O2         51.3470  -18.5870  -30.5510 O.3       1 BDF        -0.3609
      9 O3         50.0120  -16.8770  -32.4360 O.3       1 BDF        -0.3837
     10 O4         47.6730  -18.3020  -32.7600 O.3       1 BDF        -0.3864
     11 O5         46.8480  -18.3660  -30.1930 O.3       1 BDF        -0.3869
     12 O6         49.5430  -18.4080  -29.0360 O.3       1 BDF        -0.3421
     13 H1         51.5449  -15.9862  -30.1402 H         1 BDF         0.0612
     14 H2         51.6112  -16.8847  -28.5862 H         1 BDF         0.0612
     15 H3         48.5930  -16.6560  -30.9175 H         1 BDF         0.0675
     16 H4         49.3640  -19.3574  -32.1485 H         1 BDF         0.0648
     17 H5         47.4183  -20.2312  -30.9124 H         1 BDF         0.0643
     18 H6         49.5251  -20.3410  -29.7040 H         1 BDF         0.0587
     19 H7         48.2218  -19.8923  -28.5521 H         1 BDF         0.0587
     20 H8         49.3883  -16.1986  -28.2357 H         1 BDF         0.2096
     21 H9         51.9348  -18.7985  -29.8353 H         1 BDF         0.2129
     22 H10        50.6289  -17.5256  -32.7543 H         1 BDF         0.2101
     23 H11        48.1245  -17.9031  -33.4944 H         1 BDF         0.2100
     24 H12        46.2676  -18.2060  -30.9278 H         1 BDF         0.2100
@<TRIPOS>BOND
     1    1    2 1  
     2    1    7 1  
     3    2    3 1  
     4    2    8 1  
     5    2   12 1  
     6    3    4 1  
     7    3    9 1  
     8    4    5 1  
     9    4   10 1  
    10    5    6 1  
    11    5   11 1  
    12    6   12 1  
    13    1   13 1  
    14    1   14 1  
    15    3   15 1  
    16    4   16 1  
    17    5   17 1  
    18    6   18 1  
    19    6   19 1  
    20    7   20 1  
    21    8   21 1  
    22    9   22 1  
    23   10   23 1  
    24   11   24 1  
@<TRIPOS>SUBSTRUCTURE
     1 BDF         1

