### 
### Created by X-TOOL on Mon Sep 10 21:13:08 2018
### 

@<TRIPOS>MOLECULE
3ob0_ligand
   90    93     1     0     0
SMALL
GAST_HUCK


@<TRIPOS>ATOM
      1 C1         20.2910  -33.4920  -37.7380 C.3       1 2M6         0.1886
      2 O1         20.7980  -34.5160  -38.6710 O.3       1 2M6        -0.3378
      3 C2         21.2380  -33.3320  -36.5710 C.3       1 2M6         0.1341
      4 O2         20.8390  -32.1570  -35.8570 O.3       1 2M6        -0.3841
      5 C3         21.1630  -34.5760  -35.6940 C.3       1 2M6         0.1141
      6 O3         22.2210  -34.5740  -34.7990 O.3       1 2M6        -0.3864
      7 C4         19.8570  -34.5740  -34.9340 C.3       1 2M6         0.1122
      8 O4         19.7520  -35.7020  -34.0720 O.3       1 2M6        -0.3865
      9 C5         18.7700  -34.6370  -36.0010 C.3       1 2M6         0.1155
     10 O5         18.9150  -33.6710  -37.1160 O.3       1 2M6        -0.3402
     11 C6         17.3480  -34.8180  -35.4470 C.3       1 2M6         0.0811
     12 O6         16.6200  -33.6140  -35.4160 O.3       1 2M6        -0.3894
     13 CAL        14.1230  -40.0710  -42.2850 C.3       1 2M6         0.1123
     14 CAM        15.3120  -39.7260  -41.3360 C.3       1 2M6         0.1206
     15 CAN        16.3480  -40.8690  -41.1320 C.3       1 2M6         0.1343
     16 CAO        15.8930  -42.3010  -41.5390 C.3       1 2M6         0.1854
     17 OAP        15.3340  -42.3030  -42.8780 O.3       1 2M6        -0.3407
     18 CAQ        14.2860  -41.3390  -43.2030 C.3       1 2M6         0.1130
     19 CAR        14.4340  -40.9050  -44.6660 C.3       1 2M6         0.0730
     20 OAS        15.8010  -38.5870  -42.0570 O.3       1 2M6        -0.3400
     21 OAT        17.6200  -40.6030  -41.7420 O.3       1 2M6        -0.3841
     22 CAU        15.1620  -35.2000  -42.0780 C.3       1 2M6         0.1119
     23 CAV        15.4410  -35.6470  -40.6260 C.3       1 2M6         0.1144
     24 CAW        16.6810  -36.5840  -40.4420 C.3       1 2M6         0.1406
     25 CAX        16.8190  -37.6370  -41.5930 C.3       1 2M6         0.1888
     26 OAY        16.9580  -36.8500  -42.7960 O.3       1 2M6        -0.3405
     27 CAZ        15.7240  -36.1510  -43.1420 C.3       1 2M6         0.1130
     28 CBA        15.8710  -35.4600  -44.4820 C.3       1 2M6         0.0730
     29 OBB        13.7530  -35.2820  -42.2460 O.3       1 2M6        -0.3865
     30 OBC        15.6210  -34.4170  -39.9290 O.3       1 2M6        -0.3864
     31 OBD        17.2640  -35.4170  -44.8230 O.3       1 2M6        -0.3924
     32 OBE        17.8570  -35.7070  -40.5760 O.3       1 2M6        -0.3377
     33 OBF        15.1530  -41.8580  -45.5120 O.3       1 2M6        -0.3924
     34 OBG        12.8780  -40.1060  -41.5540 O.3       1 2M6        -0.3865
     35 CBH        21.6180  -36.1700  -40.7460 C.3       1 2M6         0.1119
     36 CBI        20.7540  -34.9120  -40.9110 C.3       1 2M6         0.1144
     37 CBJ        19.8600  -34.6480  -39.7510 C.3       1 2M6         0.1406
     38 CBK        18.8930  -35.7970  -39.5910 C.3       1 2M6         0.1889
     39 OBL        19.5250  -37.0570  -39.5260 O.3       1 2M6        -0.3405
     40 CBM        20.6840  -37.3480  -40.3340 C.3       1 2M6         0.1130
     41 CBN        21.4080  -38.5270  -39.6230 C.3       1 2M6         0.0730
     42 OBO        22.3530  -36.4040  -42.0190 O.3       1 2M6        -0.3865
     43 OBP        21.5000  -33.7290  -41.2070 O.3       1 2M6        -0.3864
     44 OBQ        20.4890  -39.6010  -39.2470 O.3       1 2M6        -0.3924
     45 OBS        15.1730  -43.0530  -40.4860 O.3       1 2M6        -0.3649
     46 CBT        16.6630  -35.6140  -36.5190 C.3       1 2M6        -0.0364
     47 H          20.2115  -32.6337  -38.4051 H         1 2M6         0.0938
     48 H          22.2719  -33.2221  -36.8982 H         1 2M6         0.0671
     49 H          21.4230  -32.0263  -35.1063 H         1 2M6         0.2101
     50 H          21.2192  -35.4678  -36.3182 H         1 2M6         0.0648
     51 H          22.1731  -35.3579  -34.2469 H         1 2M6         0.2100
     52 H          19.7749  -33.6900  -34.3016 H         1 2M6         0.0647
     53 H          19.7993  -36.5069  -34.5930 H         1 2M6         0.2100
     54 H          18.9583  -35.5833  -36.5081 H         1 2M6         0.0650
     55 H          17.3942  -35.2403  -34.4432 H         1 2M6         0.0617
     56 H          16.5468  -33.2626  -36.3064 H         1 2M6         0.2099
     57 H          14.1180  -39.2498  -43.0017 H         1 2M6         0.0647
     58 H          15.0514  -39.5540  -40.2917 H         1 2M6         0.0651
     59 H          16.4436  -40.8689  -40.0462 H         1 2M6         0.0671
     60 H          16.7800  -42.9299  -41.6152 H         1 2M6         0.0935
     61 H          13.3673  -41.8933  -43.0111 H         1 2M6         0.0647
     62 H          15.0099  -39.9796  -44.6674 H         1 2M6         0.0584
     63 H          13.4277  -40.8120  -45.0744 H         1 2M6         0.0584
     64 H          17.9123  -39.7216  -41.4986 H         1 2M6         0.2101
     65 H          15.6137  -34.2166  -42.2082 H         1 2M6         0.0647
     66 H          14.6210  -36.2623  -40.2556 H         1 2M6         0.0648
     67 H          16.5862  -37.1094  -39.4917 H         1 2M6         0.0675
     68 H          17.5791  -38.2691  -41.1338 H         1 2M6         0.0938
     69 H          14.9686  -36.9345  -43.2025 H         1 2M6         0.0647
     70 H          15.4712  -34.4476  -44.4239 H         1 2M6         0.0584
     71 H          15.3183  -36.0078  -45.2452 H         1 2M6         0.0584
     72 H          13.3219  -34.7080  -41.6086 H         1 2M6         0.2100
     73 H          16.3989  -33.9688  -40.2689 H         1 2M6         0.2100
     74 H          17.6070  -36.3121  -44.8764 H         1 2M6         0.2095
     75 H          16.0398  -41.9850  -45.1668 H         1 2M6         0.2095
     76 H          12.8084  -39.3215  -41.0050 H         1 2M6         0.2100
     77 H          22.3680  -36.0652  -39.9621 H         1 2M6         0.0647
     78 H          20.1370  -35.1484  -41.7779 H         1 2M6         0.0648
     79 H          19.2221  -33.7679  -39.8324 H         1 2M6         0.0675
     80 H          18.4165  -35.7065  -38.6148 H         1 2M6         0.0938
     81 H          20.3375  -37.6127  -41.3330 H         1 2M6         0.0647
     82 H          21.8661  -38.1412  -38.7123 H         1 2M6         0.0584
     83 H          22.1421  -38.9386  -40.3157 H         1 2M6         0.0584
     84 H          22.9064  -35.6437  -42.2121 H         1 2M6         0.2100
     85 H          22.0265  -33.4844  -40.4424 H         1 2M6         0.2100
     86 H          19.8238  -39.2560  -38.6469 H         1 2M6         0.2095
     87 H          15.6460  -42.9699  -39.6548 H         1 2M6         0.2126
     88 H          16.6797  -35.0527  -37.4532 H         1 2M6         0.0255
     89 H          17.1832  -36.5623  -36.6541 H         1 2M6         0.0255
     90 H          15.6304  -35.8031  -36.2256 H         1 2M6         0.0255
@<TRIPOS>BOND
     1    2    1 1  
     2    1    3 1  
     3    1   10 1  
     4   37    2 1  
     5    3    4 1  
     6    3    5 1  
     7    5    6 1  
     8    5    7 1  
     9    7    8 1  
    10    9    7 1  
    11   10    9 1  
    12    9   11 1  
    13   11   12 1  
    14   11   46 1  
    15   14   13 1  
    16   13   18 1  
    17   13   34 1  
    18   14   15 1  
    19   20   14 1  
    20   15   16 1  
    21   15   21 1  
    22   16   17 1  
    23   16   45 1  
    24   18   17 1  
    25   18   19 1  
    26   19   33 1  
    27   25   20 1  
    28   23   22 1  
    29   22   27 1  
    30   22   29 1  
    31   24   23 1  
    32   23   30 1  
    33   24   25 1  
    34   32   24 1  
    35   25   26 1  
    36   26   27 1  
    37   27   28 1  
    38   28   31 1  
    39   38   32 1  
    40   36   35 1  
    41   35   40 1  
    42   35   42 1  
    43   37   36 1  
    44   36   43 1  
    45   37   38 1  
    46   38   39 1  
    47   39   40 1  
    48   40   41 1  
    49   41   44 1  
    50    1   47 1  
    51    3   48 1  
    52    4   49 1  
    53    5   50 1  
    54    6   51 1  
    55    7   52 1  
    56    8   53 1  
    57    9   54 1  
    58   11   55 1  
    59   12   56 1  
    60   13   57 1  
    61   14   58 1  
    62   15   59 1  
    63   16   60 1  
    64   18   61 1  
    65   19   62 1  
    66   19   63 1  
    67   21   64 1  
    68   22   65 1  
    69   23   66 1  
    70   24   67 1  
    71   25   68 1  
    72   27   69 1  
    73   28   70 1  
    74   28   71 1  
    75   29   72 1  
    76   30   73 1  
    77   31   74 1  
    78   33   75 1  
    79   34   76 1  
    80   35   77 1  
    81   36   78 1  
    82   37   79 1  
    83   38   80 1  
    84   40   81 1  
    85   41   82 1  
    86   41   83 1  
    87   42   84 1  
    88   43   85 1  
    89   44   86 1  
    90   45   87 1  
    91   46   88 1  
    92   46   89 1  
    93   46   90 1  
@<TRIPOS>SUBSTRUCTURE
     1 2M6         1

