### 
### Created by X-TOOL on Fri Sep 26 17:34:48 2014
### 

@<TRIPOS>MOLECULE
3obq_ligand
  129   132     1     0     0
SMALL
GAST_HUCK


@<TRIPOS>ATOM
      1 N          -6.1050   -3.1100    3.8210 N.4       1 PRO         0.2461
      2 CA         -5.8500   -1.9030    3.0020 C.3       1 PRO         0.0670
      3 C          -4.3940   -1.7900    2.5640 C.2       1 PRO         0.2268
      4 O          -3.9180   -0.7000    2.2520 O.2       1 PRO        -0.3907
      5 CB         -6.2650   -0.7130    3.8500 C.3       1 PRO         0.0127
      6 CG         -7.3780   -1.3250    4.6840 C.3       1 PRO        -0.0053
      7 CD         -6.8610   -2.7400    5.0330 C.3       1 PRO        -0.0313
      8 N          -3.6980   -2.9230    2.5420 N.am      1 PRO        -0.2586
      9 CA         -2.3020   -2.9560    2.1220 C.3       1 PRO         0.1568
     10 C          -2.1910   -3.6680    0.7790 C.2       1 PRO         0.2090
     11 O          -2.7610   -4.7440    0.5920 O.2       1 PRO        -0.3941
     12 CB         -1.4120   -3.7030    3.1460 C.3       1 PRO         0.0924
     13 OG1        -1.9200   -5.0290    3.3490 O.3       1 PRO        -0.3874
     14 CG2        -1.3800   -2.9620    4.4700 C.3       1 PRO        -0.0346
     15 N          -1.4650   -3.0680   -0.1760 N.am      1 PRO        -0.2498
     16 CA         -1.2950   -3.6710   -1.4990 C.3       1 PRO         0.1338
     17 C          -0.7360   -5.0840   -1.4000 C.2       1 PRO         0.2042
     18 O           0.2190   -5.3350   -0.6620 O.2       1 PRO        -0.3944
     19 CB         -0.3280   -2.7160   -2.1900 C.3       1 PRO        -0.0104
     20 CG         -0.6860   -1.3980   -1.5830 C.3       1 PRO        -0.0281
     21 CD         -0.8240   -1.7430   -0.1220 C.3       1 PRO         0.0369
     22 N          -1.3360   -6.0060   -2.1440 N.am      1 PRO        -0.2616
     23 CA         -0.8920   -7.3950   -2.1340 C.3       1 PRO         0.1539
     24 C          -0.9870   -7.9950   -3.5280 C.2       1 PRO         0.2062
     25 O          -1.7530   -7.5270   -4.3700 O.2       1 PRO        -0.3943
     26 CB         -1.7360   -8.2120   -1.1520 C.3       1 PRO         0.0843
     27 OG         -3.1110   -8.1770   -1.4900 O.3       1 PRO        -0.3903
     28 N          -0.1970   -9.0350   -3.7610 N.am      1 PRO        -0.2639
     29 CA         -0.1730   -9.7150   -5.0460 C.3       1 PRO         0.1284
     30 C           0.0410  -11.2040   -4.8010 C.2       1 PRO         0.2061
     31 O           0.6890  -11.5900   -3.8300 O.2       1 PRO        -0.3942
     32 CB          0.9450   -9.1560   -5.9120 C.3       1 PRO        -0.0244
     33 N          -0.5010  -12.0600   -5.6810 N.am      1 PRO        -0.2498
     34 CA         -0.3450  -13.5100   -5.5210 C.3       1 PRO         0.1338
     35 C           1.0900  -13.9890   -5.7320 C.2       1 PRO         0.2041
     36 O           1.8950  -13.3180   -6.3780 O.2       1 PRO        -0.3944
     37 CB         -1.3030  -14.0700   -6.5650 C.3       1 PRO        -0.0104
     38 CG         -1.2330  -13.0440   -7.6550 C.3       1 PRO        -0.0281
     39 CD         -1.3020  -11.7460   -6.8790 C.3       1 PRO         0.0369
     40 N           1.4030  -15.1530   -5.1720 N.am      1 PRO        -0.2635
     41 CA          2.7310  -15.7320   -5.3050 C.3       1 PRO         0.1334
     42 C           2.9060  -16.2840   -6.7180 C.2       1 PRO         0.2066
     43 O           1.9410  -16.7240   -7.3430 O.2       1 PRO        -0.3942
     44 CB          2.9450  -16.8780   -4.2970 C.3       1 PRO        -0.0062
     45 CG1         2.7950  -16.3590   -2.8770 C.3       1 PRO        -0.0584
     46 CG2         1.9470  -17.9960   -4.5610 C.3       1 PRO        -0.0584
     47 N           4.1390  -16.2560   -7.2130 N.am      1 PRO        -0.2498
     48 CA          4.4410  -16.7540   -8.5590 C.3       1 PRO         0.1337
     49 C           4.2680  -18.2660   -8.6560 C.2       1 PRO         0.2035
     50 O           4.3420  -18.9620   -7.6430 O.2       1 PRO        -0.3944
     51 CB          5.9130  -16.3800   -8.7430 C.3       1 PRO        -0.0104
     52 CG          6.1010  -15.1840   -7.8800 C.3       1 PRO        -0.0281
     53 CD          5.2110  -15.3930   -6.6870 C.3       1 PRO         0.0369
     54 N           4.0410  -18.7640   -9.8670 N.am      1 PRO        -0.2695
     55 CA          3.8590  -20.1930  -10.0870 C.3       1 PRO         0.0946
     56 C           5.1990  -20.9200  -10.1200 C.2       1 PRO         0.0601
     57 O           6.2310  -20.3270  -10.4340 O.co2     1 PRO        -0.5666
     58 CB          3.0930  -20.4430  -11.3880 C.3       1 PRO        -0.0156
     59 CG          1.5820  -20.2050  -11.3410 C.3       1 PRO        -0.0431
     60 CD1         1.2740  -18.7170  -11.2730 C.3       1 PRO        -0.0625
     61 CD2         0.9000  -20.8440  -12.5410 C.3       1 PRO        -0.0625
     62 OXT         5.1810  -22.1390   -9.8490 O.co2     1 PRO        -0.5666
     63 H1         -5.2262   -3.5250    4.0883 H         1 PRO         0.2035
     64 H2         -6.6398   -3.7733    3.2824 H         1 PRO         0.2035
     65 H3         -6.4767   -1.9426    2.0989 H         1 PRO         0.1099
     66 H4         -6.6349    0.1162    3.2290 H         1 PRO         0.0347
     67 H5         -5.4366   -0.3577    4.4804 H         1 PRO         0.0347
     68 H6         -8.3116   -1.3832    4.1052 H         1 PRO         0.0320
     69 H7         -7.5490   -0.7365    5.5975 H         1 PRO         0.0320
     70 H8         -6.2080   -2.7178    5.9179 H         1 PRO         0.0814
     71 H9         -7.6946   -3.4356    5.2097 H         1 PRO         0.0814
     72 H10        -4.1433   -3.7739    2.8206 H         1 PRO         0.1885
     73 H11        -1.9390   -1.9227    2.0194 H         1 PRO         0.0826
     74 H12        -0.3883   -3.7665    2.7486 H         1 PRO         0.0639
     75 H13        -1.9144   -5.4989    2.5234 H         1 PRO         0.2101
     76 H14        -0.7434   -3.5090    5.1810 H         1 PRO         0.0257
     77 H15        -2.4006   -2.8879    4.8735 H         1 PRO         0.0257
     78 H16        -0.9727   -1.9520    4.3152 H         1 PRO         0.0257
     79 H17        -2.2540   -3.7047   -2.0367 H         1 PRO         0.0802
     80 H18        -0.4864   -2.7085   -3.2785 H         1 PRO         0.0313
     81 H19         0.7170   -2.9827   -1.9734 H         1 PRO         0.0313
     82 H20        -1.6322   -1.0147   -1.9927 H         1 PRO         0.0287
     83 H21         0.1103   -0.6562   -1.7435 H         1 PRO         0.0287
     84 H22         0.1583   -1.7946    0.3703 H         1 PRO         0.0524
     85 H23        -1.4590   -1.0135    0.4020 H         1 PRO         0.0524
     86 H24        -2.1078   -5.7425   -2.7227 H         1 PRO         0.1884
     87 H25         0.1581   -7.4262   -1.8081 H         1 PRO         0.0823
     88 H26        -1.6066   -7.7988   -0.1408 H         1 PRO         0.0606
     89 H27        -1.3912   -9.2564   -1.1683 H         1 PRO         0.0606
     90 H28        -3.6035   -8.6924   -0.8621 H         1 PRO         0.2097
     91 H29         0.4012   -9.3618   -3.0293 H         1 PRO         0.1883
     92 H30        -1.1345   -9.5636   -5.5584 H         1 PRO         0.0797
     93 H31         0.9539   -9.6771   -6.8807 H         1 PRO         0.0277
     94 H32         1.9103   -9.3057   -5.4063 H         1 PRO         0.0277
     95 H33         0.7795   -8.0809   -6.0756 H         1 PRO         0.0277
     96 H34        -0.6627  -13.8137   -4.5126 H         1 PRO         0.0802
     97 H35        -2.3236  -14.1538   -6.1633 H         1 PRO         0.0313
     98 H36        -0.9682  -15.0544   -6.9240 H         1 PRO         0.0313
     99 H37        -2.0820  -13.1398   -8.3478 H         1 PRO         0.0287
    100 H38        -0.2906  -13.1229   -8.2168 H         1 PRO         0.0287
    101 H39        -0.8594  -10.9159   -7.4491 H         1 PRO         0.0524
    102 H40        -2.3391  -11.4953   -6.6116 H         1 PRO         0.0524
    103 H41         0.7081  -15.6432   -4.6459 H         1 PRO         0.1883
    104 H42         3.4814  -14.9486   -5.1227 H         1 PRO         0.0803
    105 H43         3.9630  -17.2755   -4.4224 H         1 PRO         0.0343
    106 H44         2.9496  -17.1845   -2.1667 H         1 PRO         0.0234
    107 H45         1.7851  -15.9443   -2.7429 H         1 PRO         0.0234
    108 H46         3.5418  -15.5725   -2.6932 H         1 PRO         0.0234
    109 H47         2.0686  -18.3601   -5.5918 H         1 PRO         0.0234
    110 H48         0.9243  -17.6143   -4.4252 H         1 PRO         0.0234
    111 H49         2.1267  -18.8218   -3.8569 H         1 PRO         0.0234
    112 H50         3.8070  -16.2621   -9.3114 H         1 PRO         0.0802
    113 H51         6.1247  -16.1381   -9.7950 H         1 PRO         0.0313
    114 H52         6.5672  -17.2020   -8.4170 H         1 PRO         0.0313
    115 H53         5.8080  -14.2720   -8.4208 H         1 PRO         0.0287
    116 H54         7.1514  -15.1015   -7.5640 H         1 PRO         0.0287
    117 H55         5.7551  -15.8925   -5.8719 H         1 PRO         0.0524
    118 H56         4.8055  -14.4366   -6.3252 H         1 PRO         0.0524
    119 H57         3.9938  -18.1415  -10.6482 H         1 PRO         0.1875
    120 H58         3.2674  -20.5968   -9.2522 H         1 PRO         0.0726
    121 H59         3.2584  -21.4910  -11.6783 H         1 PRO         0.0308
    122 H60         3.5132  -19.7786  -12.1574 H         1 PRO         0.0308
    123 H61         1.1878  -20.6788  -10.4299 H         1 PRO         0.0297
    124 H62         0.1845  -18.5692  -11.2401 H         1 PRO         0.0232
    125 H63         1.6852  -18.2164  -12.1620 H         1 PRO         0.0232
    126 H64         1.7295  -18.2892  -10.3677 H         1 PRO         0.0232
    127 H65         1.1371  -21.9178  -12.5687 H         1 PRO         0.0232
    128 H66         1.2584  -20.3655  -13.4643 H         1 PRO         0.0232
    129 H67        -0.1887  -20.7110  -12.4578 H         1 PRO         0.0232
@<TRIPOS>BOND
     1    1    2 1  
     2    1    7 1  
     3    2    3 1  
     4    2    5 1  
     5    3    4 2  
     6    3    8 am 
     7    5    6 1  
     8    6    7 1  
     9    8    9 1  
    10    9   10 1  
    11    9   12 1  
    12   10   11 2  
    13   10   15 am 
    14   12   13 1  
    15   12   14 1  
    16   15   16 1  
    17   15   21 1  
    18   16   17 1  
    19   16   19 1  
    20   17   18 2  
    21   17   22 am 
    22   19   20 1  
    23   20   21 1  
    24   22   23 1  
    25   23   24 1  
    26   23   26 1  
    27   24   25 2  
    28   24   28 am 
    29   26   27 1  
    30   28   29 1  
    31   29   30 1  
    32   29   32 1  
    33   30   31 2  
    34   30   33 am 
    35   33   34 1  
    36   33   39 1  
    37   34   35 1  
    38   34   37 1  
    39   35   36 2  
    40   35   40 am 
    41   37   38 1  
    42   38   39 1  
    43   40   41 1  
    44   41   42 1  
    45   41   44 1  
    46   42   43 2  
    47   42   47 am 
    48   44   45 1  
    49   44   46 1  
    50   47   48 1  
    51   47   53 1  
    52   48   49 1  
    53   48   51 1  
    54   49   50 2  
    55   49   54 am 
    56   51   52 1  
    57   52   53 1  
    58   54   55 1  
    59   55   56 1  
    60   55   58 1  
    61   56   57 ar 
    62   56   62 ar 
    63   58   59 1  
    64   59   60 1  
    65   59   61 1  
    66    1   63 1  
    67    1   64 1  
    68    2   65 1  
    69    5   66 1  
    70    5   67 1  
    71    6   68 1  
    72    6   69 1  
    73    7   70 1  
    74    7   71 1  
    75    8   72 1  
    76    9   73 1  
    77   12   74 1  
    78   13   75 1  
    79   14   76 1  
    80   14   77 1  
    81   14   78 1  
    82   16   79 1  
    83   19   80 1  
    84   19   81 1  
    85   20   82 1  
    86   20   83 1  
    87   21   84 1  
    88   21   85 1  
    89   22   86 1  
    90   23   87 1  
    91   26   88 1  
    92   26   89 1  
    93   27   90 1  
    94   28   91 1  
    95   29   92 1  
    96   32   93 1  
    97   32   94 1  
    98   32   95 1  
    99   34   96 1  
   100   37   97 1  
   101   37   98 1  
   102   38   99 1  
   103   38  100 1  
   104   39  101 1  
   105   39  102 1  
   106   40  103 1  
   107   41  104 1  
   108   44  105 1  
   109   45  106 1  
   110   45  107 1  
   111   45  108 1  
   112   46  109 1  
   113   46  110 1  
   114   46  111 1  
   115   48  112 1  
   116   51  113 1  
   117   51  114 1  
   118   52  115 1  
   119   52  116 1  
   120   53  117 1  
   121   53  118 1  
   122   54  119 1  
   123   55  120 1  
   124   58  121 1  
   125   58  122 1  
   126   59  123 1  
   127   60  124 1  
   128   60  125 1  
   129   60  126 1  
   130   61  127 1  
   131   61  128 1  
   132   61  129 1  
@<TRIPOS>SUBSTRUCTURE
     1 PRO         1

