### 
### Created by X-TOOL on Fri Sep 26 17:34:47 2014
### 

@<TRIPOS>MOLECULE
3obu_ligand
  128   131     1     0     0
SMALL
GAST_HUCK


@<TRIPOS>ATOM
      1 N          -7.2870   -2.6170    1.9870 N.4       1 PRO         0.2461
      2 CA         -6.5670   -1.8520    3.0300 C.3       1 PRO         0.0670
      3 C          -5.0820   -1.7820    2.6930 C.2       1 PRO         0.2268
      4 O          -4.5070   -0.6990    2.5660 O.2       1 PRO        -0.3907
      5 CB         -6.7910   -2.5830    4.3460 C.3       1 PRO         0.0127
      6 CG         -8.0880   -3.3460    4.0670 C.3       1 PRO        -0.0053
      7 CD         -7.9940   -3.7590    2.5940 C.3       1 PRO        -0.0313
      8 N          -4.4720   -2.9520    2.5460 N.am      1 PRO        -0.2609
      9 CA         -3.0530   -3.0560    2.2240 C.3       1 PRO         0.1328
     10 C          -2.8650   -3.7660    0.8830 C.2       1 PRO         0.2065
     11 O          -3.4590   -4.8130    0.6470 O.2       1 PRO        -0.3942
     12 CB         -2.3350   -3.8340    3.3290 C.3       1 PRO        -0.0008
     13 CG         -0.9640   -4.3500    2.9430 C.3       1 PRO         0.0044
     14 CD          0.1370   -3.7210    3.7630 C.2       1 PRO         0.0350
     15 OE1         0.1970   -2.4740    3.8080 O.co2     1 PRO        -0.5690
     16 OE2         0.9420   -4.4710    4.3550 O.co2     1 PRO        -0.5690
     17 N          -2.0370   -3.2000   -0.0130 N.am      1 PRO        -0.2498
     18 CA         -1.7980   -3.8140   -1.3230 C.3       1 PRO         0.1338
     19 C          -1.3010   -5.2500   -1.1840 C.2       1 PRO         0.2042
     20 O          -0.3850   -5.5240   -0.4110 O.2       1 PRO        -0.3944
     21 CB         -0.7410   -2.9050   -1.9460 C.3       1 PRO        -0.0104
     22 CG         -1.0390   -1.5690   -1.3370 C.3       1 PRO        -0.0281
     23 CD         -1.3000   -1.9310    0.1140 C.3       1 PRO         0.0369
     24 N          -1.9160   -6.1650   -1.9220 N.am      1 PRO        -0.2613
     25 CA         -1.5070   -7.5630   -1.8880 C.3       1 PRO         0.1565
     26 C          -1.5450   -8.1200   -3.3030 C.2       1 PRO         0.2065
     27 O          -2.2540   -7.5990   -4.1640 O.2       1 PRO        -0.3943
     28 CB         -2.4350   -8.4220   -0.9930 C.3       1 PRO         0.0924
     29 OG1        -3.7950   -8.2700   -1.4170 O.3       1 PRO        -0.3874
     30 CG2        -2.3010   -8.0130    0.4680 C.3       1 PRO        -0.0346
     31 N          -0.7790   -9.1780   -3.5370 N.am      1 PRO        -0.2639
     32 CA         -0.7260   -9.8070   -4.8480 C.3       1 PRO         0.1284
     33 C          -0.5890  -11.3130   -4.6720 C.2       1 PRO         0.2061
     34 O          -0.0430  -11.7800   -3.6730 O.2       1 PRO        -0.3942
     35 CB          0.4540   -9.2610   -5.6350 C.3       1 PRO        -0.0244
     36 N          -1.0920  -12.0930   -5.6390 N.am      1 PRO        -0.2498
     37 CA         -1.0110  -13.5550   -5.5630 C.3       1 PRO         0.1340
     38 C           0.3900  -14.0780   -5.8610 C.2       1 PRO         0.2066
     39 O           1.2100  -13.3830   -6.4500 O.2       1 PRO        -0.3942
     40 CB         -2.0230  -14.0030   -6.6100 C.3       1 PRO        -0.0104
     41 CG         -1.8590  -12.9580   -7.6680 C.3       1 PRO        -0.0281
     42 CD         -1.8050  -11.6700   -6.8590 C.3       1 PRO         0.0369
     43 N           0.6870  -15.3160   -5.4420 N.am      1 PRO        -0.2498
     44 CA          2.0200  -15.8680   -5.7110 C.3       1 PRO         0.1338
     45 C           2.1170  -16.3290   -7.1660 C.2       1 PRO         0.2041
     46 O           1.0960  -16.5840   -7.7980 O.2       1 PRO        -0.3944
     47 CB          2.1160  -17.0270   -4.7250 C.3       1 PRO        -0.0104
     48 CG          0.6890  -17.5000   -4.6310 C.3       1 PRO        -0.0281
     49 CD         -0.0940  -16.2040   -4.5610 C.3       1 PRO         0.0369
     50 N           3.3310  -16.4260   -7.7030 N.am      1 PRO        -0.2636
     51 CA          3.4920  -16.8660   -9.0870 C.3       1 PRO         0.1324
     52 C           2.7310  -18.1700   -9.3030 C.2       1 PRO         0.2035
     53 O           3.0330  -19.1820   -8.6730 O.2       1 PRO        -0.3944
     54 CB          4.9710  -17.0670   -9.4340 C.3       1 PRO        -0.0008
     55 CG          5.7710  -15.7780   -9.6450 C.3       1 PRO         0.0044
     56 CD          5.2720  -14.9400  -10.8170 C.2       1 PRO         0.0350
     57 OE1         4.7570  -15.5180  -11.8000 O.co2     1 PRO        -0.5690
     58 OE2         5.4150  -13.6980  -10.7660 O.co2     1 PRO        -0.5690
     59 N           1.7380  -18.1120  -10.1880 N.am      1 PRO        -0.2694
     60 CA          0.8720  -19.2360  -10.5520 C.3       1 PRO         0.0959
     61 C          -0.4790  -18.7150  -11.0320 C.2       1 PRO         0.0602
     62 O          -1.4720  -18.8840  -10.2880 O.co2     1 PRO        -0.5666
     63 CB          0.6370  -20.1950   -9.3760 C.3       1 PRO        -0.0064
     64 CG          1.6570  -21.3190   -9.2670 C.3       1 PRO         0.0038
     65 CD          1.9130  -21.9910  -10.5930 C.2       1 PRO         0.0350
     66 OE1         0.9690  -22.5940  -11.1480 O.co2     1 PRO        -0.5690
     67 OE2         3.0590  -21.9070  -11.0840 O.co2     1 PRO        -0.5690
     68 OXT        -0.5280  -18.1390  -12.1390 O.co2     1 PRO        -0.5666
     69 H1         -6.6255   -2.9577    1.3070 H         1 PRO         0.2035
     70 H2         -7.9553   -2.0143    1.5330 H         1 PRO         0.2035
     71 H3         -6.9720   -0.8314    3.0960 H         1 PRO         0.1099
     72 H4         -6.9141   -1.8765    5.1801 H         1 PRO         0.0347
     73 H5         -5.9619   -3.2711    4.5675 H         1 PRO         0.0347
     74 H6         -8.9614   -2.6980    4.2321 H         1 PRO         0.0320
     75 H7         -8.1620   -4.2329    4.7135 H         1 PRO         0.0320
     76 H8         -7.4191   -4.6896    2.4780 H         1 PRO         0.0814
     77 H9         -8.9933   -3.8879    2.1528 H         1 PRO         0.0814
     78 H10        -5.0038   -3.7912    2.6600 H         1 PRO         0.1885
     79 H11        -2.6244   -2.0452    2.1573 H         1 PRO         0.0801
     80 H12        -2.9610   -4.6951    3.6057 H         1 PRO         0.0330
     81 H13        -2.2201   -3.1698    4.1982 H         1 PRO         0.0330
     82 H14        -0.7871   -4.1242    1.8811 H         1 PRO         0.0433
     83 H15        -0.9402   -5.4391    3.0952 H         1 PRO         0.0433
     84 H16        -2.7170   -3.8102   -1.9276 H         1 PRO         0.0802
     85 H17        -0.8445   -2.8717   -3.0406 H         1 PRO         0.0313
     86 H18         0.2730   -3.2411   -1.6836 H         1 PRO         0.0313
     87 H19        -1.9247   -1.1084   -1.7989 H         1 PRO         0.0287
     88 H20        -0.1806   -0.8875   -1.4301 H         1 PRO         0.0287
     89 H21        -0.3590   -2.0692    0.6666 H         1 PRO         0.0524
     90 H22        -1.9093   -1.1635    0.6137 H         1 PRO         0.0524
     91 H23        -2.6746   -5.8900   -2.5127 H         1 PRO         0.1884
     92 H24        -0.4807   -7.6230   -1.4967 H         1 PRO         0.0826
     93 H25        -2.1454   -9.4784   -1.0932 H         1 PRO         0.0639
     94 H26        -4.3587   -8.7988   -0.8647 H         1 PRO         0.2101
     95 H27        -2.9670   -8.6340    1.0851 H         1 PRO         0.0257
     96 H28        -2.5790   -6.9546    0.5795 H         1 PRO         0.0257
     97 H29        -1.2603   -8.1551    0.7946 H         1 PRO         0.0257
     98 H30        -0.2244   -9.5523   -2.7938 H         1 PRO         0.1883
     99 H31        -1.6553   -9.5886   -5.3946 H         1 PRO         0.0797
    100 H32         0.4882   -9.7404   -6.6244 H         1 PRO         0.0277
    101 H33         1.3868   -9.4737   -5.0922 H         1 PRO         0.0277
    102 H34         0.3411   -8.1738   -5.7581 H         1 PRO         0.0277
    103 H35        -1.3104  -13.9042   -4.5638 H         1 PRO         0.0802
    104 H36        -3.0451  -14.0033   -6.2036 H         1 PRO         0.0313
    105 H37        -1.7818  -15.0042   -6.9964 H         1 PRO         0.0313
    106 H38        -2.7140  -12.9563   -8.3601 H         1 PRO         0.0287
    107 H39        -0.9286  -13.1098   -8.2349 H         1 PRO         0.0287
    108 H40        -1.2481  -10.8868   -7.3942 H         1 PRO         0.0524
    109 H41        -2.8157  -11.3053   -6.6233 H         1 PRO         0.0524
    110 H42         2.8053  -15.1236   -5.5130 H         1 PRO         0.0802
    111 H43         2.4862  -16.6862   -3.7469 H         1 PRO         0.0313
    112 H44         2.7728  -17.8214   -5.1092 H         1 PRO         0.0313
    113 H45         0.5319  -18.1064   -3.7268 H         1 PRO         0.0287
    114 H46         0.4069  -18.0852   -5.5186 H         1 PRO         0.0287
    115 H47        -1.1190  -16.3372   -4.9374 H         1 PRO         0.0524
    116 H48        -0.1286  -15.8148   -3.5328 H         1 PRO         0.0524
    117 H49         4.1366  -16.1967   -7.1567 H         1 PRO         0.1883
    118 H50         3.0760  -16.0951   -9.7523 H         1 PRO         0.0801
    119 H51         5.0263  -17.6576  -10.3604 H         1 PRO         0.0330
    120 H52         5.4403  -17.6284   -8.6127 H         1 PRO         0.0330
    121 H53         6.8215  -16.0461   -9.8306 H         1 PRO         0.0433
    122 H54         5.7034  -15.1720   -8.7295 H         1 PRO         0.0433
    123 H55         1.5707  -17.2349  -10.6382 H         1 PRO         0.1875
    124 H56         1.3534  -19.7938  -11.3688 H         1 PRO         0.0727
    125 H57        -0.3597  -20.6453   -9.4934 H         1 PRO         0.0323
    126 H58         0.6681  -19.6109   -8.4444 H         1 PRO         0.0323
    127 H59         1.2811  -22.0701   -8.5567 H         1 PRO         0.0432
    128 H60         2.6039  -20.9023   -8.8931 H         1 PRO         0.0432
@<TRIPOS>BOND
     1    1    2 1  
     2    1    7 1  
     3    2    3 1  
     4    2    5 1  
     5    3    4 2  
     6    3    8 am 
     7    5    6 1  
     8    6    7 1  
     9    8    9 1  
    10    9   10 1  
    11    9   12 1  
    12   10   11 2  
    13   10   17 am 
    14   12   13 1  
    15   13   14 1  
    16   14   15 ar 
    17   14   16 ar 
    18   17   18 1  
    19   17   23 1  
    20   18   19 1  
    21   18   21 1  
    22   19   20 2  
    23   19   24 am 
    24   21   22 1  
    25   22   23 1  
    26   24   25 1  
    27   25   26 1  
    28   25   28 1  
    29   26   27 2  
    30   26   31 am 
    31   28   29 1  
    32   28   30 1  
    33   31   32 1  
    34   32   33 1  
    35   32   35 1  
    36   33   34 2  
    37   33   36 am 
    38   36   37 1  
    39   36   42 1  
    40   37   38 1  
    41   37   40 1  
    42   38   39 2  
    43   38   43 am 
    44   40   41 1  
    45   41   42 1  
    46   43   44 1  
    47   43   49 1  
    48   44   45 1  
    49   44   47 1  
    50   45   46 2  
    51   45   50 am 
    52   47   48 1  
    53   48   49 1  
    54   50   51 1  
    55   51   52 1  
    56   51   54 1  
    57   52   53 2  
    58   52   59 am 
    59   54   55 1  
    60   55   56 1  
    61   56   57 ar 
    62   56   58 ar 
    63   59   60 1  
    64   60   61 1  
    65   60   63 1  
    66   61   62 ar 
    67   61   68 ar 
    68   63   64 1  
    69   64   65 1  
    70   65   66 ar 
    71   65   67 ar 
    72    1   69 1  
    73    1   70 1  
    74    2   71 1  
    75    5   72 1  
    76    5   73 1  
    77    6   74 1  
    78    6   75 1  
    79    7   76 1  
    80    7   77 1  
    81    8   78 1  
    82    9   79 1  
    83   12   80 1  
    84   12   81 1  
    85   13   82 1  
    86   13   83 1  
    87   18   84 1  
    88   21   85 1  
    89   21   86 1  
    90   22   87 1  
    91   22   88 1  
    92   23   89 1  
    93   23   90 1  
    94   24   91 1  
    95   25   92 1  
    96   28   93 1  
    97   29   94 1  
    98   30   95 1  
    99   30   96 1  
   100   30   97 1  
   101   31   98 1  
   102   32   99 1  
   103   35  100 1  
   104   35  101 1  
   105   35  102 1  
   106   37  103 1  
   107   40  104 1  
   108   40  105 1  
   109   41  106 1  
   110   41  107 1  
   111   42  108 1  
   112   42  109 1  
   113   44  110 1  
   114   47  111 1  
   115   47  112 1  
   116   48  113 1  
   117   48  114 1  
   118   49  115 1  
   119   49  116 1  
   120   50  117 1  
   121   51  118 1  
   122   54  119 1  
   123   54  120 1  
   124   55  121 1  
   125   55  122 1  
   126   59  123 1  
   127   60  124 1  
   128   63  125 1  
   129   63  126 1  
   130   64  127 1  
   131   64  128 1  
@<TRIPOS>SUBSTRUCTURE
     1 PRO         1

