### 
### Created by X-TOOL on Fri Sep 26 17:34:48 2014
### 

@<TRIPOS>MOLECULE
3obx_ligand
  124   126     1     0     0
SMALL
GAST_HUCK


@<TRIPOS>ATOM
      1 N          -6.5480    1.3440   -1.0740 N.4       1 PRO         0.2461
      2 CA         -5.6700    1.1370   -2.2500 C.3       1 PRO         0.0670
      3 C          -4.2050    1.4150   -1.9220 C.2       1 PRO         0.2268
      4 O          -3.3870    0.4960   -1.8270 O.2       1 PRO        -0.3907
      5 CB         -6.1620    2.0840   -3.3310 C.3       1 PRO         0.0127
      6 CG         -6.7280    3.2160   -2.4880 C.3       1 PRO        -0.0053
      7 CD         -7.4270    2.5020   -1.3100 C.3       1 PRO        -0.0313
      8 N          -3.8790    2.6920   -1.7620 N.am      1 PRO        -0.2609
      9 CA         -2.5190    3.1050   -1.4450 C.3       1 PRO         0.1326
     10 C          -2.5310    3.8700   -0.1260 C.2       1 PRO         0.2040
     11 O          -3.2510    4.8540    0.0200 O.2       1 PRO        -0.3944
     12 CB         -1.9780    4.0020   -2.5600 C.3       1 PRO        -0.0008
     13 CG         -0.4770    3.9140   -2.7510 C.3       1 PRO         0.0044
     14 CD         -0.0280    2.5250   -3.1780 C.2       1 PRO         0.0350
     15 OE1        -0.5950    1.9890   -4.1520 O.co2     1 PRO        -0.5690
     16 OE2         0.8960    1.9710   -2.5470 O.co2     1 PRO        -0.5690
     17 N          -1.7410    3.4090    0.8390 N.am      1 PRO        -0.2640
     18 CA         -1.6770    4.0650    2.1430 C.3       1 PRO         0.1282
     19 C          -1.1780    5.5020    2.0170 C.2       1 PRO         0.2037
     20 O          -0.2220    5.7790    1.2870 O.2       1 PRO        -0.3944
     21 CB         -0.7650    3.2760    3.0800 C.3       1 PRO        -0.0244
     22 N          -1.8400    6.4140    2.7240 N.am      1 PRO        -0.2613
     23 CA         -1.4580    7.8210    2.7140 C.3       1 PRO         0.1565
     24 C          -1.5390    8.4050    4.1180 C.2       1 PRO         0.2065
     25 O          -2.2690    7.9010    4.9750 O.2       1 PRO        -0.3943
     26 CB         -2.3590    8.6580    1.7740 C.3       1 PRO         0.0924
     27 OG1        -3.7260    8.5580    2.1920 O.3       1 PRO        -0.3874
     28 CG2        -2.2270    8.1730    0.3380 C.3       1 PRO        -0.0346
     29 N          -0.7810    9.4720    4.3450 N.am      1 PRO        -0.2639
     30 CA         -0.7510   10.1310    5.6410 C.3       1 PRO         0.1284
     31 C          -0.6950   11.6400    5.4430 C.2       1 PRO         0.2061
     32 O          -0.1920   12.1250    4.4250 O.2       1 PRO        -0.3942
     33 CB          0.4540    9.6600    6.4300 C.3       1 PRO        -0.0244
     34 N          -1.2140   12.4060    6.4150 N.am      1 PRO        -0.2498
     35 CA         -1.2080   13.8680    6.3180 C.3       1 PRO         0.1340
     36 C           0.2050   14.4410    6.4010 C.2       1 PRO         0.2066
     37 O           1.1100   13.8050    6.9380 O.2       1 PRO        -0.3942
     38 CB         -2.0870   14.2890    7.4910 C.3       1 PRO        -0.0104
     39 CG         -1.7890   13.2400    8.5120 C.3       1 PRO        -0.0281
     40 CD         -1.8120   11.9670    7.6890 C.3       1 PRO         0.0369
     41 N           0.4060   15.6610    5.8760 N.am      1 PRO        -0.2498
     42 CA          1.7180   16.3140    5.8910 C.3       1 PRO         0.1338
     43 C           2.3300   16.4890    7.2780 C.2       1 PRO         0.2041
     44 O           1.6290   16.7640    8.2520 O.2       1 PRO        -0.3944
     45 CB          1.4470   17.6470    5.1930 C.3       1 PRO        -0.0104
     46 CG          0.0160   17.9200    5.5340 C.3       1 PRO        -0.0281
     47 CD         -0.6180   16.5650    5.3250 C.3       1 PRO         0.0369
     48 N           3.6480   16.3250    7.3450 N.am      1 PRO        -0.2636
     49 CA          4.4050   16.4530    8.5840 C.3       1 PRO         0.1324
     50 C           4.1040   17.7940    9.2460 C.2       1 PRO         0.2035
     51 O           4.2000   18.8440    8.6100 O.2       1 PRO        -0.3944
     52 CB          5.9030   16.3530    8.2820 C.3       1 PRO        -0.0008
     53 CG          6.7840   16.0720    9.4870 C.3       1 PRO         0.0044
     54 CD          6.5680   14.6820   10.0550 C.2       1 PRO         0.0350
     55 OE1         5.4940   14.4360   10.6450 O.co2     1 PRO        -0.5690
     56 OE2         7.4710   13.8310    9.9030 O.co2     1 PRO        -0.5690
     57 N           3.7400   17.7540   10.5230 N.am      1 PRO        -0.2694
     58 CA          3.4230   18.9680   11.2660 C.3       1 PRO         0.0959
     59 C           3.5430   18.7430   12.7700 C.2       1 PRO         0.0602
     60 O           2.5270   18.9120   13.4760 O.co2     1 PRO        -0.5666
     61 CB          2.0080   19.4380   10.9200 C.3       1 PRO        -0.0064
     62 CG          0.9610   18.3380   10.9880 C.3       1 PRO         0.0038
     63 CD         -0.4470   18.8590   10.7870 C.2       1 PRO         0.0350
     64 OE1        -0.9230   19.6230   11.6520 O.co2     1 PRO        -0.5690
     65 OE2        -1.0750   18.5060    9.7660 O.co2     1 PRO        -0.5690
     66 OXT         4.6560   18.4010   13.2230 O.co2     1 PRO        -0.5666
     67 H1         -5.9811    1.5142   -0.2581 H         1 PRO         0.2035
     68 H2         -7.1105    0.5207   -0.9265 H         1 PRO         0.2035
     69 H3         -5.7621    0.0973   -2.5973 H         1 PRO         0.1099
     70 H4         -6.9387    1.6171   -3.9544 H         1 PRO         0.0347
     71 H5         -5.3371    2.4303   -3.9710 H         1 PRO         0.0347
     72 H6         -7.4502    3.8099   -3.0674 H         1 PRO         0.0320
     73 H7         -5.9228    3.8711   -2.1240 H         1 PRO         0.0320
     74 H8         -7.4757    3.1516   -0.4237 H         1 PRO         0.0814
     75 H9         -8.4424    2.1810   -1.5856 H         1 PRO         0.0814
     76 H10        -4.5877    3.3903   -1.8620 H         1 PRO         0.1885
     77 H11        -1.8777    2.2165   -1.3488 H         1 PRO         0.0801
     78 H12        -2.2353    5.0443   -2.3204 H         1 PRO         0.0330
     79 H13        -2.4639    3.7119   -3.5033 H         1 PRO         0.0330
     80 H14         0.0157    4.1681   -1.8009 H         1 PRO         0.0433
     81 H15        -0.1762    4.6359   -3.5245 H         1 PRO         0.0433
     82 H16        -1.1804    2.5985    0.6692 H         1 PRO         0.1883
     83 H17        -2.6898    4.0852    2.5718 H         1 PRO         0.0797
     84 H18        -0.7230    3.7769    4.0584 H         1 PRO         0.0277
     85 H19         0.2464    3.2251    2.6504 H         1 PRO         0.0277
     86 H20        -1.1615    2.2577    3.2062 H         1 PRO         0.0277
     87 H21        -2.6215    6.1265    3.2778 H         1 PRO         0.1884
     88 H22        -0.4195    7.8928    2.3587 H         1 PRO         0.0826
     89 H23        -2.0446    9.7109    1.8248 H         1 PRO         0.0639
     90 H24        -4.2723    9.0739    1.6107 H         1 PRO         0.2101
     91 H25        -2.8734    8.7785   -0.3144 H         1 PRO         0.0257
     92 H26        -2.5312    7.1176    0.2780 H         1 PRO         0.0257
     93 H27        -1.1811    8.2723    0.0121 H         1 PRO         0.0257
     94 H28        -0.2149    9.8323    3.6036 H         1 PRO         0.1883
     95 H29        -1.6651    9.8753    6.1970 H         1 PRO         0.0797
     96 H30         0.4706   10.1621    7.4086 H         1 PRO         0.0277
     97 H31         1.3729    9.9045    5.8769 H         1 PRO         0.0277
     98 H32         0.3933    8.5716    6.5773 H         1 PRO         0.0277
     99 H33        -1.6597   14.1915    5.3686 H         1 PRO         0.0802
    100 H34        -3.1512   14.2818    7.2128 H         1 PRO         0.0313
    101 H35        -1.8102   15.2890    7.8562 H         1 PRO         0.0313
    102 H36        -2.5586   13.2196    9.2976 H         1 PRO         0.0287
    103 H37        -0.8017   13.3997    8.9699 H         1 PRO         0.0287
    104 H38        -1.2094   11.1768    8.1606 H         1 PRO         0.0524
    105 H39        -2.8406   11.6057    7.5427 H         1 PRO         0.0524
    106 H40         2.4249   15.7202    5.2930 H         1 PRO         0.0802
    107 H41         1.5844   17.5589    4.1052 H         1 PRO         0.0313
    108 H42         2.1042   18.4383    5.5827 H         1 PRO         0.0313
    109 H43        -0.4190   18.6733    4.8608 H         1 PRO         0.0287
    110 H44        -0.0901   18.2548    6.5764 H         1 PRO         0.0287
    111 H45        -1.5663   16.4780    5.8756 H         1 PRO         0.0524
    112 H46        -0.7942   16.3664    4.2575 H         1 PRO         0.0524
    113 H47         4.1435   16.1032    6.5051 H         1 PRO         0.1883
    114 H48         4.1180   15.6407    9.2679 H         1 PRO         0.0801
    115 H49         6.2259   17.3063    7.8383 H         1 PRO         0.0330
    116 H50         6.0509   15.5412    7.5546 H         1 PRO         0.0330
    117 H51         6.5576   16.8115   10.2693 H         1 PRO         0.0433
    118 H52         7.8370   16.1692    9.1841 H         1 PRO         0.0433
    119 H53         3.6820   16.8696   10.9861 H         1 PRO         0.1875
    120 H54         4.1368   19.7520   10.9730 H         1 PRO         0.0727
    121 H55         2.0180   19.8442    9.8978 H         1 PRO         0.0323
    122 H56         1.7237   20.2312   11.6271 H         1 PRO         0.0323
    123 H57         1.0204   17.8559   11.9749 H         1 PRO         0.0432
    124 H58         1.1774   17.5970   10.2043 H         1 PRO         0.0432
@<TRIPOS>BOND
     1    1    2 1  
     2    1    7 1  
     3    2    3 1  
     4    2    5 1  
     5    3    4 2  
     6    3    8 am 
     7    5    6 1  
     8    6    7 1  
     9    8    9 1  
    10    9   10 1  
    11    9   12 1  
    12   10   11 2  
    13   10   17 am 
    14   12   13 1  
    15   13   14 1  
    16   14   15 ar 
    17   14   16 ar 
    18   17   18 1  
    19   18   19 1  
    20   18   21 1  
    21   19   20 2  
    22   19   22 am 
    23   22   23 1  
    24   23   24 1  
    25   23   26 1  
    26   24   25 2  
    27   24   29 am 
    28   26   27 1  
    29   26   28 1  
    30   29   30 1  
    31   30   31 1  
    32   30   33 1  
    33   31   32 2  
    34   31   34 am 
    35   34   35 1  
    36   34   40 1  
    37   35   36 1  
    38   35   38 1  
    39   36   37 2  
    40   36   41 am 
    41   38   39 1  
    42   39   40 1  
    43   41   42 1  
    44   41   47 1  
    45   42   43 1  
    46   42   45 1  
    47   43   44 2  
    48   43   48 am 
    49   45   46 1  
    50   46   47 1  
    51   48   49 1  
    52   49   50 1  
    53   49   52 1  
    54   50   51 2  
    55   50   57 am 
    56   52   53 1  
    57   53   54 1  
    58   54   55 ar 
    59   54   56 ar 
    60   57   58 1  
    61   58   59 1  
    62   58   61 1  
    63   59   60 ar 
    64   59   66 ar 
    65   61   62 1  
    66   62   63 1  
    67   63   64 ar 
    68   63   65 ar 
    69    1   67 1  
    70    1   68 1  
    71    2   69 1  
    72    5   70 1  
    73    5   71 1  
    74    6   72 1  
    75    6   73 1  
    76    7   74 1  
    77    7   75 1  
    78    8   76 1  
    79    9   77 1  
    80   12   78 1  
    81   12   79 1  
    82   13   80 1  
    83   13   81 1  
    84   17   82 1  
    85   18   83 1  
    86   21   84 1  
    87   21   85 1  
    88   21   86 1  
    89   22   87 1  
    90   23   88 1  
    91   26   89 1  
    92   27   90 1  
    93   28   91 1  
    94   28   92 1  
    95   28   93 1  
    96   29   94 1  
    97   30   95 1  
    98   33   96 1  
    99   33   97 1  
   100   33   98 1  
   101   35   99 1  
   102   38  100 1  
   103   38  101 1  
   104   39  102 1  
   105   39  103 1  
   106   40  104 1  
   107   40  105 1  
   108   42  106 1  
   109   45  107 1  
   110   45  108 1  
   111   46  109 1  
   112   46  110 1  
   113   47  111 1  
   114   47  112 1  
   115   48  113 1  
   116   49  114 1  
   117   52  115 1  
   118   52  116 1  
   119   53  117 1  
   120   53  118 1  
   121   57  119 1  
   122   58  120 1  
   123   61  121 1  
   124   61  122 1  
   125   62  123 1  
   126   62  124 1  
@<TRIPOS>SUBSTRUCTURE
     1 PRO         1

