### 
### Created by X-TOOL on Mon Sep 10 21:13:04 2018
### 

@<TRIPOS>MOLECULE
3ocb_ligand
   52    55     1     0     0
SMALL
GAST_HUCK


@<TRIPOS>ATOM
      1 C1         14.5350   -1.9910   15.8820 C.ar      1 XM1         0.1213
      2 CL1         8.4060    4.0740   14.3960 Cl        1 XM1        -0.0771
      3 C2         15.6670   -1.2180   15.5290 C.ar      1 XM1         0.0435
      4 C3         15.8660    0.2010   15.5120 C.2       1 XM1        -0.0545
      5 C4         17.1710    0.3050   15.0770 C.2       1 XM1         0.0249
      6 N5         12.2340   -0.4080   21.2740 N.4       1 XM1         0.2205
      7 N6         17.7460   -0.9530   14.8400 N.pl3     1 XM1        -0.2665
      8 C7         16.8180   -1.8940   15.1190 C.ar      1 XM1         0.1355
      9 N8         14.6370   -3.3350   15.8050 N.ar      1 XM1        -0.2730
     10 C9         15.8090   -3.8580   15.3910 C.ar      1 XM1         0.0500
     11 N10        16.9380   -3.2240   15.0320 N.ar      1 XM1        -0.2772
     12 N11        13.3700   -1.3760   16.3110 N.pl3     1 XM1        -0.2839
     13 C12        12.2780   -2.2660   16.7660 C.3       1 XM1         0.0534
     14 C13        10.9200   -1.5910   17.0790 C.3       1 XM1         0.0547
     15 N14        11.0580   -0.3670   17.8970 N.am      1 XM1        -0.2687
     16 C15        12.0910    0.5690   17.4010 C.3       1 XM1         0.0547
     17 C16        13.4420   -0.1430   17.1290 C.3       1 XM1         0.0534
     18 C17        10.4120   -0.2000   19.0820 C.2       1 XM1         0.1888
     19 O18         9.5460   -0.9950   19.4620 O.2       1 XM1        -0.3962
     20 C19        10.6560    1.0610   19.9540 C.3       1 XM1         0.0980
     21 C20         9.4130    1.9840   19.9870 C.3       1 XM1         0.0057
     22 C21        11.2650    0.7110   21.3290 C.3       1 XM1        -0.0136
     23 C22         9.1450    2.5140   18.5910 C.ar      1 XM1        -0.0401
     24 C23         8.3180    1.7790   17.7090 C.ar      1 XM1        -0.0596
     25 C24         8.0870    2.2690   16.4050 C.ar      1 XM1        -0.0546
     26 C25         8.6900    3.4840   15.9950 C.ar      1 XM1         0.0330
     27 C26         9.5240    4.2160   16.8740 C.ar      1 XM1        -0.0546
     28 C27         9.7520    3.7220   18.1760 C.ar      1 XM1        -0.0596
     29 H          15.1662    0.9942   15.7751 H         1 XM1         0.0311
     30 H          17.6931    1.2512   14.9344 H         1 XM1         0.0922
     31 H          12.5973   -0.5878   22.2100 H         1 XM1         0.1996
     32 H          11.7667   -1.2439   20.9230 H         1 XM1         0.1996
     33 H          13.0029   -0.1601   20.6513 H         1 XM1         0.1996
     34 H          18.6970   -1.1262   14.5145 H         1 XM1         0.2318
     35 H          15.8455   -4.9462   15.3406 H         1 XM1         0.0975
     36 H          12.6188   -2.7064   17.7030 H         1 XM1         0.0549
     37 H          12.0891   -2.9560   15.9436 H         1 XM1         0.0549
     38 H          10.3183   -2.3023   17.6447 H         1 XM1         0.0543
     39 H          10.4641   -1.3068   16.1306 H         1 XM1         0.0543
     40 H          12.2553    1.3294   18.1645 H         1 XM1         0.0543
     41 H          11.7384    0.9984   16.4633 H         1 XM1         0.0543
     42 H          14.0535    0.5630   16.5671 H         1 XM1         0.0549
     43 H          13.8328   -0.4421   18.1016 H         1 XM1         0.0549
     44 H          11.4273    1.6652   19.4764 H         1 XM1         0.0614
     45 H           9.5954    2.8177   20.6651 H         1 XM1         0.0456
     46 H           8.5482    1.4192   20.3352 H         1 XM1         0.0456
     47 H          11.7991    1.5915   21.6861 H         1 XM1         0.0843
     48 H          10.4478    0.4068   21.9830 H         1 XM1         0.0843
     49 H           7.8633    0.8429   18.0332 H         1 XM1         0.0557
     50 H           7.4479    1.7153   15.7171 H         1 XM1         0.0606
     51 H           9.9841    5.1492   16.5493 H         1 XM1         0.0606
     52 H          10.3963    4.2717   18.8622 H         1 XM1         0.0557
@<TRIPOS>BOND
     1    1    3 ar 
     2    1    9 ar 
     3   12    1 1  
     4   26    2 1  
     5    3    4 1  
     6    3    8 ar 
     7    4    5 2  
     8    7    5 1  
     9   22    6 1  
    10    8    7 1  
    11    8   11 ar 
    12    9   10 ar 
    13   10   11 ar 
    14   13   12 1  
    15   17   12 1  
    16   14   13 1  
    17   15   14 1  
    18   15   16 1  
    19   18   15 am 
    20   16   17 1  
    21   18   19 2  
    22   20   18 1  
    23   21   20 1  
    24   20   22 1  
    25   23   21 1  
    26   24   23 ar 
    27   23   28 ar 
    28   25   24 ar 
    29   25   26 ar 
    30   26   27 ar 
    31   27   28 ar 
    32    4   29 1  
    33    5   30 1  
    34    6   31 1  
    35    6   32 1  
    36    6   33 1  
    37    7   34 1  
    38   10   35 1  
    39   13   36 1  
    40   13   37 1  
    41   14   38 1  
    42   14   39 1  
    43   16   40 1  
    44   16   41 1  
    45   17   42 1  
    46   17   43 1  
    47   20   44 1  
    48   21   45 1  
    49   21   46 1  
    50   22   47 1  
    51   22   48 1  
    52   24   49 1  
    53   25   50 1  
    54   27   51 1  
    55   28   52 1  
@<TRIPOS>SUBSTRUCTURE
     1 XM1         1

