### 
### Created by X-TOOL on Mon Sep 10 21:13:04 2018
### 

@<TRIPOS>MOLECULE
3ocg_ligand
   48    51     1     0     0
SMALL
GAST_HUCK


@<TRIPOS>ATOM
      1 N1         35.4480   -4.7380   18.7640 N.pl3     1 OCG        -0.1369
      2 N2         36.1210   -5.6690   19.7740 N.2       1 OCG        -0.2215
      3 C3         36.5370   -4.9600   20.7330 C.2       1 OCG        -0.0033
      4 C4         36.2250   -3.6120   20.5010 C.2       1 OCG         0.0866
      5 C5         35.5530   -3.5020   19.2790 C.2       1 OCG         0.1961
      6 N6         35.1210   -2.3390   18.7790 N.pl3     1 OCG        -0.2997
      7 C7         36.5400   -2.5380   21.3690 C.2       1 OCG         0.1972
      8 O8         36.2700   -1.3560   21.1490 O.2       1 OCG        -0.3999
      9 N9         37.1970   -2.7530   22.5700 N.am      1 OCG        -0.2432
     10 C10        37.3890   -1.8110   23.5850 C.ar      1 OCG         0.0726
     11 C11        38.6800   -1.3320   23.9460 C.ar      1 OCG        -0.0194
     12 C12        38.8390   -0.3770   24.9790 C.ar      1 OCG        -0.0676
     13 C13        37.6860    0.0940   25.6470 C.ar      1 OCG        -0.0635
     14 C14        36.3860   -0.3610   25.3100 C.ar      1 OCG         0.0343
     15 C15        36.2510   -1.3160   24.2750 C.ar      1 OCG        -0.0276
     16 C16        35.3680    0.1490   26.0040 C.2       1 OCG         0.2202
     17 O17        34.2660   -0.3800   25.8770 O.2       1 OCG        -0.3783
     18 N18        35.5470    1.2030   26.8130 N.am      1 OCG        -0.2335
     19 C19        34.6850    1.6120   27.7560 C.2       1 OCG         0.1274
     20 N20        33.8340    0.9080   28.4810 N.2       1 OCG        -0.1522
     21 O21        33.0700    1.8300   29.4210 O.3       1 OCG        -0.1930
     22 C22        33.5180    2.9740   29.1820 C.2       1 OCG         0.1105
     23 C23        34.5030    2.9340   28.1830 C.2       1 OCG        -0.0076
     24 C24        39.9200   -1.8440   23.2250 C.3       1 OCG        -0.0328
     25 C25        34.8510   -5.0630   17.5670 C.ar      1 OCG         0.1115
     26 C26        33.4270   -4.8860   17.3990 C.ar      1 OCG        -0.0267
     27 C27        32.7860   -5.2110   16.1830 C.ar      1 OCG        -0.0665
     28 C28        33.5280   -5.7180   15.0960 C.ar      1 OCG        -0.0693
     29 C29        34.9260   -5.8980   15.2420 C.ar      1 OCG        -0.0665
     30 C30        35.5940   -5.5800   16.4520 C.ar      1 OCG        -0.0267
     31 H1         37.0602   -5.3388   21.6098 H         1 OCG         0.0650
     32 H2         35.2793   -1.4642   19.2992 H         1 OCG         0.1831
     33 H3         34.6301   -2.3182   17.8738 H         1 OCG         0.1831
     34 H4         37.5688   -3.6682   22.7253 H         1 OCG         0.2214
     35 H5         39.8237   -0.0149   25.2517 H         1 OCG         0.0526
     36 H6         37.7988    0.8243   26.4401 H         1 OCG         0.0524
     37 H7         35.2645   -1.6750   24.0048 H         1 OCG         0.0528
     38 H8         36.3919    1.7269   26.7046 H         1 OCG         0.2200
     39 H9         33.1867    3.8820   29.6838 H         1 OCG         0.1106
     40 H10        35.0430    3.7980   27.7987 H         1 OCG         0.0359
     41 H11        39.6227   -2.5739   22.4576 H         1 OCG         0.0372
     42 H12        40.5922   -2.3269   23.9495 H         1 OCG         0.0372
     43 H13        40.4406   -1.0010   22.7471 H         1 OCG         0.0372
     44 H14        32.8391   -4.4962   18.2221 H         1 OCG         0.0580
     45 H15        31.7158   -5.0697   16.0845 H         1 OCG         0.0598
     46 H16        33.0361   -5.9664   14.1625 H         1 OCG         0.0553
     47 H17        35.4988   -6.2883   14.4085 H         1 OCG         0.0598
     48 H18        36.6648   -5.7271   16.5352 H         1 OCG         0.0580
@<TRIPOS>BOND
     1    1    2 1  
     2    1    5 1  
     3    1   25 1  
     4    2    3 2  
     5    3    4 1  
     6    4    5 2  
     7    4    7 1  
     8    5    6 1  
     9    7    8 2  
    10    7    9 am 
    11    9   10 1  
    12   10   11 ar 
    13   10   15 ar 
    14   11   12 ar 
    15   11   24 1  
    16   12   13 ar 
    17   13   14 ar 
    18   14   15 ar 
    19   14   16 1  
    20   16   17 2  
    21   16   18 am 
    22   18   19 1  
    23   19   20 2  
    24   19   23 1  
    25   20   21 1  
    26   21   22 1  
    27   22   23 2  
    28   25   26 ar 
    29   25   30 ar 
    30   26   27 ar 
    31   27   28 ar 
    32   28   29 ar 
    33   29   30 ar 
    34    3   31 1  
    35    6   32 1  
    36    6   33 1  
    37    9   34 1  
    38   12   35 1  
    39   13   36 1  
    40   15   37 1  
    41   18   38 1  
    42   22   39 1  
    43   23   40 1  
    44   24   41 1  
    45   24   42 1  
    46   24   43 1  
    47   26   44 1  
    48   27   45 1  
    49   28   46 1  
    50   29   47 1  
    51   30   48 1  
@<TRIPOS>SUBSTRUCTURE
     1 OCG         1

