### 
### Created by X-TOOL on Mon Sep 10 21:13:03 2018
### 

@<TRIPOS>MOLECULE
3oct_ligand
   60    63     1     0     0
SMALL
GAST_HUCK


@<TRIPOS>ATOM
      1 C1         12.3660    4.7790   21.0800 C.2       1 1N1        -0.0104
      2 C2         12.5570    3.5380   20.4570 C.2       1 1N1         0.1128
      3 C3         12.7680    3.1630   19.0340 C.2       1 1N1         0.2261
      4 N6         10.9650    0.2510   30.7990 N.4       1 1N1         0.2397
      5 C7         13.4940    3.2730   14.0610 C.ar      1 1N1        -0.0834
      6 C8         14.6170    3.5190   14.8460 C.ar      1 1N1        -0.0735
      7 C9         14.4900    3.7930   16.2040 C.ar      1 1N1        -0.0235
      8 C10        15.7200    4.0740   17.0300 C.3       1 1N1        -0.0351
      9 C11        11.9930    1.9470   24.8060 C.ar      1 1N1         0.1348
     10 C12        11.8940    1.8040   26.1980 C.ar      1 1N1         0.0208
     11 C13        11.8550    0.5120   26.7620 C.ar      1 1N1         0.1091
     12 C14        12.0040   -0.3960   24.5970 C.ar      1 1N1         0.0703
     13 C15        12.0830   -1.5890   23.6830 C.3       1 1N1        -0.0028
     14 C16        11.8730   -0.9570   28.8140 C.3       1 1N1         0.0716
     15 C19        11.4920    1.5780   28.9230 C.3       1 1N1         0.0716
     16 C20        10.1000    0.4060   31.9940 C.3       1 1N1        -0.0080
     17 C21         9.7010    1.8770   32.2530 C.3       1 1N1         0.0841
     18 N          12.0390    3.1850   24.2340 N.pl3     1 1N1        -0.2165
     19 C          12.1750    3.4310   22.8960 C.2       1 1N1         0.2125
     20 N1         12.1810    4.6930   22.4250 N.2       1 1N1        -0.2981
     21 S          12.4740    2.2100   21.6350 S.3       1 1N1         0.0354
     22 N2         13.0420    4.1270   18.1500 N.am      1 1N1        -0.2384
     23 C4         13.2240    3.8270   16.7860 C.ar      1 1N1         0.0817
     24 C5         12.1070    3.5850   16.0010 C.ar      1 1N1         0.0531
     25 C6         12.2310    3.3030   14.6430 C.ar      1 1N1        -0.0685
     26 CL         10.4800    3.6230   16.7500 Cl        1 1N1        -0.0853
     27 O          12.6730    1.9960   18.7150 O.2       1 1N1        -0.3859
     28 N3         11.9120   -0.5630   25.9440 N.ar      1 1N1        -0.2701
     29 N4         12.0680    0.8340   24.0450 N.ar      1 1N1        -0.2662
     30 N5         11.7410    0.3540   28.1580 N.pl3     1 1N1        -0.2818
     31 C17        10.9480   -1.0190   30.0510 C.3       1 1N1        -0.0108
     32 C18        11.8690    1.3130   30.3720 C.3       1 1N1        -0.0108
     33 O1          8.2660    2.0640   32.4130 O.3       1 1N1        -0.3898
     34 H1         12.3657    5.7236   20.5381 H         1 1N1         0.0652
     35 H2         10.2350    0.6245   30.2128 H         1 1N1         0.2036
     36 H3         13.6030    3.0596   13.0038 H         1 1N1         0.0471
     37 H4         15.6019    3.4968   14.3938 H         1 1N1         0.0515
     38 H5         16.6140    3.9991   16.3935 H         1 1N1         0.0362
     39 H6         15.7888    3.3403   17.8466 H         1 1N1         0.0362
     40 H7         15.6544    5.0876   17.4523 H         1 1N1         0.0362
     41 H8         11.8478    2.6798   26.8352 H         1 1N1         0.0519
     42 H9         12.0174   -2.5118   24.2781 H         1 1N1         0.0460
     43 H10        13.0386   -1.5711   23.1385 H         1 1N1         0.0460
     44 H11        11.2508   -1.5562   22.9644 H         1 1N1         0.0460
     45 H12        12.9162   -1.1036   29.1305 H         1 1N1         0.0577
     46 H13        11.5896   -1.7498   28.1061 H         1 1N1         0.0577
     47 H14        10.4278    1.8486   28.8580 H         1 1N1         0.0577
     48 H15        12.1044    2.3993   28.5225 H         1 1N1         0.0577
     49 H16        10.6428    0.0283   32.8731 H         1 1N1         0.0837
     50 H17         9.1850   -0.1862   31.8457 H         1 1N1         0.0837
     51 H18        10.0398    2.4859   31.4019 H         1 1N1         0.0610
     52 H19        10.2022    2.2185   33.1707 H         1 1N1         0.0610
     53 H20        11.9654    3.9993   24.8604 H         1 1N1         0.2300
     54 H21        13.1189    5.0742   18.4612 H         1 1N1         0.2226
     55 H22        11.3492    3.1082   14.0434 H         1 1N1         0.0526
     56 H23         9.9198   -1.2252   29.7190 H         1 1N1         0.0835
     57 H24        11.2891   -1.8288   30.7127 H         1 1N1         0.0835
     58 H25        12.9163    0.9850   30.4470 H         1 1N1         0.0835
     59 H26        11.7230    2.2162   30.9826 H         1 1N1         0.0835
     60 H27         8.0830    2.9831   32.5687 H         1 1N1         0.2096
@<TRIPOS>BOND
     1    2    1 2  
     2    1   20 1  
     3    3    2 1  
     4    2   21 1  
     5   22    3 am 
     6    3   27 2  
     7    4   16 1  
     8   31    4 1  
     9   32    4 1  
    10    6    5 ar 
    11    5   25 ar 
    12    7    6 ar 
    13    7    8 1  
    14   23    7 ar 
    15    9   10 ar 
    16   18    9 1  
    17    9   29 ar 
    18   10   11 ar 
    19   11   28 ar 
    20   11   30 1  
    21   12   13 1  
    22   12   28 ar 
    23   29   12 ar 
    24   30   14 1  
    25   14   31 1  
    26   30   15 1  
    27   15   32 1  
    28   16   17 1  
    29   17   33 1  
    30   19   18 1  
    31   19   20 2  
    32   21   19 1  
    33   22   23 1  
    34   23   24 ar 
    35   24   25 ar 
    36   24   26 1  
    37    1   34 1  
    38    4   35 1  
    39    5   36 1  
    40    6   37 1  
    41    8   38 1  
    42    8   39 1  
    43    8   40 1  
    44   10   41 1  
    45   13   42 1  
    46   13   43 1  
    47   13   44 1  
    48   14   45 1  
    49   14   46 1  
    50   15   47 1  
    51   15   48 1  
    52   16   49 1  
    53   16   50 1  
    54   17   51 1  
    55   17   52 1  
    56   18   53 1  
    57   22   54 1  
    58   25   55 1  
    59   31   56 1  
    60   31   57 1  
    61   32   58 1  
    62   32   59 1  
    63   33   60 1  
@<TRIPOS>SUBSTRUCTURE
     1 1N1         1

