### 
### Created by X-TOOL on Mon Sep 10 21:13:04 2018
### 

@<TRIPOS>MOLECULE
3odk_ligand
   20    21     1     0     0
SMALL
GAST_HUCK


@<TRIPOS>ATOM
      1 C12        39.1820  -19.0240   11.8510 C.ar      1 ODK        -0.0279
      2 C14        39.4670  -20.1900   12.5360 C.ar      1 ODK        -0.0432
      3 C13        39.8350  -20.1000   13.8680 C.ar      1 ODK        -0.0355
      4 C11        39.9030  -18.8500   14.4760 C.ar      1 ODK         0.0086
      5 N8         39.6140  -17.7400   13.8070 N.ar      1 ODK        -0.2933
      6 C7         39.2690  -17.7990   12.5050 C.ar      1 ODK         0.0574
      7 C4         38.9520  -16.6370   11.8130 C.2       1 ODK         0.0626
      8 C2         39.3940  -15.3930   12.0350 C.2       1 ODK        -0.0212
      9 C1         38.7500  -14.6630   11.1170 C.2       1 ODK         0.1203
     10 C6         38.8770  -13.1520   10.8830 C.2       1 ODK         0.0929
     11 O10        38.7900  -12.6950    9.7400 O.co2     1 ODK        -0.5580
     12 O9         39.0780  -12.3840   11.8270 O.co2     1 ODK        -0.5580
     13 N5         37.9570  -15.4450   10.3890 N.pl3     1 ODK        -0.2049
     14 N3         38.0740  -16.6040   10.8070 N.2       1 ODK        -0.1990
     15 H          38.8900  -19.0639   10.8016 H         1 ODK         0.0706
     16 H          39.4036  -21.1582   12.0393 H         1 ODK         0.0732
     17 H          40.0694  -21.0006   14.4355 H         1 ODK         0.0697
     18 H          40.1995  -18.7807   15.5226 H         1 ODK         0.0823
     19 H          40.1087  -15.0551   12.7854 H         1 ODK         0.0421
     20 H          37.3577  -15.1424    9.6211 H         1 ODK         0.2613
@<TRIPOS>BOND
     1    1    2 ar 
     2    1    6 ar 
     3    2    3 ar 
     4    3    4 ar 
     5    4    5 ar 
     6    5    6 ar 
     7    6    7 1  
     8    7    8 1  
     9    7   14 2  
    10    8    9 2  
    11    9   10 1  
    12    9   13 1  
    13   10   11 ar 
    14   10   12 ar 
    15   13   14 1  
    16    1   15 1  
    17    2   16 1  
    18    3   17 1  
    19    4   18 1  
    20    8   19 1  
    21   13   20 1  
@<TRIPOS>SUBSTRUCTURE
     1 ODK         1

