### 
### Created by X-TOOL on Fri Sep 26 17:34:49 2014
### 

@<TRIPOS>MOLECULE
3odu_ligand
   62    65     1     0     0
SMALL
GAST_HUCK


@<TRIPOS>ATOM
      1 C1         16.2630   -6.2800   67.1020 C.3       1 ITD        -0.0335
      2 N1         17.9260   -7.9840   67.6150 N.pl3     1 ITD        -0.2360
      3 S1         18.8530   -9.8430   69.4940 S.3       1 ITD         0.1372
      4 C2         17.6610   -6.5460   67.6430 C.3       1 ITD         0.0790
      5 N2         18.2090   -7.3820   69.7010 N.2       1 ITD        -0.2644
      6 S2         20.2660   -6.1330   72.2410 S.3       1 ITD        -0.0047
      7 C3         18.7290   -5.8120   66.8360 C.3       1 ITD        -0.0335
      8 N3         20.7210   -8.1890   73.6900 N.2       1 ITD        -0.3615
      9 C4         18.2290   -8.3790   68.8590 C.2       1 ITD         0.2669
     10 N4         22.5090   -7.4970   72.3240 N.pl3     1 ITD        -0.2767
     11 C5         18.9810   -9.0930   71.0610 C.2       1 ITD         0.1310
     12 C6         17.7520   -6.1320   69.1200 C.3       1 ITD         0.0468
     13 C7         18.5880   -7.7370   70.9550 C.2       1 ITD         0.1201
     14 C8         18.6210   -6.7600   72.1050 C.3       1 ITD         0.0951
     15 C9         21.2550   -7.3690   72.7790 C.2       1 ITD         0.1609
     16 C10        21.3010   -9.3400   74.3660 C.3       1 ITD        -0.0126
     17 C11        22.1470   -9.0060   75.5860 C.3       1 ITD        -0.0471
     18 C12        22.2680  -10.2460   76.4700 C.3       1 ITD        -0.0526
     19 C13        22.8210  -11.4530   75.7100 C.3       1 ITD        -0.0530
     20 C14        22.1440  -11.6820   74.3500 C.3       1 ITD        -0.0526
     21 C15        21.9670  -10.4100   73.5160 C.3       1 ITD        -0.0471
     22 C16        22.9540   -7.4320   70.9310 C.3       1 ITD         0.0468
     23 C17        21.8950   -7.6050   69.8450 C.3       1 ITD        -0.0288
     24 C18        22.5520   -7.7520   68.4730 C.3       1 ITD        -0.0509
     25 C19        23.5120   -6.6030   68.1570 C.3       1 ITD        -0.0529
     26 C20        24.5160   -6.3620   69.2800 C.3       1 ITD        -0.0509
     27 C21        23.8280   -6.2180   70.6370 C.3       1 ITD        -0.0288
     28 H1         16.0616   -5.1988   67.1222 H         1 ITD         0.0260
     29 H2         15.5228   -6.8025   67.7258 H         1 ITD         0.0260
     30 H3         16.1944   -6.6464   66.0671 H         1 ITD         0.0260
     31 H4         17.8865   -8.5890   66.7823 H         1 ITD         0.2249
     32 H5         19.7214   -6.0297   67.2577 H         1 ITD         0.0260
     33 H6         18.5417   -4.7289   66.8796 H         1 ITD         0.0260
     34 H7         18.6935   -6.1485   65.7893 H         1 ITD         0.0260
     35 H8         23.2395   -7.6588   73.0318 H         1 ITD         0.1943
     36 H9         19.3100   -9.5870   71.9741 H         1 ITD         0.1642
     37 H10        16.7735   -5.8287   69.5206 H         1 ITD         0.0435
     38 H11        18.4785   -5.3204   69.2731 H         1 ITD         0.0435
     39 H12        17.9211   -5.9334   71.9128 H         1 ITD         0.0727
     40 H13        18.3379   -7.2709   73.0371 H         1 ITD         0.0727
     41 H14        20.4192   -9.8508   74.7800 H         1 ITD         0.0336
     42 H15        21.6686   -8.1947   76.1543 H         1 ITD         0.0270
     43 H16        23.1485   -8.6860   75.2625 H         1 ITD         0.0270
     44 H17        21.2714  -10.5005   76.8597 H         1 ITD         0.0265
     45 H18        22.9423  -10.0175   77.3085 H         1 ITD         0.0265
     46 H19        22.6740  -12.3511   76.3279 H         1 ITD         0.0265
     47 H20        23.8966  -11.2958   75.5416 H         1 ITD         0.0265
     48 H21        21.1503  -12.1189   74.5283 H         1 ITD         0.0265
     49 H22        22.7578  -12.3899   73.7737 H         1 ITD         0.0265
     50 H23        22.9509  -10.0518   73.1790 H         1 ITD         0.0270
     51 H24        21.3372  -10.6290   72.6412 H         1 ITD         0.0270
     52 H25        23.6143   -8.3045   70.8180 H         1 ITD         0.0569
     53 H26        21.2366   -6.7238   69.8381 H         1 ITD         0.0288
     54 H27        21.3005   -8.5053   70.0596 H         1 ITD         0.0288
     55 H28        21.7645   -7.7749   67.7054 H         1 ITD         0.0266
     56 H29        23.1138   -8.6974   68.4503 H         1 ITD         0.0266
     57 H30        22.9262   -5.6847   68.0032 H         1 ITD         0.0265
     58 H31        24.0627   -6.8452   67.2361 H         1 ITD         0.0265
     59 H32        25.0755   -5.4397   69.0652 H         1 ITD         0.0266
     60 H33        25.2128   -7.2121   69.3228 H         1 ITD         0.0266
     61 H34        24.5934   -6.1259   71.4216 H         1 ITD         0.0288
     62 H35        23.2002   -5.3148   70.6292 H         1 ITD         0.0288
@<TRIPOS>BOND
     1    4    1 1  
     2    4    2 1  
     3    9    2 1  
     4    3    9 1  
     5   11    3 1  
     6    4    7 1  
     7   12    4 1  
     8    5    9 2  
     9    5   12 1  
    10   13    5 1  
    11   14    6 1  
    12    6   15 1  
    13   15    8 2  
    14    8   16 1  
    15   15   10 1  
    16   10   22 1  
    17   13   11 2  
    18   13   14 1  
    19   16   17 1  
    20   16   21 1  
    21   17   18 1  
    22   18   19 1  
    23   19   20 1  
    24   20   21 1  
    25   22   23 1  
    26   22   27 1  
    27   23   24 1  
    28   24   25 1  
    29   25   26 1  
    30   26   27 1  
    31    1   28 1  
    32    1   29 1  
    33    1   30 1  
    34    2   31 1  
    35    7   32 1  
    36    7   33 1  
    37    7   34 1  
    38   10   35 1  
    39   11   36 1  
    40   12   37 1  
    41   12   38 1  
    42   14   39 1  
    43   14   40 1  
    44   16   41 1  
    45   17   42 1  
    46   17   43 1  
    47   18   44 1  
    48   18   45 1  
    49   19   46 1  
    50   19   47 1  
    51   20   48 1  
    52   20   49 1  
    53   21   50 1  
    54   21   51 1  
    55   22   52 1  
    56   23   53 1  
    57   23   54 1  
    58   24   55 1  
    59   24   56 1  
    60   25   57 1  
    61   25   58 1  
    62   26   59 1  
    63   26   60 1  
    64   27   61 1  
    65   27   62 1  
@<TRIPOS>SUBSTRUCTURE
     1 ITD         1

