### 
### Created by X-TOOL on Mon Sep 10 21:13:06 2018
### 

@<TRIPOS>MOLECULE
3oe4_ligand
   51    54     1     0     0
SMALL
GAST_HUCK


@<TRIPOS>ATOM
      1 C1         20.3680  -30.8330   13.2990 C.3       1 610         0.1189
      2 C2         19.0550  -31.5850   13.4000 C.3       1 610         0.1403
      3 C3         17.9480  -30.5060   13.4060 C.3       1 610         0.2040
      4 O4         18.5380  -29.4770   12.5630 O.3       1 610        -0.3295
      5 C5         19.9190  -29.6990   12.2860 C.3       1 610         0.1082
      6 C6         20.1120  -30.2180   10.9170 C.2       1 610        -0.0658
      7 N7         16.7500  -30.9170   12.7460 N.pl3     1 610        -0.1843
      8 O8         20.6790  -30.2280   14.5520 O.3       1 610        -0.3846
      9 O9         18.8960  -32.3840   14.5710 O.3       1 610        -0.3834
     10 C10        20.6060  -29.4750    9.9620 C.2       1 610        -0.0744
     11 C11        16.5960  -31.4860   11.4470 C.2       1 610         0.1181
     12 N12        15.3130  -31.5890   11.1080 N.2       1 610        -0.2894
     13 C13        20.8300  -29.9760    8.5590 C.3       1 610         0.0473
     14 N14        21.8230  -29.2160    7.8310 N.am      1 610        -0.2765
     15 C15        22.6290  -29.6950    6.8770 C.2       1 610         0.2411
     16 C16        23.6650  -28.8720    6.2440 C.ar      1 610         0.2482
     17 C17        23.7050  -27.4560    6.4640 C.ar      1 610         0.3921
     18 C18        24.7600  -26.7690    5.8440 C.ar      1 610         0.3797
     19 C19        25.7270  -27.3360    5.0710 C.ar      1 610         0.1691
     20 C20        25.6740  -28.7630    4.9300 C.ar      1 610         0.2168
     21 C21        24.6470  -29.4920    5.5110 C.ar      1 610         0.1162
     22 N22        26.6590  -29.3870    4.1400 N.2       1 610        -0.1404
     23 O23        22.7810  -26.7590    7.1430 O.3       1 610        -0.1763
     24 O24        24.8110  -25.4100    6.0640 O.3       1 610        -0.1825
     25 O25        22.5020  -30.8900    6.4760 O.2       1 610        -0.3823
     26 O26        27.4260  -28.7540    3.4750 O.2       1 610        -0.4541
     27 O27        26.6000  -30.6250    4.1570 O.2       1 610        -0.4541
     28 C28        15.4830  -30.7070   13.2050 C.ar      1 610         0.1772
     29 C29        14.5670  -31.1260   12.1690 C.ar      1 610         0.0862
     30 C30        13.2220  -30.9850   12.3980 C.ar      1 610         0.0294
     31 N31        12.7710  -30.4450   13.5460 N.ar      1 610        -0.2803
     32 C32        13.6800  -30.0480   14.4920 C.ar      1 610         0.0725
     33 N33        15.0100  -30.1620   14.3570 N.ar      1 610        -0.2493
     34 H1         21.2004  -31.4513   12.9318 H         1 610         0.0667
     35 H2         18.9502  -32.2352   12.5190 H         1 610         0.0678
     36 H3         17.7297  -30.1566   14.4259 H         1 610         0.0999
     37 H4         20.4998  -28.7760   12.4298 H         1 610         0.0749
     38 H5         19.8351  -31.2480   10.6972 H         1 610         0.0477
     39 H6         19.9101  -29.7814   14.8863 H         1 610         0.2102
     40 H7         18.9766  -31.8341   15.3415 H         1 610         0.2101
     41 H8         20.8685  -28.4434   10.1916 H         1 610         0.0470
     42 H9         17.4244  -31.7971   10.8122 H         1 610         0.1399
     43 H10        19.8773  -29.9197    8.0120 H         1 610         0.0643
     44 H11        21.1615  -31.0235    8.6112 H         1 610         0.0643
     45 H12        21.9148  -28.2472    8.0614 H         1 610         0.1867
     46 H13        26.4948  -26.7419    4.5886 H         1 610         0.1086
     47 H14        24.6190  -30.5682    5.3845 H         1 610         0.1563
     48 H15        22.3534  -26.1465    6.5560 H         1 610         0.3540
     49 H16        24.0816  -25.1520    6.6152 H         1 610         0.3497
     50 H17        12.5136  -31.3123   11.6456 H         1 610         0.0898
     51 H18        13.2994  -29.6135   15.4093 H         1 610         0.1044
@<TRIPOS>BOND
     1    1    2 1  
     2    1    5 1  
     3    1    8 1  
     4    2    3 1  
     5    2    9 1  
     6    3    4 1  
     7    3    7 1  
     8    4    5 1  
     9    5    6 1  
    10    6   10 2  
    11    7   11 1  
    12    7   28 1  
    13   10   13 1  
    14   11   12 2  
    15   12   29 1  
    16   13   14 1  
    17   14   15 am 
    18   15   16 1  
    19   15   25 2  
    20   16   17 ar 
    21   16   21 ar 
    22   17   18 ar 
    23   17   23 1  
    24   18   19 ar 
    25   18   24 1  
    26   19   20 ar 
    27   20   21 ar 
    28   20   22 1  
    29   22   26 2  
    30   22   27 2  
    31   28   29 ar 
    32   28   33 ar 
    33   29   30 ar 
    34   30   31 ar 
    35   31   32 ar 
    36   32   33 ar 
    37    1   34 1  
    38    2   35 1  
    39    3   36 1  
    40    5   37 1  
    41    6   38 1  
    42    8   39 1  
    43    9   40 1  
    44   10   41 1  
    45   11   42 1  
    46   13   43 1  
    47   13   44 1  
    48   14   45 1  
    49   19   46 1  
    50   21   47 1  
    51   23   48 1  
    52   24   49 1  
    53   30   50 1  
    54   32   51 1  
@<TRIPOS>SUBSTRUCTURE
     1 610         1

