### 
### Created by X-TOOL on Mon Sep 10 21:13:06 2018
### 

@<TRIPOS>MOLECULE
3oe5_ligand
   50    52     1     0     0
SMALL
GAST_HUCK


@<TRIPOS>ATOM
      1 C1         20.4640  -30.3290   13.3220 C.3       1 611         0.1170
      2 C2         19.3870  -31.4330   13.3300 C.3       1 611         0.1229
      3 C3         18.0680  -30.6670   13.2010 C.3       1 611         0.1499
      4 O4         18.4230  -29.4060   12.6160 O.3       1 611        -0.3460
      5 C5         19.7840  -29.4160   12.2560 C.3       1 611         0.1063
      6 C6         19.9180  -30.0030   10.9160 C.2       1 611        -0.0658
      7 S7         16.9500  -31.6140   12.1580 S.3       1 611        -0.0558
      8 O8         20.4770  -29.6200   14.5590 O.3       1 611        -0.3847
      9 O9         19.3800  -32.2120   14.5330 O.3       1 611        -0.3853
     10 C10        20.6800  -29.4420   10.0190 C.2       1 611        -0.0744
     11 C11        15.4090  -31.1400   12.5970 C.ar      1 611         0.0383
     12 C12        20.8460  -29.9740    8.6340 C.3       1 611         0.0473
     13 N13        21.7980  -29.2190    7.8600 N.am      1 611        -0.2765
     14 C14        22.6140  -29.7000    6.9040 C.2       1 611         0.2411
     15 C15        23.6680  -28.8490    6.2960 C.ar      1 611         0.2482
     16 C16        23.6930  -27.4400    6.5000 C.ar      1 611         0.3921
     17 C17        24.7670  -26.7260    5.9020 C.ar      1 611         0.3797
     18 C18        25.7430  -27.2900    5.1300 C.ar      1 611         0.1691
     19 C19        25.6930  -28.6920    4.9650 C.ar      1 611         0.2168
     20 C20        24.6620  -29.4660    5.5410 C.ar      1 611         0.1162
     21 N21        26.6930  -29.3600    4.1620 N.2       1 611        -0.1404
     22 O22        22.7820  -26.7460    7.1910 O.3       1 611        -0.1763
     23 O23        24.8120  -25.3570    6.0880 O.3       1 611        -0.1825
     24 O24        22.5040  -30.9010    6.5190 O.2       1 611        -0.3823
     25 O25        27.4960  -28.7420    3.5140 O.2       1 611        -0.4541
     26 O26        26.6580  -30.5820    4.1530 O.2       1 611        -0.4541
     27 C27        14.2350  -31.8840   12.1590 C.ar      1 611        -0.0217
     28 C28        12.9550  -31.4860   12.5640 C.ar      1 611         0.0039
     29 N29        12.6990  -30.3950   13.3610 N.ar      1 611        -0.3066
     30 C30        13.8140  -29.6770   13.7730 C.ar      1 611         0.0039
     31 C31        15.1190  -30.0170   13.4290 C.ar      1 611        -0.0217
     32 H1         21.4672  -30.6864   13.0465 H         1 611         0.0667
     33 H2         19.5320  -32.1056   12.4717 H         1 611         0.0659
     34 H3         17.6060  -30.5112   14.1871 H         1 611         0.0771
     35 H4         20.2114  -28.4025   12.2718 H         1 611         0.0748
     36 H5         19.3760  -30.9149   10.6697 H         1 611         0.0477
     37 H6         19.5850  -29.4193   14.8171 H         1 611         0.2102
     38 H7         19.2760  -31.6361   15.2813 H         1 611         0.2101
     39 H8         21.2232  -28.5391   10.2942 H         1 611         0.0470
     40 H9         19.8717  -29.9397    8.1245 H         1 611         0.0643
     41 H10        21.1908  -31.0167    8.6963 H         1 611         0.0643
     42 H11        21.8585  -28.2395    8.0523 H         1 611         0.1867
     43 H12        26.5182  -26.6906    4.6665 H         1 611         0.1086
     44 H13        24.6444  -30.5400    5.3955 H         1 611         0.1563
     45 H14        22.3675  -26.1116    6.6181 H         1 611         0.3540
     46 H15        24.0855  -25.0893    6.6385 H         1 611         0.3497
     47 H16        14.3531  -32.7493   11.5169 H         1 611         0.0660
     48 H17        12.1107  -32.0766   12.2272 H         1 611         0.0803
     49 H18        13.6595  -28.8039   14.3967 H         1 611         0.0803
     50 H19        15.9374  -29.4126   13.8031 H         1 611         0.0660
@<TRIPOS>BOND
     1    1    2 1  
     2    1    5 1  
     3    1    8 1  
     4    2    3 1  
     5    2    9 1  
     6    3    4 1  
     7    3    7 1  
     8    4    5 1  
     9    5    6 1  
    10    6   10 2  
    11    7   11 1  
    12   10   12 1  
    13   11   27 ar 
    14   11   31 ar 
    15   12   13 1  
    16   13   14 am 
    17   14   15 1  
    18   14   24 2  
    19   15   16 ar 
    20   15   20 ar 
    21   16   17 ar 
    22   16   22 1  
    23   17   18 ar 
    24   17   23 1  
    25   18   19 ar 
    26   19   20 ar 
    27   19   21 1  
    28   21   25 2  
    29   21   26 2  
    30   27   28 ar 
    31   28   29 ar 
    32   29   30 ar 
    33   30   31 ar 
    34    1   32 1  
    35    2   33 1  
    36    3   34 1  
    37    5   35 1  
    38    6   36 1  
    39    8   37 1  
    40    9   38 1  
    41   10   39 1  
    42   12   40 1  
    43   12   41 1  
    44   13   42 1  
    45   18   43 1  
    46   20   44 1  
    47   22   45 1  
    48   23   46 1  
    49   27   47 1  
    50   28   48 1  
    51   30   49 1  
    52   31   50 1  
@<TRIPOS>SUBSTRUCTURE
     1 611         1

