### 
### Created by X-TOOL on Mon Sep 10 21:13:04 2018
### 

@<TRIPOS>MOLECULE
3oe6_ligand
   62    65     1     0     0
SMALL
GAST_HUCK


@<TRIPOS>ATOM
      1 C1         13.7920   30.6020   69.1190 C.3       1 ITD        -0.0335
      2 N1         15.4380   28.8860   69.7020 N.pl3     1 ITD        -0.2360
      3 S1         16.0400   26.8940   71.5840 S.3       1 ITD         0.1372
      4 C2         15.1350   30.3160   69.7800 C.3       1 ITD         0.0790
      5 N2         15.4290   29.3590   71.8440 N.2       1 ITD        -0.2644
      6 S2         17.0500   30.5020   74.6250 S.3       1 ITD        -0.0047
      7 C3         16.2560   31.1020   69.1070 C.3       1 ITD        -0.0335
      8 N3         17.5210   28.4980   76.1390 N.2       1 ITD        -0.3615
      9 C4         15.6050   28.4240   70.9500 C.2       1 ITD         0.2669
     10 N4         19.3480   29.2780   74.8850 N.pl3     1 ITD        -0.2767
     11 C5         15.9610   27.5460   73.1930 C.2       1 ITD         0.1310
     12 C6         15.0790   30.6540   71.2810 C.3       1 ITD         0.0468
     13 C7         15.6010   28.9110   73.1130 C.2       1 ITD         0.1201
     14 C8         15.4650   29.8020   74.3200 C.3       1 ITD         0.0951
     15 C9         18.0600   29.3360   75.2480 C.2       1 ITD         0.1609
     16 C10        18.1750   27.4110   76.8490 C.3       1 ITD        -0.0126
     17 C11        19.1000   27.9120   77.9540 C.3       1 ITD        -0.0471
     18 C12        19.5320   26.7280   78.8170 C.3       1 ITD        -0.0526
     19 C13        20.2310   25.6580   77.9780 C.3       1 ITD        -0.0530
     20 C14        19.4090   25.2180   76.7640 C.3       1 ITD        -0.0526
     21 C15        18.8830   26.4000   75.9480 C.3       1 ITD        -0.0471
     22 C16        19.8810   29.3700   73.5250 C.3       1 ITD         0.0468
     23 C17        18.9180   28.9640   72.4090 C.3       1 ITD        -0.0288
     24 C18        19.5730   29.0850   71.0350 C.3       1 ITD        -0.0509
     25 C19        20.1580   30.4740   70.7900 C.3       1 ITD        -0.0529
     26 C20        21.1680   30.8250   71.8760 C.3       1 ITD        -0.0509
     27 C21        20.5260   30.7280   73.2570 C.3       1 ITD        -0.0288
     28 H          13.5689   31.6660   69.1979 H         1 ITD         0.0260
     29 H          13.8374   30.3159   68.0682 H         1 ITD         0.0260
     30 H          13.0124   30.0279   69.6198 H         1 ITD         0.0260
     31 H          15.5098   28.3358   68.8461 H         1 ITD         0.2249
     32 H          16.0723   32.1697   69.2272 H         1 ITD         0.0260
     33 H          17.2085   30.8416   69.5687 H         1 ITD         0.0260
     34 H          16.2854   30.8543   68.0459 H         1 ITD         0.0260
     35 H          20.0287   29.1570   75.6349 H         1 ITD         0.1943
     36 H          16.1567   26.9938   74.1122 H         1 ITD         0.1642
     37 H          14.1205   31.0480   71.6187 H         1 ITD         0.0435
     38 H          15.7356   31.4695   71.5841 H         1 ITD         0.0435
     39 H          14.7266   30.5835   74.1409 H         1 ITD         0.0727
     40 H          15.1230   29.2315   75.1835 H         1 ITD         0.0727
     41 H          17.3564   26.8635   77.3162 H         1 ITD         0.0336
     42 H          18.5750   28.6427   78.5693 H         1 ITD         0.0270
     43 H          19.9776   28.3841   77.5124 H         1 ITD         0.0270
     44 H          18.6451   26.2881   79.2731 H         1 ITD         0.0265
     45 H          20.2288   27.0859   79.5749 H         1 ITD         0.0265
     46 H          20.3805   24.7841   78.6121 H         1 ITD         0.0265
     47 H          21.1652   26.0824   77.6102 H         1 ITD         0.0265
     48 H          18.5503   24.6537   77.1278 H         1 ITD         0.0265
     49 H          20.0572   24.6267   76.1173 H         1 ITD         0.0265
     50 H          19.7247   26.8927   75.4613 H         1 ITD         0.0270
     51 H          18.1715   26.0285   75.2106 H         1 ITD         0.0270
     52 H          20.6587   28.6070   73.4926 H         1 ITD         0.0569
     53 H          18.0538   29.6275   72.4397 H         1 ITD         0.0288
     54 H          18.6281   27.9247   72.5635 H         1 ITD         0.0288
     55 H          18.8087   28.9027   70.2796 H         1 ITD         0.0266
     56 H          20.3873   28.3622   70.9845 H         1 ITD         0.0266
     57 H          19.3511   31.2066   70.8058 H         1 ITD         0.0265
     58 H          20.6602   30.4819   69.8226 H         1 ITD         0.0265
     59 H          21.5156   31.8460   71.7187 H         1 ITD         0.0266
     60 H          22.0013   30.1243   71.8236 H         1 ITD         0.0266
     61 H          21.3120   30.8729   73.9981 H         1 ITD         0.0288
     62 H          19.7418   31.4831   73.3110 H         1 ITD         0.0288
@<TRIPOS>BOND
     1    4    1 1  
     2    4    2 1  
     3    9    2 1  
     4    3    9 1  
     5   11    3 1  
     6    4    7 1  
     7   12    4 1  
     8    5    9 2  
     9    5   12 1  
    10   13    5 1  
    11   14    6 1  
    12    6   15 1  
    13   15    8 2  
    14    8   16 1  
    15   15   10 1  
    16   10   22 1  
    17   13   11 2  
    18   13   14 1  
    19   16   17 1  
    20   16   21 1  
    21   17   18 1  
    22   18   19 1  
    23   19   20 1  
    24   20   21 1  
    25   22   23 1  
    26   22   27 1  
    27   23   24 1  
    28   24   25 1  
    29   25   26 1  
    30   26   27 1  
    31    1   28 1  
    32    1   29 1  
    33    1   30 1  
    34    2   31 1  
    35    7   32 1  
    36    7   33 1  
    37    7   34 1  
    38   10   35 1  
    39   11   36 1  
    40   12   37 1  
    41   12   38 1  
    42   14   39 1  
    43   14   40 1  
    44   16   41 1  
    45   17   42 1  
    46   17   43 1  
    47   18   44 1  
    48   18   45 1  
    49   19   46 1  
    50   19   47 1  
    51   20   48 1  
    52   20   49 1  
    53   21   50 1  
    54   21   51 1  
    55   22   52 1  
    56   23   53 1  
    57   23   54 1  
    58   24   55 1  
    59   24   56 1  
    60   25   57 1  
    61   25   58 1  
    62   26   59 1  
    63   26   60 1  
    64   27   61 1  
    65   27   62 1  
@<TRIPOS>SUBSTRUCTURE
     1 ITD         1

