### 
### Created by X-TOOL on Sun Sep  9 21:51:23 2018
### 

@<TRIPOS>MOLECULE
3oe8_ligand
   62    65     1     0     0
SMALL
GAST_HUCK


@<TRIPOS>ATOM
      1 C1        -28.4030   -0.0800   23.0350 C.3       1 NON        -0.0335
      2 N1        -30.6410    0.8180   22.7810 N.pl3     1 NON        -0.2360
      3 S1        -32.9030    0.5340   21.1600 S.3       1 NON         0.1372
      4 C2        -29.2290    1.1000   22.5450 C.3       1 NON         0.0790
      5 N2        -30.4550    1.0100   20.6090 N.2       1 NON        -0.2644
      6 S2        -30.2720    2.9830   17.9270 S.3       1 NON        -0.0047
      7 C3        -28.8590    2.3960   23.2650 C.3       1 NON        -0.0335
      8 N3        -32.5320    2.8220   16.7830 N.2       1 NON        -0.3615
      9 C4        -31.2680    0.7780   21.6010 C.2       1 NON         0.2669
     10 N4        -32.1350    4.8330   17.9800 N.pl3     1 NON        -0.2767
     11 C5        -32.4700    0.7230   19.4860 C.2       1 NON         0.1310
     12 C6        -29.0790    1.2410   21.0200 C.3       1 NON         0.0468
     13 C7        -31.0810    0.9710   19.4040 C.2       1 NON         0.1201
     14 C8        -30.3680    1.2330   18.1040 C.3       1 NON         0.0951
     15 C9        -31.7730    3.6090   17.5580 C.2       1 NON         0.1609
     16 C10       -33.8540    3.0080   16.2050 C.3       1 NON        -0.0126
     17 C11       -33.8180    3.7500   14.8760 C.3       1 NON        -0.0471
     18 C12       -35.1480    3.5720   14.1490 C.3       1 NON        -0.0526
     19 C13       -36.3100    4.0640   15.0090 C.3       1 NON        -0.0530
     20 C14       -36.3300    3.3800   16.3760 C.3       1 NON        -0.0526
     21 C15       -34.9860    3.4890   17.1060 C.3       1 NON        -0.0471
     22 C16       -32.2160    5.3240   19.3630 C.3       1 NON         0.0468
     23 C17       -31.2600    4.6830   20.3710 C.3       1 NON        -0.0288
     24 C18       -31.4810    5.2140   21.7900 C.3       1 NON        -0.0509
     25 C19       -31.3770    6.7380   21.8770 C.3       1 NON        -0.0529
     26 C20       -32.2450    7.4090   20.8120 C.3       1 NON        -0.0509
     27 C21       -32.0100    6.8380   19.4110 C.3       1 NON        -0.0288
     28 H         -27.3462    0.1191   22.8572 H         1 NON         0.0260
     29 H         -28.5727   -0.2224   24.1023 H         1 NON         0.0260
     30 H         -28.7004   -0.9791   22.4954 H         1 NON         0.0260
     31 H         -31.0762    0.6755   23.6924 H         1 NON         0.2249
     32 H         -27.8232    2.6515   23.0413 H         1 NON         0.0260
     33 H         -29.5139    3.1984   22.9256 H         1 NON         0.0260
     34 H         -28.9768    2.2593   24.3400 H         1 NON         0.0260
     35 H         -32.3837    5.5025   17.2517 H         1 NON         0.1943
     36 H         -33.1557    0.6606   18.6410 H         1 NON         0.1642
     37 H         -28.3549    0.5594   20.5735 H         1 NON         0.0435
     38 H         -28.6657    2.1955   20.6943 H         1 NON         0.0435
     39 H         -29.3735    0.7869   18.1085 H         1 NON         0.0727
     40 H         -30.9058    0.7859   17.2679 H         1 NON         0.0727
     41 H         -34.1453    1.9727   16.0280 H         1 NON         0.0336
     42 H         -33.0137    3.3477   14.2601 H         1 NON         0.0270
     43 H         -33.6466    4.8106   15.0597 H         1 NON         0.0270
     44 H         -35.2926    2.5125   13.9377 H         1 NON         0.0265
     45 H         -35.1238    4.1532   13.2272 H         1 NON         0.0265
     46 H         -37.2418    3.8302   14.4940 H         1 NON         0.0265
     47 H         -36.1934    5.1367   15.1631 H         1 NON         0.0265
     48 H         -36.5436    2.3226   16.2201 H         1 NON         0.0265
     49 H         -37.0861    3.8723   16.9876 H         1 NON         0.0265
     50 H         -34.8097    4.5309   17.3734 H         1 NON         0.0270
     51 H         -35.0161    2.8685   18.0016 H         1 NON         0.0270
     52 H         -33.2196    5.0316   19.6718 H         1 NON         0.0569
     53 H         -30.2395    4.9230   20.0727 H         1 NON         0.0288
     54 H         -31.4421    3.6083   20.3773 H         1 NON         0.0288
     55 H         -30.7064    4.7900   22.4290 H         1 NON         0.0266
     56 H         -32.4870    4.9303   22.0992 H         1 NON         0.0266
     57 H         -30.3387    7.0272   21.7146 H         1 NON         0.0265
     58 H         -31.7224    7.0562   22.8606 H         1 NON         0.0265
     59 H         -31.9872    8.4678   20.7890 H         1 NON         0.0266
     60 H         -33.2889    7.2350   21.0732 H         1 NON         0.0266
     61 H         -32.7267    7.2997   18.7318 H         1 NON         0.0288
     62 H         -30.9791    7.0493   19.1270 H         1 NON         0.0288
@<TRIPOS>BOND
     1    4    1 1  
     2    4    2 1  
     3    9    2 1  
     4    3    9 1  
     5   11    3 1  
     6    4    7 1  
     7   12    4 1  
     8    5    9 2  
     9    5   12 1  
    10   13    5 1  
    11   14    6 1  
    12    6   15 1  
    13   15    8 2  
    14    8   16 1  
    15   15   10 1  
    16   10   22 1  
    17   13   11 2  
    18   13   14 1  
    19   16   17 1  
    20   16   21 1  
    21   17   18 1  
    22   18   19 1  
    23   19   20 1  
    24   20   21 1  
    25   22   23 1  
    26   22   27 1  
    27   23   24 1  
    28   24   25 1  
    29   25   26 1  
    30   26   27 1  
    31    1   28 1  
    32    1   29 1  
    33    1   30 1  
    34    2   31 1  
    35    7   32 1  
    36    7   33 1  
    37    7   34 1  
    38   10   35 1  
    39   11   36 1  
    40   12   37 1  
    41   12   38 1  
    42   14   39 1  
    43   14   40 1  
    44   16   41 1  
    45   17   42 1  
    46   17   43 1  
    47   18   44 1  
    48   18   45 1  
    49   19   46 1  
    50   19   47 1  
    51   20   48 1  
    52   20   49 1  
    53   21   50 1  
    54   21   51 1  
    55   22   52 1  
    56   23   53 1  
    57   23   54 1  
    58   24   55 1  
    59   24   56 1  
    60   25   57 1  
    61   25   58 1  
    62   26   59 1  
    63   26   60 1  
    64   27   61 1  
    65   27   62 1  
@<TRIPOS>SUBSTRUCTURE
     1 NON         1

