### 
### Created by X-TOOL on Mon Sep 10 21:13:04 2018
### 

@<TRIPOS>MOLECULE
3oe9_ligand
   62    65     1     0     0
SMALL
GAST_HUCK


@<TRIPOS>ATOM
      1 C1         15.4470    3.7400   25.0570 C.3       1 ITD        -0.0335
      2 N1         17.8200    3.5740   25.5060 N.pl3     1 ITD        -0.2360
      3 S1         19.8440    2.5750   27.2060 S.3       1 ITD         0.1372
      4 C2         16.6390    4.4110   25.7180 C.3       1 ITD         0.0790
      5 N2         17.6740    3.8620   27.6490 N.2       1 ITD        -0.2644
      6 S2         18.0640    5.8780   30.1620 S.3       1 ITD        -0.0047
      7 C3         16.8760    5.8240   25.2110 C.3       1 ITD        -0.0335
      8 N3         19.8390    5.1220   31.6620 N.2       1 ITD        -0.3615
      9 C4         18.3950    3.3540   26.6930 C.2       1 ITD         0.2669
     10 N4         20.6590    6.5190   29.9210 N.pl3     1 ITD        -0.2767
     11 C5         19.4500    2.9640   28.8520 C.2       1 ITD         0.1310
     12 C6         16.4470    4.5190   27.2270 C.3       1 ITD         0.0468
     13 C7         18.2190    3.6700   28.8670 C.2       1 ITD         0.1201
     14 C8         17.5260    4.1960   30.0940 C.3       1 ITD         0.0951
     15 C9         19.6620    5.8710   30.5760 C.2       1 ITD         0.1609
     16 C10        21.0200    4.7950   32.3930 C.3       1 ITD        -0.0126
     17 C11        21.6780    6.0250   33.0100 C.3       1 ITD        -0.0471
     18 C12        22.8820    5.6050   33.8660 C.3       1 ITD        -0.0526
     19 C13        23.8390    4.6660   33.1050 C.3       1 ITD        -0.0530
     20 C14        23.1340    3.4560   32.4840 C.3       1 ITD        -0.0526
     21 C15        21.9820    3.9110   31.5880 C.3       1 ITD        -0.0471
     22 C16        20.7760    7.1080   28.5660 C.3       1 ITD         0.0468
     23 C17        19.9820    6.4790   27.4020 C.3       1 ITD        -0.0288
     24 C18        20.0200    7.2670   26.0770 C.3       1 ITD        -0.0509
     25 C19        20.0080    8.7960   26.2050 C.3       1 ITD        -0.0529
     26 C20        21.0450    9.2870   27.2120 C.3       1 ITD        -0.0509
     27 C21        20.8000    8.6470   28.5810 C.3       1 ITD        -0.0288
     28 H          14.5471    4.3215   25.2574 H         1 ITD         0.0260
     29 H          15.6133    3.6847   23.9812 H         1 ITD         0.0260
     30 H          15.3284    2.7341   25.4598 H         1 ITD         0.0260
     31 H          18.1482    3.2194   24.6077 H         1 ITD         0.2249
     32 H          16.0125    6.4444   25.4510 H         1 ITD         0.0260
     33 H          17.7649    6.2358   25.6889 H         1 ITD         0.0260
     34 H          17.0200    5.8017   24.1308 H         1 ITD         0.0260
     35 H          21.5064    6.6223   30.4792 H         1 ITD         0.1943
     36 H          20.0479    2.7087   29.7269 H         1 ITD         0.1642
     37 H          15.5280    4.0758   27.6105 H         1 ITD         0.0435
     38 H          16.3092    5.5317   27.6057 H         1 ITD         0.0435
     39 H          16.4415    4.1007   30.0408 H         1 ITD         0.0727
     40 H          17.7765    3.6351   30.9944 H         1 ITD         0.0727
     41 H          20.7116    4.1804   33.2387 H         1 ITD         0.0336
     42 H          20.9532    6.5406   33.6401 H         1 ITD         0.0270
     43 H          22.0185    6.6864   32.2133 H         1 ITD         0.0270
     44 H          22.5072    5.0716   34.7395 H         1 ITD         0.0265
     45 H          23.4347    6.5043   34.1380 H         1 ITD         0.0265
     46 H          24.5699    4.2899   33.8208 H         1 ITD         0.0265
     47 H          24.2864    5.2392   32.2930 H         1 ITD         0.0265
     48 H          22.7363    2.8292   33.2821 H         1 ITD         0.0265
     49 H          23.8515    2.8975   31.8829 H         1 ITD         0.0265
     50 H          22.3801    4.4809   30.7485 H         1 ITD         0.0270
     51 H          21.4458    3.0376   31.2169 H         1 ITD         0.0270
     52 H          21.7711    6.7726   28.2739 H         1 ITD         0.0569
     53 H          18.9389    6.4475   27.7167 H         1 ITD         0.0288
     54 H          20.4374    5.5092   27.2016 H         1 ITD         0.0288
     55 H          19.1141    6.9976   25.5339 H         1 ITD         0.0266
     56 H          20.9613    7.0072   25.5926 H         1 ITD         0.0266
     57 H          19.0212    9.1037   26.5508 H         1 ITD         0.0265
     58 H          20.2459    9.2238   25.2311 H         1 ITD         0.0265
     59 H          20.9652   10.3700   27.3059 H         1 ITD         0.0266
     60 H          22.0396    9.0102   26.8624 H         1 ITD         0.0266
     61 H          21.6238    8.9485   29.2279 H         1 ITD         0.0288
     62 H          19.8187    8.9797   28.9194 H         1 ITD         0.0288
@<TRIPOS>BOND
     1    4    1 1  
     2    4    2 1  
     3    9    2 1  
     4    3    9 1  
     5   11    3 1  
     6    4    7 1  
     7   12    4 1  
     8    5    9 2  
     9    5   12 1  
    10   13    5 1  
    11   14    6 1  
    12    6   15 1  
    13   15    8 2  
    14    8   16 1  
    15   15   10 1  
    16   10   22 1  
    17   13   11 2  
    18   13   14 1  
    19   16   17 1  
    20   16   21 1  
    21   17   18 1  
    22   18   19 1  
    23   19   20 1  
    24   20   21 1  
    25   22   23 1  
    26   22   27 1  
    27   23   24 1  
    28   24   25 1  
    29   25   26 1  
    30   26   27 1  
    31    1   28 1  
    32    1   29 1  
    33    1   30 1  
    34    2   31 1  
    35    7   32 1  
    36    7   33 1  
    37    7   34 1  
    38   10   35 1  
    39   11   36 1  
    40   12   37 1  
    41   12   38 1  
    42   14   39 1  
    43   14   40 1  
    44   16   41 1  
    45   17   42 1  
    46   17   43 1  
    47   18   44 1  
    48   18   45 1  
    49   19   46 1  
    50   19   47 1  
    51   20   48 1  
    52   20   49 1  
    53   21   50 1  
    54   21   51 1  
    55   22   52 1  
    56   23   53 1  
    57   23   54 1  
    58   24   55 1  
    59   24   56 1  
    60   25   57 1  
    61   25   58 1  
    62   26   59 1  
    63   26   60 1  
    64   27   61 1  
    65   27   62 1  
@<TRIPOS>SUBSTRUCTURE
     1 ITD         1

