### 
### Created by X-TOOL on Mon Sep 10 21:13:07 2018
### 

@<TRIPOS>MOLECULE
3oeu_ligand
   75    77     1     0     0
SMALL
GAST_HUCK


@<TRIPOS>ATOM
      1 C28        11.6420 -136.8850   21.3510 C.2       1 OEU         0.1801
      2 C38        15.8950 -134.3790   23.1400 C.3       1 OEU        -0.0336
      3 C33        15.0850 -134.8660   24.3600 C.ar      1 OEU        -0.0439
      4 C34        15.4280 -134.4140   25.6330 C.ar      1 OEU        -0.0671
      5 C35        14.7070 -134.8440   26.7490 C.ar      1 OEU        -0.0755
      6 C37        13.6410 -135.7280   26.6050 C.ar      1 OEU        -0.0755
      7 C36        13.2950 -136.1820   25.3350 C.ar      1 OEU        -0.0667
      8 C32        14.0080 -135.7540   24.2040 C.ar      1 OEU        -0.0391
      9 C31        13.5660 -136.3080   22.8430 C.3       1 OEU        -0.0047
     10 C9         12.0650 -136.1630   22.6240 C.3       1 OEU         0.0460
     11 O29        12.2270 -137.8970   20.9610 O.2       1 OEU        -0.3968
     12 N19        10.6200 -136.3220   20.7230 N.am      1 OEU        -0.2631
     13 C18        10.0650 -136.8820   19.4920 C.3       1 OEU         0.1564
     14 C16        10.9800 -136.6220   18.2780 C.2       1 OEU         0.2065
     15 O17        11.6230 -135.5800   18.1430 O.2       1 OEU        -0.3943
     16 C20         8.6930 -136.2370   19.3180 C.3       1 OEU         0.0924
     17 O21         7.8760 -136.6100   20.4320 O.3       1 OEU        -0.3874
     18 C39         8.0210 -136.6450   18.0120 C.3       1 OEU        -0.0346
     19 N14        10.9810 -137.6020   17.3870 N.am      1 OEU        -0.2635
     20 C12        11.7250 -137.5160   16.1250 C.3       1 OEU         0.1327
     21 C10        10.7370 -137.2090   14.9860 C.2       1 OEU         0.2037
     22 O11         9.6140 -137.7090   14.9600 O.2       1 OEU        -0.3944
     23 C13        12.4420 -138.8260   15.8370 C.3       1 OEU        -0.0027
     24 C15        13.3350 -139.2240   17.0020 C.3       1 OEU        -0.0149
     25 C22        14.5300 -138.2850   17.1670 C.ar      1 OEU        -0.0428
     26 C23        15.4900 -138.1750   16.1520 C.ar      1 OEU        -0.0603
     27 C24        14.6630 -137.5560   18.3500 C.ar      1 OEU        -0.0603
     28 C25        16.5890 -137.3240   16.3180 C.ar      1 OEU        -0.0686
     29 C27        15.7570 -136.7080   18.5080 C.ar      1 OEU        -0.0686
     30 C26        16.7160 -136.5920   17.4990 C.ar      1 OEU        -0.0687
     31 C4          8.3780 -132.1880   13.4660 C.ar      1 OEU        -0.0682
     32 C5          9.6910 -132.1930   13.0070 C.ar      1 OEU        -0.0545
     33 C6         10.3600 -133.4030   12.8240 C.ar      1 OEU         0.0431
     34 C8         10.3610 -135.9930   12.9150 C.3       1 OEU         0.0651
     35 N30        11.1830 -136.3650   14.0650 N.am      1 OEU        -0.2736
     36 C1          9.7210 -134.6160   13.0990 C.ar      1 OEU        -0.0069
     37 C2          8.4090 -134.5980   13.5540 C.ar      1 OEU        -0.0578
     38 C3          7.7420 -133.3920   13.7450 C.ar      1 OEU        -0.0683
     39 CL7        12.0000 -133.3740   12.2580 Cl        1 OEU        -0.0771
     40 H          16.3424 -135.2362   22.6369 H         1 OEU         0.0376
     41 H          15.2320 -133.8566   22.4503 H         1 OEU         0.0376
     42 H          16.6807 -133.7014   23.4741 H         1 OEU         0.0376
     43 H          16.2615 -133.7228   25.7579 H         1 OEU         0.0537
     44 H          14.9810 -134.4846   27.7409 H         1 OEU         0.0541
     45 H          13.0820 -136.0619   27.4792 H         1 OEU         0.0541
     46 H          12.4628 -136.8762   25.2179 H         1 OEU         0.0537
     47 H          13.8128 -137.3692   22.8119 H         1 OEU         0.0436
     48 H          14.0789 -135.7440   22.0639 H         1 OEU         0.0436
     49 H          11.5385 -136.6007   23.4721 H         1 OEU         0.0523
     50 H          11.8205 -135.1049   22.5301 H         1 OEU         0.0523
     51 H          10.2084 -135.4728   21.1100 H         1 OEU         0.1884
     52 H           9.9828 -137.9669   19.5578 H         1 OEU         0.0826
     53 H           8.8212 -135.1553   19.2773 H         1 OEU         0.0639
     54 H           7.0076 -136.2118   20.3380 H         1 OEU         0.2101
     55 H           8.6460 -136.3402   17.1726 H         1 OEU         0.0257
     56 H           7.8898 -137.7269   17.9949 H         1 OEU         0.0257
     57 H           7.0484 -136.1586   17.9379 H         1 OEU         0.0257
     58 H          10.4453 -138.4471   17.5852 H         1 OEU         0.1883
     59 H          12.4700 -136.7240   16.2015 H         1 OEU         0.0801
     60 H          13.0608 -138.6988   14.9488 H         1 OEU         0.0334
     61 H          11.6970 -139.6068   15.6839 H         1 OEU         0.0334
     62 H          13.7175 -140.2259   16.8070 H         1 OEU         0.0428
     63 H          12.7404 -139.1769   17.9143 H         1 OEU         0.0428
     64 H          15.3810 -138.7519   15.2336 H         1 OEU         0.0557
     65 H          13.9192 -137.6492   19.1413 H         1 OEU         0.0557
     66 H          17.3386 -137.2340   15.5318 H         1 OEU         0.0599
     67 H          15.8655 -136.1306   19.4261 H         1 OEU         0.0599
     68 H          17.5681 -135.9260   17.6350 H         1 OEU         0.0559
     69 H           7.8504 -131.2445   13.6062 H         1 OEU         0.0559
     70 H          10.1967 -131.2520   12.7905 H         1 OEU         0.0605
     71 H           9.5652 -136.7302   12.8088 H         1 OEU         0.0685
     72 H          10.9999 -135.9597   12.0325 H         1 OEU         0.0685
     73 H          12.1176 -135.9679   14.1611 H         1 OEU         0.1879
     74 H           7.8971 -135.5373   13.7634 H         1 OEU         0.0557
     75 H           6.7167 -133.3914   14.1149 H         1 OEU         0.0601
@<TRIPOS>BOND
     1    1   10 1  
     2    1   11 2  
     3   12    1 am 
     4    3    2 1  
     5    3    4 ar 
     6    8    3 ar 
     7    4    5 ar 
     8    6    5 ar 
     9    7    6 ar 
    10    8    7 ar 
    11    9    8 1  
    12   10    9 1  
    13   13   12 1  
    14   14   13 1  
    15   13   16 1  
    16   14   15 2  
    17   19   14 am 
    18   16   17 1  
    19   16   18 1  
    20   20   19 1  
    21   21   20 1  
    22   20   23 1  
    23   21   22 2  
    24   35   21 am 
    25   23   24 1  
    26   24   25 1  
    27   25   26 ar 
    28   25   27 ar 
    29   26   28 ar 
    30   27   29 ar 
    31   28   30 ar 
    32   29   30 ar 
    33   32   31 ar 
    34   31   38 ar 
    35   33   32 ar 
    36   36   33 ar 
    37   33   39 1  
    38   34   35 1  
    39   34   36 1  
    40   36   37 ar 
    41   37   38 ar 
    42    2   40 1  
    43    2   41 1  
    44    2   42 1  
    45    4   43 1  
    46    5   44 1  
    47    6   45 1  
    48    7   46 1  
    49    9   47 1  
    50    9   48 1  
    51   10   49 1  
    52   10   50 1  
    53   12   51 1  
    54   13   52 1  
    55   16   53 1  
    56   17   54 1  
    57   18   55 1  
    58   18   56 1  
    59   18   57 1  
    60   19   58 1  
    61   20   59 1  
    62   23   60 1  
    63   23   61 1  
    64   24   62 1  
    65   24   63 1  
    66   26   64 1  
    67   27   65 1  
    68   28   66 1  
    69   29   67 1  
    70   30   68 1  
    71   31   69 1  
    72   32   70 1  
    73   34   71 1  
    74   34   72 1  
    75   35   73 1  
    76   37   74 1  
    77   38   75 1  
@<TRIPOS>SUBSTRUCTURE
     1 OEU         1

