### 
### Created by X-TOOL on Mon Sep 10 21:13:07 2018
### 

@<TRIPOS>MOLECULE
3oev_ligand
   80    83     1     0     0
SMALL
GAST_HUCK


@<TRIPOS>ATOM
      1 C8         11.8700 -137.3600   22.8030 C.ar      1 3OE         0.0386
      2 C27        11.2630 -137.8010   21.4620 C.2       1 3OE         0.1991
      3 O28        11.5440 -138.9120   21.0040 O.2       1 3OE        -0.3896
      4 C34        11.9500 -136.0040   23.1270 C.ar      1 3OE        -0.0504
      5 C33        12.5120 -135.6200   24.3430 C.ar      1 3OE        -0.0267
      6 C30        12.3590 -138.3250   23.6990 C.ar      1 3OE        -0.0504
      7 C31        12.9240 -137.9350   24.9160 C.ar      1 3OE        -0.0267
      8 C32        12.9940 -136.5770   25.2420 C.ar      1 3OE         0.0994
      9 O35        13.5440 -136.1300   26.4090 O.3       1 3OE        -0.3020
     10 C36        13.3750 -136.9300   27.5890 C.3       1 3OE         0.1056
     11 C37        14.3500 -136.8070   28.5710 C.ar      1 3OE        -0.0126
     12 C38        14.3020 -135.7340   29.4610 C.ar      1 3OE        -0.0578
     13 C39        15.2830 -135.6020   30.4430 C.ar      1 3OE        -0.0685
     14 C40        16.3170 -136.5360   30.5270 C.ar      1 3OE        -0.0687
     15 C41        16.3720 -137.6080   29.6350 C.ar      1 3OE        -0.0685
     16 C42        15.3870 -137.7410   28.6530 C.ar      1 3OE        -0.0578
     17 N18        10.4800 -136.9000   20.8520 N.am      1 3OE        -0.2642
     18 C17         9.8050 -137.1480   19.5580 C.3       1 3OE         0.1558
     19 C15        10.7730 -136.9240   18.3760 C.2       1 3OE         0.2064
     20 O16        11.4700 -135.9110   18.2990 O.2       1 3OE        -0.3943
     21 C19         8.5460 -136.2620   19.4740 C.3       1 3OE         0.0923
     22 O20         7.6470 -136.6540   20.5110 O.3       1 3OE        -0.3874
     23 C43         7.8300 -136.3400   18.1220 C.3       1 3OE        -0.0346
     24 N13        10.7940 -137.9210   17.4850 N.am      1 3OE        -0.2635
     25 C11        11.6200 -137.9040   16.2610 C.3       1 3OE         0.1327
     26 C9         10.6910 -137.6750   15.0590 C.2       1 3OE         0.2036
     27 O10         9.6810 -138.3630   14.9150 O.2       1 3OE        -0.3944
     28 C12        12.3610 -139.2350   16.0740 C.3       1 3OE        -0.0027
     29 C14        13.2530 -139.6080   17.2610 C.3       1 3OE        -0.0149
     30 C21        14.4130 -138.6280   17.4530 C.ar      1 3OE        -0.0428
     31 C22        15.3920 -138.4860   16.4640 C.ar      1 3OE        -0.0603
     32 C23        14.4890 -137.8790   18.6310 C.ar      1 3OE        -0.0603
     33 C24        16.4490 -137.5880   16.6480 C.ar      1 3OE        -0.0686
     34 C26        15.5430 -136.9820   18.8130 C.ar      1 3OE        -0.0686
     35 C25        16.5210 -136.8370   17.8230 C.ar      1 3OE        -0.0687
     36 C4          8.2110 -132.9110   13.6400 C.2       1 3OE        -0.0219
     37 C5          9.4040 -132.6120   13.1090 C.2       1 3OE        -0.0875
     38 C6         10.1950 -133.6770   12.8610 C.2       1 3OE        -0.0657
     39 C7         11.5900 -133.5300   12.2740 C.3       1 3OE        -0.0502
     40 S3          8.1300 -134.6030   13.8090 S.3       1 3OE        -0.0533
     41 C1          9.6590 -134.9260   13.1890 C.2       1 3OE         0.0294
     42 C2         10.2540 -136.3410   13.0450 C.3       1 3OE         0.0695
     43 N29        11.0460 -136.6930   14.2320 N.am      1 3OE        -0.2742
     44 H          11.5754 -135.2511   22.4335 H         1 3OE         0.0642
     45 H          12.5767 -134.5618   24.5964 H         1 3OE         0.0557
     46 H          12.2974 -139.3829   23.4437 H         1 3OE         0.0642
     47 H          13.3080 -138.6851   25.6074 H         1 3OE         0.0557
     48 H          13.4129 -137.9673   27.2565 H         1 3OE         0.0781
     49 H          12.4438 -136.5966   28.0470 H         1 3OE         0.0781
     50 H          13.4992 -135.0002   29.3889 H         1 3OE         0.0557
     51 H          15.2425 -134.7693   31.1452 H         1 3OE         0.0599
     52 H          17.0850 -136.4276   31.2928 H         1 3OE         0.0559
     53 H          17.1790 -138.3375   29.7041 H         1 3OE         0.0599
     54 H          15.4271 -138.5734   27.9505 H         1 3OE         0.0557
     55 H          10.3420 -135.9957   21.3033 H         1 3OE         0.1874
     56 H           9.4922 -138.1902   19.4944 H         1 3OE         0.0826
     57 H           8.8686 -135.2274   19.5907 H         1 3OE         0.0639
     58 H           6.8571 -136.1099   20.4708 H         1 3OE         0.2101
     59 H           8.5094 -136.0167   17.3333 H         1 3OE         0.0257
     60 H           7.5183 -137.3678   17.9361 H         1 3OE         0.0257
     61 H           6.9546 -135.6908   18.1379 H         1 3OE         0.0257
     62 H          10.2079 -138.7372   17.6603 H         1 3OE         0.1883
     63 H          12.3617 -137.1095   16.3431 H         1 3OE         0.0801
     64 H          13.0041 -139.1324   15.1999 H         1 3OE         0.0334
     65 H          11.6091 -140.0173   15.9702 H         1 3OE         0.0334
     66 H          13.6745 -140.5945   17.0681 H         1 3OE         0.0428
     67 H          12.6405 -139.5849   18.1623 H         1 3OE         0.0428
     68 H          15.3313 -139.0755   15.5492 H         1 3OE         0.0557
     69 H          13.7289 -137.9949   19.4036 H         1 3OE         0.0557
     70 H          17.2123 -137.4752   15.8781 H         1 3OE         0.0599
     71 H          15.6042 -136.3933   19.7283 H         1 3OE         0.0599
     72 H          17.3421 -136.1353   17.9695 H         1 3OE         0.0559
     73 H           7.4325 -132.1992   13.9144 H         1 3OE         0.0599
     74 H           9.7118 -131.5887   12.8941 H         1 3OE         0.0360
     75 H          12.3216 -133.9345   12.9735 H         1 3OE         0.0312
     76 H          11.6458 -134.0755   11.3320 H         1 3OE         0.0312
     77 H          11.7991 -132.4749   12.0973 H         1 3OE         0.0312
     78 H          10.9020 -136.3640   12.1688 H         1 3OE         0.0678
     79 H           9.4393 -137.0574   12.9391 H         1 3OE         0.0678
     80 H          11.8973 -136.1669   14.4294 H         1 3OE         0.1878
@<TRIPOS>BOND
     1    2    1 1  
     2    1    4 ar 
     3    1    6 ar 
     4    2    3 2  
     5   17    2 am 
     6    4    5 ar 
     7    5    8 ar 
     8    6    7 ar 
     9    7    8 ar 
    10    8    9 1  
    11    9   10 1  
    12   10   11 1  
    13   11   12 ar 
    14   11   16 ar 
    15   12   13 ar 
    16   13   14 ar 
    17   15   14 ar 
    18   16   15 ar 
    19   18   17 1  
    20   19   18 1  
    21   18   21 1  
    22   19   20 2  
    23   24   19 am 
    24   21   22 1  
    25   21   23 1  
    26   25   24 1  
    27   26   25 1  
    28   25   28 1  
    29   26   27 2  
    30   43   26 am 
    31   28   29 1  
    32   29   30 1  
    33   30   31 ar 
    34   30   32 ar 
    35   31   33 ar 
    36   32   34 ar 
    37   33   35 ar 
    38   34   35 ar 
    39   36   37 2  
    40   40   36 1  
    41   38   37 1  
    42   38   39 1  
    43   41   38 2  
    44   41   40 1  
    45   42   41 1  
    46   42   43 1  
    47    4   44 1  
    48    5   45 1  
    49    6   46 1  
    50    7   47 1  
    51   10   48 1  
    52   10   49 1  
    53   12   50 1  
    54   13   51 1  
    55   14   52 1  
    56   15   53 1  
    57   16   54 1  
    58   17   55 1  
    59   18   56 1  
    60   21   57 1  
    61   22   58 1  
    62   23   59 1  
    63   23   60 1  
    64   23   61 1  
    65   24   62 1  
    66   25   63 1  
    67   28   64 1  
    68   28   65 1  
    69   29   66 1  
    70   29   67 1  
    71   31   68 1  
    72   32   69 1  
    73   33   70 1  
    74   34   71 1  
    75   35   72 1  
    76   36   73 1  
    77   37   74 1  
    78   39   75 1  
    79   39   76 1  
    80   39   77 1  
    81   42   78 1  
    82   42   79 1  
    83   43   80 1  
@<TRIPOS>SUBSTRUCTURE
     1 3OE         1

