### 
### Created by X-TOOL on Mon Sep 10 21:13:03 2018
### 

@<TRIPOS>MOLECULE
3of8_ligand
   75    77     1     0     0
SMALL
GAST_HUCK


@<TRIPOS>ATOM
      1 C1         29.7440    7.2640    2.7920 C.2       1 I0Y         0.3240
      2 O1         29.0320    6.3230    3.2300 O.2       1 I0Y        -0.3773
      3 O2         31.0110    7.2620    2.9150 O.3       1 I0Y        -0.2505
      4 C2         31.7700    6.1040    2.9920 C.3       1 I0Y         0.1113
      5 C3         32.7450    5.9770    1.8510 C.ar      1 I0Y        -0.0130
      6 C8         34.0910    6.2750    2.0400 C.ar      1 I0Y        -0.0578
      7 C7         34.9670    6.1740    0.9560 C.ar      1 I0Y        -0.0685
      8 C6         34.4850    5.7990   -0.3050 C.ar      1 I0Y        -0.0687
      9 C5         33.1280    5.5220   -0.4900 C.ar      1 I0Y        -0.0685
     10 C4         32.2550    5.6130    0.5940 C.ar      1 I0Y        -0.0578
     11 N1         29.1060    8.5020    2.4730 N.am      1 I0Y        -0.2393
     12 C9         27.8040    8.4900    3.2750 C.3       1 I0Y         0.1423
     13 C10        26.6160    7.8170    2.4500 C.2       1 I0Y         0.2061
     14 O3         26.5740    7.6560    1.2410 O.2       1 I0Y        -0.3942
     15 C11        27.3530    9.7980    4.1020 C.3       1 I0Y         0.0214
     16 C12        28.3070   10.9650    4.1130 C.ar      1 I0Y        -0.0386
     17 C13        28.4660   11.6270    2.9180 C.ar      1 I0Y        -0.0601
     18 C14        29.0100   11.3510    5.2420 C.ar      1 I0Y        -0.0601
     19 C15        29.3420   12.6940    2.8370 C.ar      1 I0Y        -0.0686
     20 C16        29.8850   12.4310    5.1610 C.ar      1 I0Y        -0.0686
     21 C17        30.0510   13.0960    3.9580 C.ar      1 I0Y        -0.0687
     22 N2         25.5160    7.5410    3.3300 N.am      1 I0Y        -0.2630
     23 O4         22.4050    7.6110    3.7610 O.2       1 I0Y        -0.3865
     24 O5         19.0540    3.8460    4.0430 O.3       1 I0Y        -0.3169
     25 O6         21.4570    7.9950    1.5490 O.3       1 I0Y        -0.3756
     26 C18        24.4250    5.5500    4.1360 C.3       1 I0Y         0.0153
     27 C19        24.4730    6.5980    3.0110 C.3       1 I0Y         0.1253
     28 C20        23.2170    7.4300    2.8550 C.2       1 I0Y         0.1574
     29 C21        22.8360    7.9570    1.6550 C.3       1 I0Y         0.1196
     30 C23        23.0570    5.0010    4.3120 C.ar      1 I0Y        -0.0492
     31 C24        20.4140    4.2320    4.2280 C.ar      1 I0Y         0.0847
     32 C25        17.9670    5.9730    4.1120 C.3       1 I0Y        -0.0322
     33 C26        18.1400    4.6960    3.3320 C.3       1 I0Y         0.0821
     34 C28        22.3540    4.9160    5.5220 C.ar      1 I0Y        -0.0685
     35 C27        22.4760    4.7370    3.0990 C.ar      1 I0Y        -0.0685
     36 C30        21.0050    4.5170    5.4790 C.ar      1 I0Y        -0.0395
     37 C29        21.1510    4.3450    3.0630 C.ar      1 I0Y        -0.0395
     38 C32        18.6100    5.0490    1.9450 C.3       1 I0Y        -0.0322
     39 C33        16.7890    4.0160    3.1420 C.3       1 I0Y        -0.0322
     40 H          31.0904    5.2529    2.9501 H         1 I0Y         0.0776
     41 H          32.3406    6.1368    3.9201 H         1 I0Y         0.0776
     42 H          34.4568    6.5828    3.0196 H         1 I0Y         0.0557
     43 H          36.0273    6.3873    1.0917 H         1 I0Y         0.0599
     44 H          35.1730    5.7229   -1.1470 H         1 I0Y         0.0559
     45 H          32.7546    5.2371   -1.4736 H         1 I0Y         0.0599
     46 H          31.1941    5.4009    0.4611 H         1 I0Y         0.0557
     47 H          29.4446    9.2332    1.8477 H         1 I0Y         0.1901
     48 H          28.0800    7.8562    4.1178 H         1 I0Y         0.0823
     49 H          27.2641    9.4772    5.1399 H         1 I0Y         0.0474
     50 H          26.4471   10.1594    3.6154 H         1 I0Y         0.0474
     51 H          27.9041   11.3121    2.0387 H         1 I0Y         0.0557
     52 H          28.8799   10.8158    6.1826 H         1 I0Y         0.0557
     53 H          29.4749   13.2191    1.8911 H         1 I0Y         0.0599
     54 H          30.4385   12.7525    6.0433 H         1 I0Y         0.0599
     55 H          30.7407   13.9375    3.8924 H         1 I0Y         0.0559
     56 H          25.4701    8.0344    4.2215 H         1 I0Y         0.1885
     57 H          21.0979    8.5389    2.2539 H         1 I0Y         0.2130
     58 H          24.7264    6.0298    5.0672 H         1 I0Y         0.0453
     59 H          25.0940    4.7307    3.8728 H         1 I0Y         0.0453
     60 H          24.6214    6.0327    2.0910 H         1 I0Y         0.0813
     61 H          23.2218    8.9737    1.5799 H         1 I0Y         0.0793
     62 H          23.2323    7.3313    0.8553 H         1 I0Y         0.0793
     63 H          17.5687    5.7426    5.1001 H         1 I0Y         0.0261
     64 H          18.9326    6.4683    4.2145 H         1 I0Y         0.0261
     65 H          17.2750    6.6289    3.5838 H         1 I0Y         0.0261
     66 H          22.8385    5.1523    6.4694 H         1 I0Y         0.0530
     67 H          23.0497    4.8346    2.1774 H         1 I0Y         0.0530
     68 H          20.4248    4.4292    6.3975 H         1 I0Y         0.0525
     69 H          20.6813    4.1222    2.1050 H         1 I0Y         0.0525
     70 H          19.5641    5.5723    2.0083 H         1 I0Y         0.0261
     71 H          18.7325    4.1368    1.3611 H         1 I0Y         0.0261
     72 H          17.8723    5.6925    1.4656 H         1 I0Y         0.0261
     73 H          16.9235    3.0961    2.5730 H         1 I0Y         0.0261
     74 H          16.3609    3.7825    4.1168 H         1 I0Y         0.0261
     75 H          16.1199    4.6849    2.6008 H         1 I0Y         0.0261
@<TRIPOS>BOND
     1    1    2 2  
     2    1    3 1  
     3   11    1 am 
     4    3    4 1  
     5    4    5 1  
     6    5    6 ar 
     7    5   10 ar 
     8    6    7 ar 
     9    7    8 ar 
    10    9    8 ar 
    11   10    9 ar 
    12   12   11 1  
    13   13   12 1  
    14   12   15 1  
    15   13   14 2  
    16   22   13 am 
    17   15   16 1  
    18   16   17 ar 
    19   16   18 ar 
    20   17   19 ar 
    21   18   20 ar 
    22   19   21 ar 
    23   20   21 ar 
    24   27   22 1  
    25   28   23 2  
    26   31   24 1  
    27   24   33 1  
    28   29   25 1  
    29   26   27 1  
    30   30   26 1  
    31   27   28 1  
    32   28   29 1  
    33   34   30 ar 
    34   30   35 ar 
    35   36   31 ar 
    36   31   37 ar 
    37   33   32 1  
    38   33   38 1  
    39   33   39 1  
    40   34   36 ar 
    41   35   37 ar 
    42    4   40 1  
    43    4   41 1  
    44    6   42 1  
    45    7   43 1  
    46    8   44 1  
    47    9   45 1  
    48   10   46 1  
    49   11   47 1  
    50   12   48 1  
    51   15   49 1  
    52   15   50 1  
    53   17   51 1  
    54   18   52 1  
    55   19   53 1  
    56   20   54 1  
    57   21   55 1  
    58   22   56 1  
    59   25   57 1  
    60   26   58 1  
    61   26   59 1  
    62   27   60 1  
    63   29   61 1  
    64   29   62 1  
    65   32   63 1  
    66   32   64 1  
    67   32   65 1  
    68   34   66 1  
    69   35   67 1  
    70   36   68 1  
    71   37   69 1  
    72   38   70 1  
    73   38   71 1  
    74   38   72 1  
    75   39   73 1  
    76   39   74 1  
    77   39   75 1  
@<TRIPOS>SUBSTRUCTURE
     1 I0Y         1

