### 
### Created by X-TOOL on Mon Sep 10 21:13:04 2018
### 

@<TRIPOS>MOLECULE
3og7_ligand
   51    54     1     0     0
SMALL
GAST_HUCK


@<TRIPOS>ATOM
      1 C10         9.4540   -4.1760  -21.7350 C.ar      1 032         0.0398
      2 C15         1.9340   -1.2310  -18.3570 C.2       1 032         0.0541
      3 C17         1.5160   -2.3160  -20.5970 C.2       1 032         0.1307
      4 C20        -0.8450   -3.0530  -20.4180 C.ar      1 032         0.1647
      5 C21        -2.2070   -2.7780  -20.3740 C.ar      1 032         0.0978
      6 C22        -2.6580   -1.4610  -20.4690 C.ar      1 032        -0.0439
      7 C24        -0.3870   -0.7200  -20.6490 C.ar      1 032         0.1310
      8 C01         6.1300   -2.5620  -19.5770 C.ar      1 032        -0.0058
      9 C02         6.3090   -1.9530  -18.3330 C.ar      1 032         0.0036
     10 N03         5.3540   -1.3930  -17.5580 N.ar      1 032        -0.2829
     11 C04         4.8250   -2.6070  -20.0890 C.ar      1 032        -0.0455
     12 N14         2.9990   -0.9880  -17.5350 N.pl3     1 032        -0.2548
     13 C16         2.3650   -1.8860  -19.4910 C.2       1 032         0.0416
     14 C05         3.7810   -2.0440  -19.3350 C.ar      1 032         0.0185
     15 C06         4.1330   -1.4740  -18.1140 C.ar      1 032         0.1421
     16 C07         7.2690   -3.1240  -20.3170 C.ar      1 032        -0.0185
     17 C18         0.0730   -2.0290  -20.5490 C.ar      1 032         0.0791
     18 C23        -1.7420   -0.4200  -20.6080 C.ar      1 032        -0.0421
     19 F25         0.4770    0.2870  -20.7820 F         1 032        -0.1929
     20 F26        -0.4260   -4.3170  -20.3250 F         1 032        -0.1907
     21 N27        -3.1160   -3.8770  -20.2300 N.am      1 032        -0.1922
     22 S28        -4.8030   -3.5710  -20.1630 S.o2      1 032         0.0588
     23 O29        -5.5100   -4.8280  -20.0310 O.2       1 032        -0.1502
     24 O30        -5.2060   -2.5980  -21.1570 O.2       1 032        -0.1502
     25 C31        -4.9970   -2.7740  -18.5710 C.3       1 032         0.0894
     26 C32        -5.0160   -3.7200  -17.3780 C.3       1 032        -0.0342
     27 C33        -4.2770   -3.0960  -16.2050 C.3       1 032        -0.0637
     28 C08         7.1460   -4.3190  -21.0470 C.ar      1 032        -0.0546
     29 C09         8.2320   -4.8460  -21.7510 C.ar      1 032        -0.0480
     30 C11         9.6030   -2.9860  -21.0240 C.ar      1 032        -0.0480
     31 C12         8.5140   -2.4650  -20.3230 C.ar      1 032        -0.0546
     32 CL13       10.7950   -4.8200  -22.6010 Cl        1 032        -0.0710
     33 O19         1.9420   -2.8980  -21.5920 O.2       1 032        -0.3914
     34 H1          0.9028   -0.9501  -18.1480 H         1 032         0.1099
     35 H2         -3.7203   -1.2477  -20.4347 H         1 032         0.0496
     36 H3          7.3220   -1.9267  -17.9480 H         1 032         0.0760
     37 H4          4.6251   -3.0680  -21.0495 H         1 032         0.0676
     38 H5          2.9518   -0.5128  -16.6224 H         1 032         0.2362
     39 H6         -2.0817    0.6067  -20.6829 H         1 032         0.0539
     40 H7         -2.7701   -4.8133  -20.1692 H         1 032         0.2130
     41 H8         -5.9458   -2.2176  -18.5809 H         1 032         0.0523
     42 H9         -4.1613   -2.0715  -18.4366 H         1 032         0.0523
     43 H10        -4.5264   -4.6652  -17.6552 H         1 032         0.0279
     44 H11        -6.0582   -3.9184  -17.0874 H         1 032         0.0279
     45 H12        -4.2969   -3.7872  -15.3495 H         1 032         0.0230
     46 H13        -4.7656   -2.1513  -15.9244 H         1 032         0.0230
     47 H14        -3.2338   -2.8981  -16.4922 H         1 032         0.0230
     48 H15         6.1951   -4.8391  -21.0641 H         1 032         0.0617
     49 H16         8.1246   -5.7707  -22.3064 H         1 032         0.0621
     50 H17        10.5562   -2.4698  -21.0156 H         1 032         0.0621
     51 H18         8.6284   -1.5374  -19.7739 H         1 032         0.0617
@<TRIPOS>BOND
     1   29    1 ar 
     2    1   30 ar 
     3    1   32 1  
     4   12    2 1  
     5   13    2 2  
     6   13    3 1  
     7    3   17 1  
     8    3   33 2  
     9    4    5 ar 
    10   17    4 ar 
    11    4   20 1  
    12    5    6 ar 
    13    5   21 1  
    14   18    6 ar 
    15   17    7 ar 
    16    7   18 ar 
    17    7   19 1  
    18    8    9 ar 
    19    8   11 ar 
    20   16    8 1  
    21    9   10 ar 
    22   10   15 ar 
    23   11   14 ar 
    24   15   12 1  
    25   14   13 1  
    26   14   15 ar 
    27   28   16 ar 
    28   16   31 ar 
    29   21   22 am 
    30   22   23 2  
    31   22   24 2  
    32   22   25 1  
    33   25   26 1  
    34   26   27 1  
    35   28   29 ar 
    36   30   31 ar 
    37    2   34 1  
    38    6   35 1  
    39    9   36 1  
    40   11   37 1  
    41   12   38 1  
    42   18   39 1  
    43   21   40 1  
    44   25   41 1  
    45   25   42 1  
    46   26   43 1  
    47   26   44 1  
    48   27   45 1  
    49   27   46 1  
    50   27   47 1  
    51   28   48 1  
    52   29   49 1  
    53   30   50 1  
    54   31   51 1  
@<TRIPOS>SUBSTRUCTURE
     1 032         1

