### 
### Created by X-TOOL on Mon Sep 10 21:13:04 2018
### 

@<TRIPOS>MOLECULE
3ogm_ligand
   49    51     1     0     0
SMALL
GAST_HUCK


@<TRIPOS>ATOM
      1 C01        -3.5790    7.3310   43.6610 C.3       1 OGK        -0.0650
      2 C02        -2.3670    6.5560   44.2080 C.3       1 OGK        -0.0528
      3 C03        -2.3270    6.2740   45.7250 C.3       1 OGK        -0.0366
      4 C04        -1.5730    4.9860   45.9360 C.3       1 OGK        -0.0298
      5 C05        -0.6310    4.8770   47.1230 C.3       1 OGK         0.0541
      6 C06         0.1380    3.5490   47.3190 C.2       1 OGK         0.1793
      7 O07        -0.3280    2.5840   46.8120 O.2       1 OGK        -0.3969
      8 N08         1.1990    3.4440   48.3600 N.am      1 OGK        -0.2771
      9 C09         1.9040    2.1520   48.6640 C.3       1 OGK         0.1010
     10 C10         1.2620    1.3440   49.1640 C.2       1 OGK         0.0734
     11 O11         0.3850    1.6720   49.9290 O.co2     1 OGK        -0.5454
     12 O12         1.2300    0.0320   48.5950 O.co2     1 OGK        -0.5454
     13 C13         2.7350    1.7870   47.7620 C.3       1 OGK        -0.0172
     14 C14         3.2120    2.3740   48.8360 C.3       1 OGK        -0.0086
     15 C15         3.4470    1.5000   50.0800 C.3       1 OGK        -0.0512
     16 C16         4.7470    1.8000   50.8270 C.3       1 OGK        -0.0650
     17 C17        -0.7500    5.8430   48.3270 C.3       1 OGK        -0.0006
     18 C18         0.6420    6.1770   48.5190 C.3       1 OGK        -0.0296
     19 C19         0.6800    7.6060   49.0960 C.3       1 OGK         0.0219
     20 C20        -0.6550    8.2010   48.7260 C.2       1 OGK         0.1084
     21 O21        -1.0520    9.2600   49.0820 O.2       1 OGK        -0.3913
     22 C22        -1.4630    7.1330   48.0240 C.3       1 OGK         0.0380
     23 C23        -1.6220    7.4140   46.4730 C.3       1 OGK        -0.0309
     24 H          -4.4914    6.7745   43.8755 H         1 OGK         0.0230
     25 H          -3.6282    8.3098   44.1381 H         1 OGK         0.0230
     26 H          -3.4727    7.4556   42.5834 H         1 OGK         0.0230
     27 H          -1.5003    7.1845   44.0035 H         1 OGK         0.0265
     28 H          -2.4036    5.5778   43.7286 H         1 OGK         0.0265
     29 H          -3.3431    6.1969   46.1119 H         1 OGK         0.0304
     30 H          -0.9349    4.8846   45.0581 H         1 OGK         0.0295
     31 H          -2.3417    4.2342   46.1148 H         1 OGK         0.0295
     32 H           0.1317    5.4981   46.6532 H         1 OGK         0.0542
     33 H           1.4562    4.2795   48.8855 H         1 OGK         0.1845
     34 H           2.8390    1.8886   46.6817 H         1 OGK         0.0285
     35 H           2.9431    0.8874   47.1827 H         1 OGK         0.0285
     36 H           3.9825    3.1398   48.9252 H         1 OGK         0.0318
     37 H           3.5059    0.4667   49.7382 H         1 OGK         0.0265
     38 H           2.6279    1.7002   50.7707 H         1 OGK         0.0265
     39 H           5.5936    1.6383   50.1597 H         1 OGK         0.0230
     40 H           4.7405    2.8369   51.1630 H         1 OGK         0.0230
     41 H           4.8304    1.1379   51.6889 H         1 OGK         0.0230
     42 H          -1.3019    5.3906   49.1509 H         1 OGK         0.0357
     43 H           1.1873    6.1243   47.5767 H         1 OGK         0.0296
     44 H           1.1203    5.4713   49.1982 H         1 OGK         0.0296
     45 H           1.5104    8.1861   48.6935 H         1 OGK         0.0494
     46 H           0.8416    7.6061   50.1740 H         1 OGK         0.0494
     47 H          -2.4930    7.1030   48.3795 H         1 OGK         0.0534
     48 H          -2.2302    8.3114   46.3592 H         1 OGK         0.0296
     49 H          -0.6226    7.5195   46.0509 H         1 OGK         0.0296
@<TRIPOS>BOND
     1    1    2 1  
     2    2    3 1  
     3    3    4 1  
     4    3   23 1  
     5    4    5 1  
     6    5    6 1  
     7    5   17 1  
     8    6    7 2  
     9    6    8 am 
    10    8    9 1  
    11    9   10 1  
    12    9   13 1  
    13    9   14 1  
    14   10   11 ar 
    15   10   12 ar 
    16   13   14 1  
    17   14   15 1  
    18   15   16 1  
    19   17   18 1  
    20   17   22 1  
    21   18   19 1  
    22   19   20 1  
    23   20   21 2  
    24   20   22 1  
    25   22   23 1  
    26    1   24 1  
    27    1   25 1  
    28    1   26 1  
    29    2   27 1  
    30    2   28 1  
    31    3   29 1  
    32    4   30 1  
    33    4   31 1  
    34    5   32 1  
    35    8   33 1  
    36   13   34 1  
    37   13   35 1  
    38   14   36 1  
    39   15   37 1  
    40   15   38 1  
    41   16   39 1  
    42   16   40 1  
    43   16   41 1  
    44   17   42 1  
    45   18   43 1  
    46   18   44 1  
    47   19   45 1  
    48   19   46 1  
    49   22   47 1  
    50   23   48 1  
    51   23   49 1  
@<TRIPOS>SUBSTRUCTURE
     1 OGK         1

