### 
### Created by X-TOOL on Mon Sep 10 21:13:03 2018
### 

@<TRIPOS>MOLECULE
3ogx_ligand
   50    51     1     0     0
SMALL
GAST_HUCK


@<TRIPOS>ATOM
      1 C1        -17.7750  -20.0250  -22.9800 C.3       1 H1S         0.1182
      2 C2        -19.1990  -19.4920  -23.0300 C.3       1 H1S         0.1157
      3 O3        -16.8150  -19.0170  -23.3170 O.3       1 H1S        -0.3366
      4 C4        -17.4570  -20.6270  -21.6150 C.3       1 H1S         0.1080
      5 O5        -20.0680  -20.6030  -22.7900 O.3       1 H1S        -0.3413
      6 C6        -19.5660  -18.8170  -24.3600 C.3       1 H1S         0.1025
      7 C7        -15.9740  -19.4750  -24.3940 C.3       1 H1S         0.2100
      8 C8        -18.5960  -21.4990  -21.0630 C.3       1 H1S         0.1136
      9 O9        -16.3080  -21.4820  -21.7930 O.3       1 H1S        -0.3871
     10 C10       -20.0190  -21.0410  -21.4180 C.3       1 H1S         0.1788
     11 O11       -20.8040  -18.0850  -24.1210 O.3       1 H1S        -0.2631
     12 C12       -16.0610  -18.5080  -25.5760 C.3       1 H1S         0.1709
     13 O13       -14.6150  -19.6840  -23.9610 O.3       1 H1S        -0.2948
     14 N14       -18.4660  -21.7140  -19.6280 N.am      1 H1S        -0.2705
     15 O15       -20.4730  -20.0110  -20.5090 O.3       1 H1S        -0.3654
     16 S16       -21.4060  -17.0490  -25.1460 S.o2      1 H1S        -0.0736
     17 C17       -14.7390  -18.3660  -26.3170 C.3       1 H1S         0.1080
     18 O18       -17.0770  -18.9430  -26.4960 O.3       1 H1S        -0.2525
     19 C19       -13.6940  -20.1360  -25.0140 C.2       1 H1S         0.1115
     20 S20       -17.0310  -21.5910  -18.8920 S.o2      1 H1S        -0.1197
     21 O21       -22.4170  -17.6950  -26.0570 O.co2     1 H1S        -0.4611
     22 O22       -22.0560  -15.9370  -24.3910 O.co2     1 H1S        -0.4611
     23 O23       -20.3090  -16.4150  -25.9420 O.co2     1 H1S        -0.4611
     24 C24       -13.9510  -19.6610  -26.2340 C.2       1 H1S        -0.0270
     25 O25       -14.0100  -17.2740  -25.7380 O.3       1 H1S        -0.3803
     26 S26       -16.7150  -19.8270  -27.7220 S.o2      1 H1S        -0.0731
     27 C27       -12.5300  -21.0270  -24.7610 C.2       1 H1S         0.0810
     28 O28       -16.4900  -20.2310  -19.1290 O.co2     1 H1S        -0.4676
     29 O29       -17.1750  -21.7200  -17.4140 O.co2     1 H1S        -0.4676
     30 O30       -16.0820  -22.5800  -19.5020 O.co2     1 H1S        -0.4676
     31 O31       -16.0710  -18.7640  -28.5440 O.co2     1 H1S        -0.4611
     32 O32       -15.9940  -21.0940  -28.0190 O.co2     1 H1S        -0.4611
     33 O33       -18.1410  -19.8840  -28.1170 O.co2     1 H1S        -0.4611
     34 O34       -12.3930  -21.6170  -23.6590 O.co2     1 H1S        -0.5623
     35 O35       -11.6640  -21.1930  -25.6510 O.co2     1 H1S        -0.5623
     36 H         -17.7065  -20.8136  -23.7294 H         1 H1S         0.0650
     37 H         -19.3008  -18.7122  -22.2753 H         1 H1S         0.0648
     38 H         -17.2933  -19.8105  -20.9117 H         1 H1S         0.0641
     39 H         -19.6943  -19.5554  -25.1515 H         1 H1S         0.0610
     40 H         -18.7726  -18.1469  -24.6910 H         1 H1S         0.0610
     41 H         -16.3390  -20.4469  -24.7260 H         1 H1S         0.0991
     42 H         -18.4693  -22.4476  -21.5847 H         1 H1S         0.0587
     43 H         -16.0608  -21.8640  -20.9477 H         1 H1S         0.2100
     44 H         -20.6995  -21.8855  -21.3089 H         1 H1S         0.0928
     45 H         -16.3151  -17.5309  -25.1651 H         1 H1S         0.0721
     46 H         -19.2934  -21.9459  -19.0785 H         1 H1S         0.1646
     47 H         -19.9127  -19.2366  -20.5991 H         1 H1S         0.2125
     48 H         -14.9161  -18.1590  -27.3724 H         1 H1S         0.0744
     49 H         -13.6106  -20.1792  -27.1305 H         1 H1S         0.0480
     50 H         -13.8308  -17.4644  -24.8143 H         1 H1S         0.2127
@<TRIPOS>BOND
     1    1    2 1  
     2    1    3 1  
     3    1    4 1  
     4    2    5 1  
     5    2    6 1  
     6    3    7 1  
     7    4    8 1  
     8    4    9 1  
     9    5   10 1  
    10    6   11 1  
    11    7   12 1  
    12    7   13 1  
    13    8   10 1  
    14    8   14 1  
    15   10   15 1  
    16   11   16 1  
    17   12   17 1  
    18   12   18 1  
    19   13   19 1  
    20   14   20 am 
    21   16   21 ar 
    22   16   22 ar 
    23   16   23 ar 
    24   17   24 1  
    25   17   25 1  
    26   18   26 1  
    27   19   24 2  
    28   19   27 1  
    29   20   28 ar 
    30   20   29 ar 
    31   20   30 ar 
    32   26   31 ar 
    33   26   32 ar 
    34   26   33 ar 
    35   27   34 ar 
    36   27   35 ar 
    37    1   36 1  
    38    2   37 1  
    39    4   38 1  
    40    6   39 1  
    41    6   40 1  
    42    7   41 1  
    43    8   42 1  
    44    9   43 1  
    45   10   44 1  
    46   12   45 1  
    47   14   46 1  
    48   15   47 1  
    49   17   48 1  
    50   24   49 1  
    51   25   50 1  
@<TRIPOS>SUBSTRUCTURE
     1 H1S         1

