### 
### Created by X-TOOL on Mon Sep 10 21:13:07 2018
### 

@<TRIPOS>MOLECULE
3ohf_ligand
   91    94     1     0     0
SMALL
GAST_HUCK


@<TRIPOS>ATOM
      1 C1         77.6040   65.9270   82.9510 C.ar      1 3HF        -0.0687
      2 C2         82.8170   58.9930   82.9930 C.ar      1 3HF        -0.0803
      3 C3         78.2630   65.4710   84.0920 C.ar      1 3HF        -0.0686
      4 C4         76.3730   65.3780   82.5730 C.ar      1 3HF        -0.0686
      5 C5         83.0230   59.2690   81.6410 C.ar      1 3HF        -0.0771
      6 C6         79.0030   59.3280   91.2470 C.ar      1 3HF        -0.0770
      7 C7         81.7100   59.5210   83.6610 C.ar      1 3HF        -0.0757
      8 C8         77.6750   64.4550   84.8630 C.ar      1 3HF        -0.0603
      9 C9         75.8000   64.3690   83.3450 C.ar      1 3HF        -0.0603
     10 C10        78.6690   58.4940   90.1740 C.ar      1 3HF        -0.0664
     11 C11        82.1260   60.0820   80.9400 C.ar      1 3HF        -0.0379
     12 C12        78.0100   60.0620   91.8990 C.ar      1 3HF        -0.0401
     13 C13        76.3530   59.1210   90.4300 C.ar      1 3HF        -0.0272
     14 C14        79.1860   61.6680   82.2120 C.2       1 3HF         0.0806
     15 C15        80.8100   60.3370   82.9740 C.ar      1 3HF        -0.0081
     16 C16        79.6400   61.0030   83.3380 C.2       1 3HF         0.0485
     17 C17        76.4450   63.9020   84.4940 C.ar      1 3HF        -0.0408
     18 C18        77.3410   58.3890   89.7680 C.ar      1 3HF        -0.0075
     19 C19        81.0250   60.6100   81.6210 C.ar      1 3HF         0.1025
     20 C20        76.6800   59.9620   91.4870 C.ar      1 3HF         0.0842
     21 C21        78.9430   61.1160   84.6490 C.2       1 3HF         0.1750
     22 C22        79.8960   61.8320   79.9120 C.2       1 3HF         0.3406
     23 C23        83.4480   64.7600   78.9940 C.3       1 3HF        -0.0652
     24 C24        74.9590   62.7920   79.3280 C.3       1 3HF        -0.0652
     25 C25        76.0050   61.9600   92.5850 C.3       1 3HF         0.0592
     26 C26        75.8030   62.8000   85.3190 C.3       1 3HF         0.0064
     27 C27        76.9590   57.5020   88.6070 C.3       1 3HF        -0.0023
     28 C28        82.2990   64.1000   79.7590 C.3       1 3HF        -0.0541
     29 C29        76.2870   62.4170   78.6780 C.3       1 3HF        -0.0541
     30 C30        81.0490   64.9820   79.7260 C.3       1 3HF        -0.0328
     31 C31        77.2110   63.6290   78.6620 C.3       1 3HF        -0.0328
     32 C32        79.8270   64.3020   80.3640 C.3       1 3HF         0.0361
     33 C33        78.6770   63.2600   78.4270 C.3       1 3HF         0.0361
     34 C34        76.9550   59.4070   86.9900 C.3       1 3HF        -0.0033
     35 C35        76.7320   61.6360   85.7390 C.3       1 3HF         0.0808
     36 C36        76.0160   60.3800   86.2630 C.3       1 3HF         0.1191
     37 N37        80.0330   61.4330   81.1840 N.am      1 3HF        -0.1521
     38 N38        77.6260   61.3980   84.6060 N.am      1 3HF        -0.2849
     39 N39        76.1900   58.2540   87.5530 N.4       1 3HF         0.2408
     40 N40        79.4130   63.0670   79.6750 N.am      1 3HF        -0.2439
     41 O41        79.5550   60.9960   85.6970 O.2       1 3HF        -0.4050
     42 O42        79.7340   60.8730   79.1700 O.2       1 3HF        -0.3676
     43 O43        75.0000   60.8010   87.1730 O.3       1 3HF        -0.3841
     44 O44        75.7010   60.6390   92.0890 O.3       1 3HF        -0.3230
     45 H1         78.0486   66.7132   82.3516 H         1 3HF         0.0559
     46 H2         83.5202   58.3651   83.5281 H         1 3HF         0.0509
     47 H3         79.2177   65.8956   84.3805 H         1 3HF         0.0599
     48 H4         75.8675   65.7362   81.6835 H         1 3HF         0.0599
     49 H5         83.8832   58.8510   81.1307 H         1 3HF         0.0521
     50 H6         80.0342   59.4043   91.5725 H         1 3HF         0.0572
     51 H7         81.5503   59.2978   84.7097 H         1 3HF         0.0528
     52 H8         78.1796   64.0961   85.7527 H         1 3HF         0.0557
     53 H9         74.8471   63.9432   83.0523 H         1 3HF         0.0557
     54 H10        79.4409   57.9319   89.6609 H         1 3HF         0.0466
     55 H11        82.2815   60.2984   79.8893 H         1 3HF         0.0548
     56 H12        78.2725   60.7108   92.7268 H         1 3HF         0.0486
     57 H13        75.3193   59.0322   90.1159 H         1 3HF         0.0480
     58 H14        78.2888   62.2831   82.1618 H         1 3HF         0.1074
     59 H15        84.3344   64.1096   79.0309 H         1 3HF         0.0230
     60 H16        83.6857   65.7302   79.4547 H         1 3HF         0.0230
     61 H17        83.1501   64.9146   77.9465 H         1 3HF         0.0230
     62 H18        74.2950   61.9151   79.3377 H         1 3HF         0.0230
     63 H19        74.4864   63.6033   78.7550 H         1 3HF         0.0230
     64 H20        75.1378   63.1279   80.3601 H         1 3HF         0.0230
     65 H21        75.1077   62.3916   93.0525 H         1 3HF         0.0577
     66 H22        76.3273   62.5999   91.7504 H         1 3HF         0.0577
     67 H23        76.8115   61.8953   93.3302 H         1 3HF         0.0577
     68 H24        74.9778   62.3753   84.7286 H         1 3HF         0.0449
     69 H25        75.4010   63.2567   86.2354 H         1 3HF         0.0449
     70 H26        76.3354   56.6765   88.9806 H         1 3HF         0.0978
     71 H27        77.8751   57.0940   88.1551 H         1 3HF         0.0978
     72 H28        82.6036   63.9447   80.8045 H         1 3HF         0.0263
     73 H29        82.0680   63.1292   79.2963 H         1 3HF         0.0263
     74 H30        76.1071   62.0807   77.6463 H         1 3HF         0.0263
     75 H31        76.7585   61.6053   79.2514 H         1 3HF         0.0263
     76 H32        80.8128   65.2189   78.6781 H         1 3HF         0.0284
     77 H33        81.2600   65.9123   80.2737 H         1 3HF         0.0284
     78 H34        77.1302   64.1442   79.6305 H         1 3HF         0.0284
     79 H35        76.8869   64.3063   77.8582 H         1 3HF         0.0284
     80 H36        78.9853   65.0100   80.3446 H         1 3HF         0.0522
     81 H37        80.0726   64.0528   81.4069 H         1 3HF         0.0522
     82 H38        79.1570   64.0684   77.8559 H         1 3HF         0.0522
     83 H39        78.7171   62.3268   77.8461 H         1 3HF         0.0522
     84 H40        77.4614   59.9384   87.8092 H         1 3HF         0.0840
     85 H41        77.7047   59.0298   86.2789 H         1 3HF         0.0840
     86 H42        77.3492   61.9964   86.5751 H         1 3HF         0.0604
     87 H43        75.5565   59.8546   85.4128 H         1 3HF         0.0672
     88 H44        77.2132   61.4505   83.6967 H         1 3HF         0.1837
     89 H45        75.3379   58.6026   87.9633 H         1 3HF         0.2029
     90 H46        75.9665   57.6189   86.8029 H         1 3HF         0.2029
     91 H47        74.3849   61.3657   86.7200 H         1 3HF         0.2101
@<TRIPOS>BOND
     1    3    1 ar 
     2    4    1 ar 
     3    2    5 ar 
     4    7    2 ar 
     5    8    3 ar 
     6    9    4 ar 
     7   11    5 ar 
     8   10    6 ar 
     9    6   12 ar 
    10   15    7 ar 
    11   17    8 ar 
    12   17    9 ar 
    13   18   10 ar 
    14   19   11 ar 
    15   20   12 ar 
    16   18   13 ar 
    17   13   20 ar 
    18   16   14 2  
    19   14   37 1  
    20   16   15 1  
    21   15   19 ar 
    22   21   16 1  
    23   26   17 1  
    24   27   18 1  
    25   19   37 1  
    26   20   44 1  
    27   38   21 am 
    28   21   41 2  
    29   37   22 am 
    30   22   40 am 
    31   22   42 2  
    32   28   23 1  
    33   29   24 1  
    34   44   25 1  
    35   35   26 1  
    36   39   27 1  
    37   30   28 1  
    38   31   29 1  
    39   32   30 1  
    40   33   31 1  
    41   40   32 1  
    42   40   33 1  
    43   36   34 1  
    44   34   39 1  
    45   35   36 1  
    46   35   38 1  
    47   36   43 1  
    48    1   45 1  
    49    2   46 1  
    50    3   47 1  
    51    4   48 1  
    52    5   49 1  
    53    6   50 1  
    54    7   51 1  
    55    8   52 1  
    56    9   53 1  
    57   10   54 1  
    58   11   55 1  
    59   12   56 1  
    60   13   57 1  
    61   14   58 1  
    62   23   59 1  
    63   23   60 1  
    64   23   61 1  
    65   24   62 1  
    66   24   63 1  
    67   24   64 1  
    68   25   65 1  
    69   25   66 1  
    70   25   67 1  
    71   26   68 1  
    72   26   69 1  
    73   27   70 1  
    74   27   71 1  
    75   28   72 1  
    76   28   73 1  
    77   29   74 1  
    78   29   75 1  
    79   30   76 1  
    80   30   77 1  
    81   31   78 1  
    82   31   79 1  
    83   32   80 1  
    84   32   81 1  
    85   33   82 1  
    86   33   83 1  
    87   34   84 1  
    88   34   85 1  
    89   35   86 1  
    90   36   87 1  
    91   38   88 1  
    92   39   89 1  
    93   39   90 1  
    94   43   91 1  
@<TRIPOS>SUBSTRUCTURE
     1 3HF         1

