### 
### Created by X-TOOL on Mon Sep 10 21:13:05 2018
### 

@<TRIPOS>MOLECULE
3ohh_ligand
   83    86     1     0     0
SMALL
GAST_HUCK


@<TRIPOS>ATOM
      1 C1         43.4590   58.1040   52.0970 C.ar      1 3HH        -0.0383
      2 F1         44.5690   59.5430   58.8290 F         1 3HH        -0.1863
      3 N1         44.8800   55.5880   54.0730 N.am      1 3HH        -0.1476
      4 C2         45.6930   56.5830   54.4530 C.2       1 3HH         0.0835
      5 F2         47.4290   55.8250   58.8680 F         1 3HH        -0.1863
      6 N2         41.1600   58.8240   49.6620 N.1       1 3HH        -0.3364
      7 C3         45.3230   57.7380   53.7970 C.2       1 3HH         0.0526
      8 C4         44.2480   57.3720   52.9900 C.ar      1 3HH         0.0050
      9 C5         42.9260   55.3680   52.4700 C.ar      1 3HH        -0.0287
     10 C6         43.9600   56.0070   53.1630 C.ar      1 3HH         0.1108
     11 C7         41.6560   58.2580   50.5230 C.1       1 3HH         0.0881
     12 C8         49.2980   52.7990   55.4170 C.3       1 3HH        -0.0652
     13 C9         42.1440   56.1040   51.5870 C.ar      1 3HH        -0.0438
     14 C10        42.4230   57.4580   51.4210 C.ar      1 3HH         0.0772
     15 C11        45.0220   54.3240   54.5340 C.2       1 3HH         0.3423
     16 N12        45.1650   53.9100   55.8110 N.am      1 3HH        -0.2466
     17 C13        44.6550   54.6930   56.9470 C.3       1 3HH         0.0249
     18 C14        45.7960   52.6400   56.1880 C.3       1 3HH         0.0359
     19 C15        47.1780   52.7230   56.8480 C.3       1 3HH        -0.0328
     20 C18        48.1690   53.5940   56.0700 C.3       1 3HH        -0.0541
     21 O33        45.0530   53.5010   53.6190 O.2       1 3HH        -0.3669
     22 C34        46.0090   59.0450   53.9810 C.2       1 3HH         0.1762
     23 N35        47.2310   58.9450   54.3730 N.am      1 3HH        -0.2847
     24 C36        48.0690   60.0420   54.8630 C.3       1 3HH         0.0807
     25 C37        49.0740   60.4930   53.7920 C.3       1 3HH         0.1191
     26 C38        48.3190   61.0720   52.5870 C.3       1 3HH        -0.0033
     27 N39        49.2160   61.7520   51.6120 N.4       1 3HH         0.2408
     28 C42        48.5760   62.8140   50.7780 C.3       1 3HH        -0.0023
     29 C43        47.9700   63.9320   51.5940 C.ar      1 3HH        -0.0075
     30 O46        45.3740   60.1910   53.7330 O.2       1 3HH        -0.4044
     31 C48        48.7360   59.6690   56.2010 C.3       1 3HH         0.0046
     32 C50        47.7520   59.0110   57.1390 C.ar      1 3HH        -0.0445
     33 C53        48.0430   57.7180   57.5690 C.ar      1 3HH        -0.0310
     34 C54        47.1650   57.0610   58.4320 C.ar      1 3HH         0.1242
     35 C55        45.9840   57.6640   58.8680 C.ar      1 3HH        -0.0019
     36 C56        45.6960   58.9520   58.4230 C.ar      1 3HH         0.1242
     37 C57        46.5690   59.6150   57.5700 C.ar      1 3HH        -0.0310
     38 O63        49.9050   61.4920   54.3880 O.3       1 3HH        -0.3841
     39 C67        48.8070   64.6690   52.4200 C.ar      1 3HH        -0.0272
     40 C68        48.2500   65.6920   53.1800 C.ar      1 3HH         0.0842
     41 C69        46.8780   65.9550   53.1050 C.ar      1 3HH        -0.0401
     42 C70        46.0170   65.2200   52.2870 C.ar      1 3HH        -0.0770
     43 C71        46.6010   64.2010   51.5300 C.ar      1 3HH        -0.0664
     44 O76        49.1870   66.2980   53.9060 O.3       1 3HH        -0.3230
     45 C77        48.8800   66.6480   55.2810 C.3       1 3HH         0.0592
     46 H          43.6505   59.1642   51.9313 H         1 3HH         0.0657
     47 H          46.5135   56.4939   55.1650 H         1 3HH         0.1084
     48 H          42.7358   54.3054   52.6207 H         1 3HH         0.0567
     49 H          49.8612   52.2711   56.1866 H         1 3HH         0.0230
     50 H          48.8755   52.0791   54.7160 H         1 3HH         0.0230
     51 H          49.9601   53.4814   54.8841 H         1 3HH         0.0230
     52 H          41.3304   55.6314   51.0367 H         1 3HH         0.0601
     53 H          45.1313   55.6734   56.9539 H         1 3HH         0.0486
     54 H          43.5760   54.8126   56.8490 H         1 3HH         0.0486
     55 H          44.8811   54.1712   57.8769 H         1 3HH         0.0486
     56 H          45.9412   52.0905   55.2579 H         1 3HH         0.0522
     57 H          45.1373   52.1871   56.9291 H         1 3HH         0.0522
     58 H          47.5862   51.7131   56.8862 H         1 3HH         0.0284
     59 H          47.0467   53.1721   57.8325 H         1 3HH         0.0284
     60 H          47.6141   54.0893   55.2732 H         1 3HH         0.0263
     61 H          48.6235   54.2859   56.7791 H         1 3HH         0.0263
     62 H          47.6543   58.0176   54.3394 H         1 3HH         0.1837
     63 H          47.4327   60.9037   55.0647 H         1 3HH         0.0604
     64 H          49.6777   59.6565   53.4401 H         1 3HH         0.0672
     65 H          47.6127   61.8128   52.9618 H         1 3HH         0.0840
     66 H          47.8327   60.2445   52.0704 H         1 3HH         0.0840
     67 H          49.5402   61.0324   50.9659 H         1 3HH         0.2029
     68 H          49.9430   62.2125   52.1595 H         1 3HH         0.2029
     69 H          47.7708   62.3466   50.2111 H         1 3HH         0.0978
     70 H          49.3515   63.2495   50.1479 H         1 3HH         0.0978
     71 H          49.1069   60.5803   56.6701 H         1 3HH         0.0448
     72 H          49.5471   58.9687   56.0014 H         1 3HH         0.0448
     73 H          48.9531   57.2215   57.2325 H         1 3HH         0.0508
     74 H          45.3042   57.1400   59.5399 H         1 3HH         0.0532
     75 H          46.3269   60.6225   57.2317 H         1 3HH         0.0508
     76 H          50.3693   61.1143   55.1387 H         1 3HH         0.2101
     77 H          49.8738   64.4516   52.4718 H         1 3HH         0.0480
     78 H          46.4654   66.7641   53.7077 H         1 3HH         0.0486
     79 H          44.9483   65.4297   52.2416 H         1 3HH         0.0572
     80 H          45.9720   63.6007   50.8727 H         1 3HH         0.0466
     81 H          48.0289   67.3287   55.2999 H         1 3HH         0.0577
     82 H          48.6363   65.7439   55.8390 H         1 3HH         0.0577
     83 H          49.7451   67.1332   55.7329 H         1 3HH         0.0577
@<TRIPOS>BOND
     1    8    1 ar 
     2    1   14 ar 
     3   36    2 1  
     4    4    3 1  
     5   10    3 1  
     6    3   15 am 
     7    7    4 2  
     8   34    5 1  
     9   11    6 3  
    10    7    8 1  
    11   22    7 1  
    12    8   10 ar 
    13   10    9 ar 
    14    9   13 ar 
    15   14   11 1  
    16   20   12 1  
    17   14   13 ar 
    18   15   16 am 
    19   15   21 2  
    20   16   17 1  
    21   16   18 1  
    22   18   19 1  
    23   19   20 1  
    24   23   22 am 
    25   22   30 2  
    26   24   23 1  
    27   24   25 1  
    28   31   24 1  
    29   25   26 1  
    30   25   38 1  
    31   26   27 1  
    32   27   28 1  
    33   28   29 1  
    34   29   39 ar 
    35   29   43 ar 
    36   32   31 1  
    37   33   32 ar 
    38   32   37 ar 
    39   34   33 ar 
    40   35   34 ar 
    41   35   36 ar 
    42   36   37 ar 
    43   39   40 ar 
    44   40   41 ar 
    45   40   44 1  
    46   41   42 ar 
    47   42   43 ar 
    48   44   45 1  
    49    1   46 1  
    50    4   47 1  
    51    9   48 1  
    52   12   49 1  
    53   12   50 1  
    54   12   51 1  
    55   13   52 1  
    56   17   53 1  
    57   17   54 1  
    58   17   55 1  
    59   18   56 1  
    60   18   57 1  
    61   19   58 1  
    62   19   59 1  
    63   20   60 1  
    64   20   61 1  
    65   23   62 1  
    66   24   63 1  
    67   25   64 1  
    68   26   65 1  
    69   26   66 1  
    70   27   67 1  
    71   27   68 1  
    72   28   69 1  
    73   28   70 1  
    74   31   71 1  
    75   31   72 1  
    76   33   73 1  
    77   35   74 1  
    78   37   75 1  
    79   38   76 1  
    80   39   77 1  
    81   41   78 1  
    82   42   79 1  
    83   43   80 1  
    84   45   81 1  
    85   45   82 1  
    86   45   83 1  
@<TRIPOS>SUBSTRUCTURE
     1 3HH         1

