### 
### Created by X-TOOL on Mon Sep 10 21:13:05 2018
### 

@<TRIPOS>MOLECULE
3oik_ligand
   60    63     1     0     0
SMALL
GAST_HUCK


@<TRIPOS>ATOM
      1 OAH        -7.3890    0.7140   16.9970 O.2       1 WZB        -0.1270
      2 SBD        -5.9750    0.6370   16.7130 S.o2      1 WZB         0.1600
      3 OAG        -5.0740    1.1280   17.7710 O.2       1 WZB        -0.1270
      4 NAD        -5.5220   -0.8530   16.3190 N.am      1 WZB        -0.2415
      5 OAS        -5.9240    1.5580   15.4790 O.3       1 WZB        -0.2190
      6 CAX        -4.6220    1.7440   14.8050 C.3       1 WZB         0.0947
      7 CAM        -4.2300    0.7350   13.6970 C.3       1 WZB        -0.0235
      8 CAO        -3.5730    1.6930   12.6230 C.3       1 WZB        -0.0468
      9 CBB        -4.2710    3.1230   14.3280 C.3       1 WZB        -0.0002
     10 CBA        -3.1730    2.9160   13.4730 C.3       1 WZB        -0.0284
     11 CAB        -5.5130    3.5050   13.4330 C.3       1 WZB        -0.0569
     12 CAQ        -4.1510    4.2500   15.2970 C.3       1 WZB        -0.0432
     13 CAP        -3.7500    5.5020   14.5780 C.3       1 WZB        -0.0421
     14 CAY        -2.3720    5.2210   13.8810 C.3       1 WZB        -0.0131
     15 CAZ        -2.5200    4.1360   12.7910 C.3       1 WZB        -0.0261
     16 CAN        -1.2080    3.8620   12.0890 C.3       1 WZB        -0.0405
     17 CAL        -0.9260    5.1310   11.2240 C.3       1 WZB        -0.0267
     18 CAU        -0.8420    6.3550   12.1630 C.ar      1 WZB        -0.0557
     19 CAI        -0.0790    7.4630   11.7640 C.ar      1 WZB        -0.0418
     20 CAW        -1.5170    6.4140   13.3860 C.ar      1 WZB        -0.0549
     21 CAJ        -1.4210    7.5270   14.2010 C.ar      1 WZB        -0.0729
     22 CAT        -0.6420    8.6190   13.8000 C.ar      1 WZB        -0.0245
     23 CAK        -0.5800    9.8230   14.7480 C.3       1 WZB        -0.0284
     24 CAA        -1.6580   10.8040   14.2930 C.3       1 WZB        -0.0580
     25 CAV         0.0300    8.5900   12.5720 C.ar      1 WZB         0.1128
     26 OAR         0.7840    9.7020   12.2040 O.3       1 WZB        -0.1649
     27 SBC         2.2670    9.5960   12.2900 S.o2      1 WZB         0.1760
     28 OAF         2.7570    8.7160   11.1710 O.2       1 WZB        -0.1233
     29 OAE         2.7670    9.0780   13.6100 O.2       1 WZB        -0.1233
     30 NAC         2.8990   11.0900   12.0620 N.am      1 WZB        -0.2384
     31 H          -6.2102   -1.6054   16.2939 H         1 WZB         0.1654
     32 H          -4.5462   -1.0467   16.0939 H         1 WZB         0.1654
     33 H          -4.0196    1.5275   15.6872 H         1 WZB         0.0626
     34 H          -5.0709    0.1577   13.3128 H         1 WZB         0.0291
     35 H          -3.5659   -0.0577   14.0414 H         1 WZB         0.0291
     36 H          -4.2461    1.9428   11.8029 H         1 WZB         0.0269
     37 H          -2.7299    1.2388   12.1024 H         1 WZB         0.0269
     38 H          -2.2667    2.7030   14.0398 H         1 WZB         0.0311
     39 H          -5.2908    4.4143   12.8745 H         1 WZB         0.0236
     40 H          -5.7220    2.6920   12.7377 H         1 WZB         0.0236
     41 H          -6.3812    3.6717   14.0706 H         1 WZB         0.0236
     42 H          -3.3930    4.0047   16.0409 H         1 WZB         0.0273
     43 H          -5.1130    4.4083   15.7845 H         1 WZB         0.0273
     44 H          -3.6622    6.3332   15.2776 H         1 WZB         0.0286
     45 H          -4.5031    5.7767   13.8394 H         1 WZB         0.0286
     46 H          -1.7665    4.8664   14.7151 H         1 WZB         0.0428
     47 H          -3.1652    4.4584   11.9737 H         1 WZB         0.0326
     48 H          -1.2635    2.9635   11.4744 H         1 WZB         0.0288
     49 H          -0.4042    3.6773   12.8017 H         1 WZB         0.0288
     50 H          -1.7272    5.2726   10.4986 H         1 WZB         0.0397
     51 H           0.0128    5.0117   10.6831 H         1 WZB         0.0397
     52 H           0.4372    7.4402   10.8043 H         1 WZB         0.0445
     53 H          -1.9506    7.5541   15.1533 H         1 WZB         0.0451
     54 H           0.4047   10.2893   14.7159 H         1 WZB         0.0387
     55 H          -0.7511    9.5121   15.7786 H         1 WZB         0.0387
     56 H          -1.4586   11.1104   13.2661 H         1 WZB         0.0248
     57 H          -2.6334   10.3204   14.3463 H         1 WZB         0.0248
     58 H          -1.6489   11.6790   14.9429 H         1 WZB         0.0248
     59 H           3.5063   11.2703   11.2626 H         1 WZB         0.1657
     60 H           2.6852   11.8400   12.7194 H         1 WZB         0.1657
@<TRIPOS>BOND
     1    1    2 2  
     2    2    3 2  
     3    2    4 am 
     4    2    5 1  
     5    5    6 1  
     6    6    7 1  
     7    6    9 1  
     8    7    8 1  
     9    8   10 1  
    10    9   10 1  
    11    9   11 1  
    12    9   12 1  
    13   10   15 1  
    14   12   13 1  
    15   13   14 1  
    16   14   15 1  
    17   14   20 1  
    18   15   16 1  
    19   16   17 1  
    20   17   18 1  
    21   18   19 ar 
    22   18   20 ar 
    23   19   25 ar 
    24   20   21 ar 
    25   21   22 ar 
    26   22   23 1  
    27   22   25 ar 
    28   23   24 1  
    29   25   26 1  
    30   26   27 1  
    31   27   28 2  
    32   27   29 2  
    33   27   30 am 
    34    4   31 1  
    35    4   32 1  
    36    6   33 1  
    37    7   34 1  
    38    7   35 1  
    39    8   36 1  
    40    8   37 1  
    41   10   38 1  
    42   11   39 1  
    43   11   40 1  
    44   11   41 1  
    45   12   42 1  
    46   12   43 1  
    47   13   44 1  
    48   13   45 1  
    49   14   46 1  
    50   15   47 1  
    51   16   48 1  
    52   16   49 1  
    53   17   50 1  
    54   17   51 1  
    55   19   52 1  
    56   21   53 1  
    57   23   54 1  
    58   23   55 1  
    59   24   56 1  
    60   24   57 1  
    61   24   58 1  
    62   30   59 1  
    63   30   60 1  
@<TRIPOS>SUBSTRUCTURE
     1 WZB         1

