### 
### Created by X-TOOL on Mon Sep 10 21:13:05 2018
### 

@<TRIPOS>MOLECULE
3oil_ligand
   55    58     1     0     0
SMALL
GAST_HUCK


@<TRIPOS>ATOM
      1 C1         -3.5860    1.2630   13.8100 C.ar      1 VZ5        -0.0418
      2 N1         -5.1030   -0.8310   15.9800 N.am      1 VZ5        -0.2384
      3 O1         -5.2400    0.6650   17.9910 O.2       1 VZ5        -0.1233
      4 S1         -5.4820    0.6300   16.5590 S.o2      1 VZ5         0.1760
      5 C2         -4.4280    1.9930   14.6510 C.ar      1 VZ5         0.1128
      6 O2         -6.8600    1.0740   16.2980 O.2       1 VZ5        -0.1233
      7 C3         -5.1300    3.1210   14.1520 C.ar      1 VZ5        -0.0245
      8 O3         -4.5310    1.6200   15.9960 O.3       1 VZ5        -0.1649
      9 C4         -4.9990    3.4470   12.7880 C.ar      1 VZ5        -0.0729
     10 C5         -4.1180    2.7290   11.9370 C.ar      1 VZ5        -0.0549
     11 C6         -3.4270    1.6270   12.4360 C.ar      1 VZ5        -0.0557
     12 C7         -2.4460    0.8470   11.5860 C.3       1 VZ5        -0.0267
     13 C8         -2.2280    1.3260   10.1770 C.3       1 VZ5        -0.0405
     14 C9         -2.4980    2.7930   10.0750 C.3       1 VZ5        -0.0261
     15 C10        -3.9200    3.1390   10.5040 C.3       1 VZ5        -0.0131
     16 C11        -4.3650    4.5450   10.1120 C.3       1 VZ5        -0.0421
     17 C12        -3.3120    5.4570    9.6020 C.3       1 VZ5        -0.0433
     18 C13        -2.3030    4.8260    8.6000 C.3       1 VZ5        -0.0027
     19 C14        -2.2560    3.3520    8.6650 C.3       1 VZ5        -0.0285
     20 C15        -0.9540    3.0600    7.9920 C.3       1 VZ5        -0.0469
     21 C16        -0.9480    4.0730    6.8700 C.3       1 VZ5        -0.0261
     22 C17        -2.1380    5.0120    7.1580 C.3       1 VZ5         0.0609
     23 O17        -1.8300    6.2900    6.7770 O.3       1 VZ5        -0.3912
     24 C18        -1.1170    5.4390    9.2000 C.3       1 VZ5        -0.0569
     25 C19        -6.0520    3.9110   15.0080 C.3       1 VZ5        -0.0284
     26 C20        -5.7630    5.3810   15.0740 C.3       1 VZ5        -0.0580
     27 H1         -3.0459    0.4094   14.2034 H         1 VZ5         0.0445
     28 H2         -5.6388   -1.6306   16.2510 H         1 VZ5         0.1657
     29 H3         -4.3327   -0.9351   15.3508 H         1 VZ5         0.1657
     30 H4         -5.5833    4.2635   12.3793 H         1 VZ5         0.0451
     31 H5         -2.8071   -0.1906   11.5310 H         1 VZ5         0.0397
     32 H6         -1.4727    0.8699   12.0980 H         1 VZ5         0.0397
     33 H7         -2.9072    0.7852    9.5016 H         1 VZ5         0.0288
     34 H8         -1.1861    1.1285    9.8846 H         1 VZ5         0.0288
     35 H9         -1.8031    3.2998   10.7607 H         1 VZ5         0.0326
     36 H10        -4.5772    2.4760    9.9222 H         1 VZ5         0.0428
     37 H11        -4.8106    5.0142   11.0015 H         1 VZ5         0.0286
     38 H12        -5.1297    4.4465    9.3275 H         1 VZ5         0.0286
     39 H13        -2.7421    5.8319   10.4649 H         1 VZ5         0.0273
     40 H14        -3.8088    6.2985    9.0970 H         1 VZ5         0.0273
     41 H15        -3.0608    2.9398    8.0387 H         1 VZ5         0.0311
     42 H16        -0.9269    2.0316    7.6025 H         1 VZ5         0.0269
     43 H17        -0.1065    3.2156    8.6758 H         1 VZ5         0.0269
     44 H18        -1.0791    3.5726    5.8992 H         1 VZ5         0.0290
     45 H19        -0.0042    4.6380    6.8669 H         1 VZ5         0.0290
     46 H20        -3.0435    4.6911    6.6222 H         1 VZ5         0.0599
     47 H21        -2.5682    6.8599    6.9582 H         1 VZ5         0.2098
     48 H22        -1.1667    5.3394   10.2944 H         1 VZ5         0.0236
     49 H23        -1.0788    6.5047    8.9302 H         1 VZ5         0.0236
     50 H24        -0.2142    4.9336    8.8265 H         1 VZ5         0.0236
     51 H25        -5.9967    3.5075   16.0298 H         1 VZ5         0.0387
     52 H26        -7.0723    3.7824   14.6177 H         1 VZ5         0.0387
     53 H27        -6.4986    5.8702   15.7295 H         1 VZ5         0.0248
     54 H28        -5.8271    5.8130   14.0644 H         1 VZ5         0.0248
     55 H29        -4.7515    5.5381   15.4766 H         1 VZ5         0.0248
@<TRIPOS>BOND
     1    5    1 ar 
     2    1   11 ar 
     3    4    2 am 
     4    4    3 2  
     5    4    6 2  
     6    8    4 1  
     7    5    7 ar 
     8    5    8 1  
     9    7    9 ar 
    10    7   25 1  
    11    9   10 ar 
    12   10   11 ar 
    13   10   15 1  
    14   11   12 1  
    15   12   13 1  
    16   13   14 1  
    17   14   15 1  
    18   14   19 1  
    19   15   16 1  
    20   16   17 1  
    21   17   18 1  
    22   18   19 1  
    23   18   22 1  
    24   18   24 1  
    25   19   20 1  
    26   20   21 1  
    27   21   22 1  
    28   22   23 1  
    29   25   26 1  
    30    1   27 1  
    31    2   28 1  
    32    2   29 1  
    33    9   30 1  
    34   12   31 1  
    35   12   32 1  
    36   13   33 1  
    37   13   34 1  
    38   14   35 1  
    39   15   36 1  
    40   16   37 1  
    41   16   38 1  
    42   17   39 1  
    43   17   40 1  
    44   19   41 1  
    45   20   42 1  
    46   20   43 1  
    47   21   44 1  
    48   21   45 1  
    49   22   46 1  
    50   23   47 1  
    51   24   48 1  
    52   24   49 1  
    53   24   50 1  
    54   25   51 1  
    55   25   52 1  
    56   26   53 1  
    57   26   54 1  
    58   26   55 1  
@<TRIPOS>SUBSTRUCTURE
     1 VZ5         1

