### 
### Created by X-TOOL on Mon Sep 10 21:13:05 2018
### 

@<TRIPOS>MOLECULE
3oim_ligand
   55    58     1     0     0
SMALL
GAST_HUCK


@<TRIPOS>ATOM
      1 C1         -3.0620    2.7340   14.1670 C.ar      1 VZ5        -0.0418
      2 N1         -5.1170   -0.7390   15.9480 N.am      1 VZ5        -0.2384
      3 O1         -4.4020    1.2790   17.1310 O.2       1 VZ5        -0.1233
      4 S1         -5.2740    0.7810   16.1110 S.o2      1 VZ5         0.1760
      5 C2         -4.4670    2.5980   14.3770 C.ar      1 VZ5         0.1128
      6 O2         -6.6830    1.1870   16.1950 O.2       1 VZ5        -0.1233
      7 C3         -5.0080    3.8360   14.5630 C.ar      1 VZ5        -0.0245
      8 O3         -4.6540    1.3080   14.8050 O.3       1 VZ5        -0.1649
      9 C4         -4.3750    5.0280   14.1670 C.ar      1 VZ5        -0.0729
     10 C5         -3.0060    5.1270   13.8860 C.ar      1 VZ5        -0.0549
     11 C6         -2.3470    3.9150   13.8370 C.ar      1 VZ5        -0.0557
     12 C7         -0.8530    3.8840   13.5160 C.3       1 VZ5        -0.0267
     13 C8         -0.4460    5.0250   12.5850 C.3       1 VZ5        -0.0405
     14 C9         -0.8010    6.3280   13.2820 C.3       1 VZ5        -0.0261
     15 C10        -2.3530    6.3670   13.5500 C.3       1 VZ5        -0.0131
     16 C11        -2.7200    7.6610   14.2930 C.3       1 VZ5        -0.0421
     17 C12        -2.2710    8.9680   13.5560 C.3       1 VZ5        -0.0433
     18 C13        -0.7460    8.8660   13.4180 C.3       1 VZ5        -0.0027
     19 C14        -0.3170    7.6450   12.6140 C.3       1 VZ5        -0.0285
     20 C15         1.2060    7.8570   12.5910 C.3       1 VZ5        -0.0469
     21 C16         1.3530    9.4210   12.7070 C.3       1 VZ5        -0.0261
     22 C17        -0.0670    9.9350   12.5770 C.3       1 VZ5         0.0609
     23 O17        -0.0540   11.2270   13.2360 O.3       1 VZ5        -0.3912
     24 C18        -0.1600    8.8810   14.8380 C.3       1 VZ5        -0.0569
     25 C19        -6.4730    3.8660   14.8490 C.3       1 VZ5        -0.0284
     26 C20        -6.6690    4.2120   16.3070 C.3       1 VZ5        -0.0580
     27 H1         -2.4723    1.8305   14.2717 H         1 VZ5         0.0445
     28 H2         -5.4414   -1.3550   16.6659 H         1 VZ5         0.1657
     29 H3         -4.6904   -1.1121   15.1241 H         1 VZ5         0.1657
     30 H4         -4.9814    5.9217   14.0738 H         1 VZ5         0.0451
     31 H5         -0.6134    2.9264   13.0305 H         1 VZ5         0.0397
     32 H6         -0.2858    3.9714   14.4544 H         1 VZ5         0.0397
     33 H7         -0.9919    4.9468   11.6332 H         1 VZ5         0.0288
     34 H8          0.6361    4.9847   12.3915 H         1 VZ5         0.0288
     35 H9         -0.3026    6.2925   14.2620 H         1 VZ5         0.0326
     36 H10        -2.7666    6.5501   12.5473 H         1 VZ5         0.0428
     37 H11        -2.2401    7.6397   15.2825 H         1 VZ5         0.0286
     38 H12        -3.8127    7.6913   14.4159 H         1 VZ5         0.0286
     39 H13        -2.5438    9.8545   14.1474 H         1 VZ5         0.0273
     40 H14        -2.7422    9.0298   12.5640 H         1 VZ5         0.0273
     41 H15        -0.7222    7.6797   11.5920 H         1 VZ5         0.0311
     42 H16         1.6415    7.4885   11.6505 H         1 VZ5         0.0269
     43 H17         1.6876    7.3514   13.4409 H         1 VZ5         0.0269
     44 H18         1.9866    9.8149   11.8987 H         1 VZ5         0.0290
     45 H19         1.7827    9.7020   13.6798 H         1 VZ5         0.0290
     46 H20        -0.4517    9.9966   11.5483 H         1 VZ5         0.0599
     47 H21        -0.9214   11.6121   13.1927 H         1 VZ5         0.2098
     48 H22        -0.6518    8.1073   15.4458 H         1 VZ5         0.0236
     49 H23        -0.3288    9.8677   15.2940 H         1 VZ5         0.0236
     50 H24         0.9202    8.6787   14.7911 H         1 VZ5         0.0236
     51 H25        -6.9125    2.8797   14.6393 H         1 VZ5         0.0387
     52 H26        -6.9588    4.6254   14.2187 H         1 VZ5         0.0387
     53 H27        -7.7445    4.2386   16.5361 H         1 VZ5         0.0248
     54 H28        -6.2258    5.1975   16.5128 H         1 VZ5         0.0248
     55 H29        -6.1794    3.4517   16.9333 H         1 VZ5         0.0248
@<TRIPOS>BOND
     1    5    1 ar 
     2    1   11 ar 
     3    4    2 am 
     4    4    3 2  
     5    4    6 2  
     6    8    4 1  
     7    5    7 ar 
     8    5    8 1  
     9    7    9 ar 
    10    7   25 1  
    11    9   10 ar 
    12   10   11 ar 
    13   10   15 1  
    14   11   12 1  
    15   12   13 1  
    16   13   14 1  
    17   14   15 1  
    18   14   19 1  
    19   15   16 1  
    20   16   17 1  
    21   17   18 1  
    22   18   19 1  
    23   18   22 1  
    24   18   24 1  
    25   19   20 1  
    26   20   21 1  
    27   21   22 1  
    28   22   23 1  
    29   25   26 1  
    30    1   27 1  
    31    2   28 1  
    32    2   29 1  
    33    9   30 1  
    34   12   31 1  
    35   12   32 1  
    36   13   33 1  
    37   13   34 1  
    38   14   35 1  
    39   15   36 1  
    40   16   37 1  
    41   16   38 1  
    42   17   39 1  
    43   17   40 1  
    44   19   41 1  
    45   20   42 1  
    46   20   43 1  
    47   21   44 1  
    48   21   45 1  
    49   22   46 1  
    50   23   47 1  
    51   24   48 1  
    52   24   49 1  
    53   24   50 1  
    54   25   51 1  
    55   25   52 1  
    56   26   53 1  
    57   26   54 1  
    58   26   55 1  
@<TRIPOS>SUBSTRUCTURE
     1 VZ5         1

