### 
### Created by X-TOOL on Mon Sep 10 21:13:05 2018
### 

@<TRIPOS>MOLECULE
3oj8_ligand
   52    56     1     0     0
SMALL
GAST_HUCK


@<TRIPOS>ATOM
      1 C12        39.8600  -39.6760    6.2200 C.3       1 OJ8         0.0127
      2 C13        38.8620  -38.5690    6.5670 C.3       1 OJ8         0.1504
      3 O14        39.2370  -37.9220    7.7770 O.3       1 OJ8        -0.3689
      4 C15        37.3650  -39.0080    6.7810 C.2       1 OJ8         0.2136
      5 CAB        45.3940  -47.1990    9.5190 C.ar      1 OJ8        -0.0724
      6 CAC        33.4400  -42.6120   10.1630 C.ar      1 OJ8        -0.0390
      7 CAD        45.2090  -45.8180    9.8370 C.ar      1 OJ8        -0.0698
      8 CAE        45.1410  -47.7480    8.2350 C.ar      1 OJ8        -0.0698
      9 CAF        34.8310  -42.8420   10.0220 C.ar      1 OJ8        -0.0469
     10 CAG        32.8350  -41.5410    9.4540 C.ar      1 OJ8         0.0040
     11 CAH        44.7160  -44.9850    8.7840 C.ar      1 OJ8        -0.0288
     12 CAI        44.6610  -46.8980    7.2240 C.ar      1 OJ8        -0.0288
     13 CAJ        35.6220  -42.0080    9.1610 C.ar      1 OJ8        -0.0303
     14 CAK        41.8560  -44.0010    7.4960 C.ar      1 OJ8        -0.0418
     15 CAL        40.8020  -43.0470    7.7010 C.ar      1 OJ8        -0.0741
     16 CAM        35.1990  -39.2060    6.7100 C.2       1 OJ8         0.0034
     17 CAN        43.1540  -42.4130    6.1140 C.ar      1 OJ8        -0.0335
     18 CAO        42.3000  -40.1100    5.6350 C.3       1 OJ8        -0.0231
     19 CAP        41.3070  -39.0850    6.2000 C.3       1 OJ8        -0.0351
     20 CAQ        39.8510  -40.7490    7.2830 C.3       1 OJ8        -0.0184
     21 NAR        33.6120  -40.7500    8.6440 N.ar      1 OJ8        -0.2976
     22 NAS        36.2950  -38.5830    6.1880 N.2       1 OJ8        -0.3028
     23 OAT        44.0110  -44.6530    6.5270 O.3       1 OJ8        -0.2639
     24 OAU        36.9930  -39.8930    7.7190 O.3       1 OJ8        -0.2186
     25 CAV        44.4640  -45.5060    7.4870 C.ar      1 OJ8         0.1143
     26 CAW        42.9960  -43.6970    6.6890 C.ar      1 OJ8         0.1026
     27 CAX        40.9510  -41.7680    7.0970 C.ar      1 OJ8        -0.0504
     28 CAY        42.1200  -41.4600    6.2940 C.ar      1 OJ8        -0.0483
     29 CAZ        34.9670  -40.9230    8.4870 C.ar      1 OJ8         0.0754
     30 CBA        35.6460  -40.0450    7.6700 C.2       1 OJ8         0.1531
     31 H          39.5776  -40.0887    5.2515 H         1 OJ8         0.0377
     32 H          38.9026  -37.9323    5.6832 H         1 OJ8         0.0874
     33 H          40.1096  -37.5352    7.6746 H         1 OJ8         0.2143
     34 H          45.7484  -47.8663   10.3047 H         1 OJ8         0.0527
     35 H          32.8397  -43.2516   10.8100 H         1 OJ8         0.0669
     36 H          45.4314  -45.4213   10.8276 H         1 OJ8         0.0590
     37 H          45.3151  -48.8057    8.0373 H         1 OJ8         0.0590
     38 H          35.3036  -43.6569   10.5704 H         1 OJ8         0.0720
     39 H          31.7665  -41.3490    9.5515 H         1 OJ8         0.0812
     40 H          44.5300  -43.9292    8.9809 H         1 OJ8         0.0551
     41 H          44.4381  -47.3010    6.2361 H         1 OJ8         0.0551
     42 H          36.6873  -42.1933    9.0235 H         1 OJ8         0.0680
     43 H          41.7848  -44.9811    7.9675 H         1 OJ8         0.0479
     44 H          39.9226  -43.2935    8.2960 H         1 OJ8         0.0513
     45 H          34.1619  -39.0556    6.4101 H         1 OJ8         0.0578
     46 H          44.0500  -42.1629    5.5460 H         1 OJ8         0.0473
     47 H          43.3134  -39.7586    5.8290 H         1 OJ8         0.0410
     48 H          42.1214  -40.2167    4.5650 H         1 OJ8         0.0410
     49 H          41.6002  -38.8331    7.2191 H         1 OJ8         0.0292
     50 H          41.3176  -38.1969    5.5681 H         1 OJ8         0.0292
     51 H          38.8971  -41.2727    7.2201 H         1 OJ8         0.0398
     52 H          40.0048  -40.2645    8.2472 H         1 OJ8         0.0398
@<TRIPOS>BOND
     1    2    1 1  
     2    1   19 1  
     3    1   20 1  
     4    2    3 1  
     5    4    2 1  
     6    4   22 2  
     7   24    4 1  
     8    7    5 ar 
     9    8    5 ar 
    10    9    6 ar 
    11   10    6 ar 
    12   11    7 ar 
    13   12    8 ar 
    14   13    9 ar 
    15   21   10 ar 
    16   25   11 ar 
    17   25   12 ar 
    18   29   13 ar 
    19   15   14 ar 
    20   14   26 ar 
    21   27   15 ar 
    22   16   22 1  
    23   30   16 2  
    24   17   26 ar 
    25   28   17 ar 
    26   19   18 1  
    27   18   28 1  
    28   20   27 1  
    29   29   21 ar 
    30   23   25 1  
    31   26   23 1  
    32   30   24 1  
    33   27   28 ar 
    34   29   30 1  
    35    1   31 1  
    36    2   32 1  
    37    3   33 1  
    38    5   34 1  
    39    6   35 1  
    40    7   36 1  
    41    8   37 1  
    42    9   38 1  
    43   10   39 1  
    44   11   40 1  
    45   12   41 1  
    46   13   42 1  
    47   14   43 1  
    48   15   44 1  
    49   16   45 1  
    50   17   46 1  
    51   18   47 1  
    52   18   48 1  
    53   19   49 1  
    54   19   50 1  
    55   20   51 1  
    56   20   52 1  
@<TRIPOS>SUBSTRUCTURE
     1 OJ8         1

