### 
### Created by X-TOOL on Mon Sep 10 21:13:02 2018
### 

@<TRIPOS>MOLECULE
3ok9_ligand
   82    86     1     0     0
SMALL
GAST_HUCK


@<TRIPOS>ATOM
      1 C2         21.0010   27.7160   14.7810 C.ar      1 G52         0.0908
      2 C3         19.6640   27.6990   14.3900 C.ar      1 G52        -0.0313
      3 C4         18.8690   26.5780   14.5980 C.ar      1 G52        -0.0440
      4 C5         19.3900   25.4810   15.2810 C.ar      1 G52         0.0971
      5 C6         20.7370   25.4790   15.5860 C.ar      1 G52        -0.0440
      6 C7         21.5740   26.5580   15.3090 C.ar      1 G52        -0.0313
      7 S8         18.4030   24.0840   15.6940 S.o2      1 G52         0.0657
      8 O9         17.3220   24.0040   14.6670 O.2       1 G52        -0.1515
      9 O10        19.3150   22.9220   15.8240 O.2       1 G52        -0.1515
     10 N11        17.7090   24.2840   17.1750 N.am      1 G52        -0.2325
     11 C12        18.6590   24.5440   18.2440 C.3       1 G52         0.0319
     12 C13        18.3170   23.8950   19.5820 C.3       1 G52        -0.0296
     13 C14        18.2110   22.3730   19.5590 C.3       1 G52        -0.0612
     14 C15        19.3940   24.2920   20.6110 C.3       1 G52        -0.0612
     15 C16        16.4650   25.0450   17.2430 C.3       1 G52         0.0578
     16 C17        15.3120   24.1680   17.7060 C.3       1 G52         0.0967
     17 O18        14.1680   24.9750   17.9920 O.3       1 G52        -0.3877
     18 C19        14.9500   23.0320   16.7540 C.3       1 G52         0.0807
     19 N20        14.0210   22.0980   17.3780 N.am      1 G52        -0.2550
     20 C21        14.2710   20.8360   17.7170 C.2       1 G52         0.3203
     21 O22        15.3900   20.3290   17.5120 O.2       1 G52        -0.3775
     22 O23        13.2150   20.2220   18.3140 O.3       1 G52        -0.2578
     23 C24        13.4080   18.8380   18.5870 C.3       1 G52         0.1192
     24 C25        12.8870   18.5800   19.9910 C.3       1 G52         0.0816
     25 O26        11.4590   18.4980   19.8750 O.3       1 G52        -0.3479
     26 C27        11.1310   18.1540   18.5520 C.3       1 G52         0.1682
     27 O28        10.3990   19.2410   17.9550 O.3       1 G52        -0.3222
     28 C29        10.9390   19.6190   16.7160 C.3       1 G52         0.1655
     29 C30        12.0780   18.6490   16.4060 C.3       1 G52         0.0225
     30 C31        12.4080   18.0150   17.7440 C.3       1 G52         0.0504
     31 C32        14.2820   23.5310   15.4880 C.3       1 G52         0.0064
     32 C33        12.6610   21.9310   14.3700 C.ar      1 G52        -0.0603
     33 C34        12.3280   20.8610   13.5350 C.ar      1 G52        -0.0686
     34 C35        13.3570   20.2640   12.8100 C.ar      1 G52        -0.0687
     35 C36        14.6700   20.6690   13.0050 C.ar      1 G52        -0.0686
     36 C37        14.9890   21.7310   13.8520 C.ar      1 G52        -0.0603
     37 C38        13.9700   22.3600   14.5340 C.ar      1 G52        -0.0408
     38 O39        21.7130   28.8620   14.5770 O.3       1 G52        -0.3212
     39 C40        23.0460   28.7540   15.0250 C.3       1 G52         0.0594
     40 O41         9.9220   19.3920   15.7030 O.3       1 G52        -0.3509
     41 C42         9.9500   17.9520   15.5140 C.3       1 G52         0.0511
     42 C43        11.4540   17.6810   15.4100 C.3       1 G52        -0.0214
     43 H1         19.2364   28.5748   13.9155 H         1 G52         0.0542
     44 H2         17.8493   26.5573   14.2309 H         1 G52         0.0608
     45 H3         21.1608   24.6014   16.0607 H         1 G52         0.0608
     46 H4         22.6398   26.4997   15.4982 H         1 G52         0.0542
     47 H5         18.7122   25.6321   18.3962 H         1 G52         0.0480
     48 H6         19.6429   24.1698   17.9248 H         1 G52         0.0480
     49 H7         17.3448   24.2935   19.9078 H         1 G52         0.0311
     50 H8         17.9625   22.0075   20.5663 H         1 G52         0.0233
     51 H9         19.1719   21.9433   19.2398 H         1 G52         0.0233
     52 H10        17.4221   22.0710   18.8544 H         1 G52         0.0233
     53 H11        19.4852   25.3878   20.6421 H         1 G52         0.0233
     54 H12        20.3592   23.8519   20.3199 H         1 G52         0.0233
     55 H13        19.1061   23.9197   21.6053 H         1 G52         0.0233
     56 H14        16.2336   25.4454   16.2449 H         1 G52         0.0504
     57 H15        16.5908   25.8768   17.9517 H         1 G52         0.0504
     58 H16        15.6300   23.6983   18.6485 H         1 G52         0.0634
     59 H17        13.9089   25.4443   17.2078 H         1 G52         0.2100
     60 H18        15.8751   22.5005   16.4863 H         1 G52         0.0604
     61 H19        13.1017   22.4409   17.5710 H         1 G52         0.1873
     62 H20        14.4542   18.5309   18.4415 H         1 G52         0.0675
     63 H21        13.1691   19.4056   20.6609 H         1 G52         0.0590
     64 H22        13.2934   17.6355   20.3818 H         1 G52         0.0590
     65 H23        10.5458   17.2229   18.5299 H         1 G52         0.0914
     66 H24        11.2809   20.6645   16.7245 H         1 G52         0.0913
     67 H25        12.9615   19.1445   15.9772 H         1 G52         0.0356
     68 H26        12.7407   16.9739   17.6199 H         1 G52         0.0383
     69 H27        14.9537   24.2395   14.9813 H         1 G52         0.0449
     70 H28        13.3436   24.0404   15.7523 H         1 G52         0.0449
     71 H29        11.8705   22.4425   14.9072 H         1 G52         0.0557
     72 H30        11.3061   20.5084   13.4544 H         1 G52         0.0599
     73 H31        13.1319   19.4827   12.0931 H         1 G52         0.0559
     74 H32        15.4669   20.1478   12.4869 H         1 G52         0.0599
     75 H33        16.0167   22.0545   13.9710 H         1 G52         0.0557
     76 H34        23.5735   29.7009   14.8378 H         1 G52         0.0577
     77 H35        23.5501   27.9402   14.4832 H         1 G52         0.0577
     78 H36        23.0540   28.5368   16.1033 H         1 G52         0.0577
     79 H37         9.4252   17.6583   14.5930 H         1 G52         0.0561
     80 H38         9.5064   17.4263   16.3724 H         1 G52         0.0561
     81 H39        11.6825   16.6400   15.6822 H         1 G52         0.0292
     82 H40        11.8169   17.8817   14.3912 H         1 G52         0.0292
@<TRIPOS>BOND
     1    2    1 ar 
     2    6    1 ar 
     3    1   38 1  
     4    3    2 ar 
     5    4    3 ar 
     6    4    5 ar 
     7    7    4 1  
     8    5    6 ar 
     9    7    8 2  
    10    7    9 2  
    11   10    7 am 
    12   10   11 1  
    13   15   10 1  
    14   11   12 1  
    15   12   13 1  
    16   12   14 1  
    17   16   15 1  
    18   16   17 1  
    19   18   16 1  
    20   18   19 1  
    21   31   18 1  
    22   19   20 am 
    23   20   21 2  
    24   20   22 1  
    25   22   23 1  
    26   23   24 1  
    27   23   30 1  
    28   24   25 1  
    29   26   25 1  
    30   26   27 1  
    31   30   26 1  
    32   28   27 1  
    33   29   28 1  
    34   28   40 1  
    35   30   29 1  
    36   29   42 1  
    37   37   31 1  
    38   32   33 ar 
    39   32   37 ar 
    40   33   34 ar 
    41   34   35 ar 
    42   35   36 ar 
    43   36   37 ar 
    44   38   39 1  
    45   40   41 1  
    46   41   42 1  
    47    2   43 1  
    48    3   44 1  
    49    5   45 1  
    50    6   46 1  
    51   11   47 1  
    52   11   48 1  
    53   12   49 1  
    54   13   50 1  
    55   13   51 1  
    56   13   52 1  
    57   14   53 1  
    58   14   54 1  
    59   14   55 1  
    60   15   56 1  
    61   15   57 1  
    62   16   58 1  
    63   17   59 1  
    64   18   60 1  
    65   19   61 1  
    66   23   62 1  
    67   24   63 1  
    68   24   64 1  
    69   26   65 1  
    70   28   66 1  
    71   29   67 1  
    72   30   68 1  
    73   31   69 1  
    74   31   70 1  
    75   32   71 1  
    76   33   72 1  
    77   34   73 1  
    78   35   74 1  
    79   36   75 1  
    80   39   76 1  
    81   39   77 1  
    82   39   78 1  
    83   41   79 1  
    84   41   80 1  
    85   42   81 1  
    86   42   82 1  
@<TRIPOS>SUBSTRUCTURE
     1 G52         1

