### 
### Created by X-TOOL on Mon Sep 10 21:13:04 2018
### 

@<TRIPOS>MOLECULE
3okh_ligand
   66    70     1     0     0
SMALL
GAST_HUCK


@<TRIPOS>ATOM
      1 C1         19.6920   64.2510   11.7340 C.ar      1 OKH        -0.0621
      2 C2         21.0740   64.5030   11.6130 C.ar      1 OKH        -0.0023
      3 C3         21.9210   64.4820   12.7150 C.ar      1 OKH        -0.0244
      4 C4         19.1220   64.0120   12.9750 C.ar      1 OKH        -0.0576
      5 C5         19.9440   64.0120   14.1130 C.ar      1 OKH         0.0362
      6 C6         21.3530   64.2800   13.9710 C.ar      1 OKH         0.0914
      7 N7         21.9030   64.1930   15.2530 N.pl3     1 OKH        -0.2121
      8 C8         20.8290   63.9860   16.1400 C.2       1 OKH         0.1469
      9 N9         19.6740   63.7790   15.4620 N.2       1 OKH        -0.3019
     10 C10        21.0600   63.7900   17.5880 C.ar      1 OKH         0.0353
     11 C11        23.2900   64.2470   15.6100 C.3       1 OKH         0.1578
     12 C12        23.8360   65.6920   15.4950 C.2       1 OKH         0.2093
     13 C13        24.2500   63.3920   14.7620 C.3       1 OKH         0.0059
     14 O14        23.8170   66.2970   14.3980 O.2       1 OKH        -0.3938
     15 N15        24.3960   66.2250   16.6230 N.am      1 OKH        -0.2815
     16 C16        25.1190   67.4730   16.5390 C.3       1 OKH         0.0421
     17 C17        21.6890   64.8370   10.3170 C.2       1 OKH         0.0571
     18 O18        21.3140   64.0880    9.2580 O.co2     1 OKH        -0.5623
     19 O19        22.5060   65.7390   10.0440 O.co2     1 OKH        -0.5623
     20 C20        20.6760   62.5760   18.2170 C.ar      1 OKH        -0.0436
     21 C21        20.9350   62.3680   19.5830 C.ar      1 OKH        -0.0427
     22 C22        21.6360   63.3420   20.3240 C.ar      1 OKH         0.0448
     23 C23        22.0410   64.5420   19.6930 C.ar      1 OKH        -0.0427
     24 C24        21.7680   64.7540   18.3330 C.ar      1 OKH        -0.0436
     25 C25        25.6960   63.8380   15.0630 C.3       1 OKH        -0.0454
     26 C26        26.7400   62.9070   14.5010 C.3       1 OKH        -0.0526
     27 C27        26.4560   61.4820   14.9060 C.3       1 OKH        -0.0530
     28 C28        25.0690   61.0650   14.4360 C.3       1 OKH        -0.0526
     29 C29        23.9680   61.9230   15.0450 C.3       1 OKH        -0.0454
     30 C30        26.6250   67.3300   16.2240 C.3       1 OKH        -0.0299
     31 C31        27.1560   68.7000   15.8620 C.3       1 OKH        -0.0510
     32 C32        26.9260   69.7050   16.9850 C.3       1 OKH        -0.0529
     33 C33        25.4700   69.7610   17.4220 C.3       1 OKH        -0.0510
     34 C34        24.8760   68.4010   17.7370 C.3       1 OKH        -0.0299
     35 CL35       21.9770   63.0450   21.9840 Cl        1 OKH        -0.0666
     36 H          19.0651   64.2440   10.8423 H         1 OKH         0.0554
     37 H          22.9962   64.6193   12.6000 H         1 OKH         0.0585
     38 H          18.0517   63.8269   13.0657 H         1 OKH         0.0560
     39 H          23.2806   63.8518   16.6258 H         1 OKH         0.0885
     40 H          24.1021   63.5308   13.6910 H         1 OKH         0.0354
     41 H          24.3038   65.7445   17.5180 H         1 OKH         0.1855
     42 H          24.6840   67.9573   15.6647 H         1 OKH         0.0556
     43 H          20.1769   61.8000   17.6365 H         1 OKH         0.0664
     44 H          20.5941   61.4541   20.0694 H         1 OKH         0.0633
     45 H          22.5675   65.3053   20.2660 H         1 OKH         0.0633
     46 H          22.1059   65.6706   17.8496 H         1 OKH         0.0664
     47 H          25.8167   63.8509   16.1462 H         1 OKH         0.0270
     48 H          25.8420   64.8133   14.5988 H         1 OKH         0.0270
     49 H          27.7164   63.1962   14.8898 H         1 OKH         0.0265
     50 H          26.7237   62.9744   13.4132 H         1 OKH         0.0265
     51 H          26.5015   61.4052   15.9923 H         1 OKH         0.0265
     52 H          27.1982   60.8276   14.4488 H         1 OKH         0.0265
     53 H          24.9035   60.0333   14.7464 H         1 OKH         0.0265
     54 H          25.0296   61.1841   13.3532 H         1 OKH         0.0265
     55 H          23.0092   61.6471   14.6060 H         1 OKH         0.0270
     56 H          23.9369   61.7612   16.1225 H         1 OKH         0.0270
     57 H          26.7736   66.6365   15.3963 H         1 OKH         0.0287
     58 H          27.1563   66.9358   17.0903 H         1 OKH         0.0287
     59 H          26.6302   69.0497   14.9735 H         1 OKH         0.0266
     60 H          28.2287   68.6186   15.6868 H         1 OKH         0.0266
     61 H          27.2065   70.6921   16.6176 H         1 OKH         0.0265
     62 H          27.5243   69.3963   17.8423 H         1 OKH         0.0265
     63 H          24.8976   70.1837   16.5963 H         1 OKH         0.0266
     64 H          25.4259   70.3555   18.3345 H         1 OKH         0.0266
     65 H          25.3465   67.9874   18.6290 H         1 OKH         0.0287
     66 H          23.8061   68.4965   17.9222 H         1 OKH         0.0287
@<TRIPOS>BOND
     1    1    2 ar 
     2    1    4 ar 
     3    2    3 ar 
     4    2   17 1  
     5    3    6 ar 
     6    4    5 ar 
     7    5    6 ar 
     8    5    9 1  
     9    6    7 1  
    10    7    8 1  
    11    7   11 1  
    12    8    9 2  
    13    8   10 1  
    14   10   20 ar 
    15   10   24 ar 
    16   11   12 1  
    17   11   13 1  
    18   12   14 2  
    19   12   15 am 
    20   13   25 1  
    21   13   29 1  
    22   15   16 1  
    23   16   30 1  
    24   16   34 1  
    25   17   18 ar 
    26   17   19 ar 
    27   20   21 ar 
    28   21   22 ar 
    29   22   23 ar 
    30   22   35 1  
    31   23   24 ar 
    32   25   26 1  
    33   26   27 1  
    34   27   28 1  
    35   28   29 1  
    36   30   31 1  
    37   31   32 1  
    38   32   33 1  
    39   33   34 1  
    40    1   36 1  
    41    3   37 1  
    42    4   38 1  
    43   11   39 1  
    44   13   40 1  
    45   15   41 1  
    46   16   42 1  
    47   20   43 1  
    48   21   44 1  
    49   23   45 1  
    50   24   46 1  
    51   25   47 1  
    52   25   48 1  
    53   26   49 1  
    54   26   50 1  
    55   27   51 1  
    56   27   52 1  
    57   28   53 1  
    58   28   54 1  
    59   29   55 1  
    60   29   56 1  
    61   30   57 1  
    62   30   58 1  
    63   31   59 1  
    64   31   60 1  
    65   32   61 1  
    66   32   62 1  
    67   33   63 1  
    68   33   64 1  
    69   34   65 1  
    70   34   66 1  
@<TRIPOS>SUBSTRUCTURE
     1 OKH         1

