### 
### Created by X-TOOL on Mon Sep 10 21:13:04 2018
### 

@<TRIPOS>MOLECULE
3oki_ligand
   64    68     1     0     0
SMALL
GAST_HUCK


@<TRIPOS>ATOM
      1 C1         13.6490   24.9950    2.8130 C.2       1 OKI         0.1459
      2 N2         12.8180   24.3330    3.7600 N.pl3     1 OKI        -0.2131
      3 N3         12.9820   25.9140    2.0870 N.2       1 OKI        -0.3038
      4 C4         12.5150   21.9900    4.3880 C.2       1 OKI         0.2092
      5 C5         13.2440   23.3330    4.6950 C.3       1 OKI         0.1576
      6 C6         11.5370   24.8890    3.6120 C.ar      1 OKI         0.0878
      7 C7         11.6570   25.8850    2.5620 C.ar      1 OKI         0.0338
      8 N8         12.5400   21.6090    3.0750 N.am      1 OKI        -0.2815
      9 C9         15.0680   24.6570    2.6540 C.ar      1 OKI         0.0347
     10 O10        11.9680   21.3130    5.2750 O.2       1 OKI        -0.3938
     11 C11        13.0930   23.7080    6.1910 C.3       1 OKI         0.0059
     12 C12        15.4310   23.5830    1.8340 C.ar      1 OKI        -0.0438
     13 C13        16.0590   25.3850    3.3270 C.ar      1 OKI        -0.0438
     14 C14        17.7510   23.9630    2.3380 C.ar      1 OKI         0.0446
     15 C15        11.8750   20.4420    2.5460 C.3       1 OKI         0.0421
     16 C16        16.7660   23.2320    1.6690 C.ar      1 OKI        -0.0429
     17 C17        17.4020   25.0390    3.1650 C.ar      1 OKI        -0.0429
     18 CL18       19.3820   23.5320    2.1340 Cl        1 OKI        -0.0667
     19 C19        10.3130   24.6580    4.2580 C.ar      1 OKI        -0.0387
     20 C20        10.5280   26.6290    2.1830 C.ar      1 OKI        -0.0607
     21 C21        13.2280   25.2090    6.4020 C.3       1 OKI        -0.0454
     22 C22        14.1360   22.9560    7.0090 C.3       1 OKI        -0.0454
     23 C23        12.7620   19.7120    1.5200 C.3       1 OKI        -0.0299
     24 C24        10.5540   20.8400    1.8700 C.3       1 OKI        -0.0299
     25 C25         9.2230   25.4140    3.8550 C.ar      1 OKI        -0.0741
     26 C26         9.3310   26.3790    2.8360 C.ar      1 OKI        -0.0758
     27 C27        14.0580   23.3370    8.4720 C.3       1 OKI        -0.0526
     28 C28        13.2550   25.5990    7.8690 C.3       1 OKI        -0.0526
     29 C29         9.8540   19.6150    1.3280 C.3       1 OKI        -0.0510
     30 C30        12.0570   18.5060    0.9420 C.3       1 OKI        -0.0510
     31 C31        14.2880   24.8190    8.6530 C.3       1 OKI        -0.0530
     32 C32        10.7420   18.9180    0.3180 C.3       1 OKI        -0.0529
     33 H          14.3199   23.2359    4.5499 H         1 OKI         0.0885
     34 H          13.0660   22.1908    2.4229 H         1 OKI         0.1855
     35 H          12.0955   23.4205    6.5233 H         1 OKI         0.0354
     36 H          14.6573   23.0144    1.3181 H         1 OKI         0.0663
     37 H          15.7824   26.2175    3.9739 H         1 OKI         0.0663
     38 H          11.6753   19.7714    3.3818 H         1 OKI         0.0556
     39 H          17.0410   22.3964    1.0254 H         1 OKI         0.0633
     40 H          18.1776   25.6049    3.6810 H         1 OKI         0.0633
     41 H          10.2225   23.9118    5.0474 H         1 OKI         0.0547
     42 H          10.5910   27.3820    1.3974 H         1 OKI         0.0555
     43 H          12.3620   25.6887    5.9458 H         1 OKI         0.0270
     44 H          14.1713   25.5245    5.9561 H         1 OKI         0.0270
     45 H          15.1264   23.2134    6.6334 H         1 OKI         0.0270
     46 H          13.9478   21.8864    6.9162 H         1 OKI         0.0270
     47 H          13.6685   19.3754    2.0230 H         1 OKI         0.0287
     48 H          12.9915   20.4015    0.7076 H         1 OKI         0.0287
     49 H          10.7662   21.5226    1.0471 H         1 OKI         0.0287
     50 H           9.9094   21.3233    2.6042 H         1 OKI         0.0287
     51 H           8.2590   25.2573    4.3390 H         1 OKI         0.0547
     52 H           8.4456   26.9476    2.5514 H         1 OKI         0.0525
     53 H          14.8278   22.7924    9.0187 H         1 OKI         0.0265
     54 H          13.0661   23.0866    8.8481 H         1 OKI         0.0265
     55 H          12.2747   25.3831    8.2939 H         1 OKI         0.0265
     56 H          13.5106   26.6567    7.9326 H         1 OKI         0.0265
     57 H           8.9258   19.9167    0.8427 H         1 OKI         0.0266
     58 H           9.6384   18.9314    2.1492 H         1 OKI         0.0266
     59 H          11.8638   17.7894    1.7403 H         1 OKI         0.0266
     60 H          12.6894   18.0562    0.1766 H         1 OKI         0.0266
     61 H          15.2836   25.0755    8.2911 H         1 OKI         0.0265
     62 H          14.2024   25.0700    9.7102 H         1 OKI         0.0265
     63 H          10.9455   19.6070   -0.5017 H         1 OKI         0.0265
     64 H          10.2299   18.0243   -0.0387 H         1 OKI         0.0265
@<TRIPOS>BOND
     1    1    2 1  
     2    1    3 2  
     3    1    9 1  
     4    2    5 1  
     5    2    6 1  
     6    3    7 1  
     7    5    4 1  
     8    4    8 am 
     9    4   10 2  
    10    5   11 1  
    11    6    7 ar 
    12    6   19 ar 
    13    7   20 ar 
    14    8   15 1  
    15    9   12 ar 
    16    9   13 ar 
    17   11   21 1  
    18   11   22 1  
    19   12   16 ar 
    20   13   17 ar 
    21   16   14 ar 
    22   14   17 ar 
    23   14   18 1  
    24   15   23 1  
    25   15   24 1  
    26   19   25 ar 
    27   20   26 ar 
    28   21   28 1  
    29   22   27 1  
    30   23   30 1  
    31   24   29 1  
    32   25   26 ar 
    33   27   31 1  
    34   28   31 1  
    35   29   32 1  
    36   30   32 1  
    37    5   33 1  
    38    8   34 1  
    39   11   35 1  
    40   12   36 1  
    41   13   37 1  
    42   15   38 1  
    43   16   39 1  
    44   17   40 1  
    45   19   41 1  
    46   20   42 1  
    47   21   43 1  
    48   21   44 1  
    49   22   45 1  
    50   22   46 1  
    51   23   47 1  
    52   23   48 1  
    53   24   49 1  
    54   24   50 1  
    55   25   51 1  
    56   26   52 1  
    57   27   53 1  
    58   27   54 1  
    59   28   55 1  
    60   28   56 1  
    61   29   57 1  
    62   29   58 1  
    63   30   59 1  
    64   30   60 1  
    65   31   61 1  
    66   31   62 1  
    67   32   63 1  
    68   32   64 1  
@<TRIPOS>SUBSTRUCTURE
     1 OKI         1

