### 
### Created by X-TOOL on Mon Sep 10 21:13:05 2018
### 

@<TRIPOS>MOLECULE
3oku_ligand
   53    56     1     0     0
SMALL
GAST_HUCK


@<TRIPOS>ATOM
      1 CAA        -6.7240    4.1750   16.4140 C.3       1 VZ4        -0.0580
      2 CAB        -0.2850    8.9990   15.1130 C.3       1 VZ4        -0.0545
      3 NAC        -5.2380   -0.7320   16.1660 N.am      1 VZ4        -0.2384
      4 OAD        -0.4820   11.3020   12.9780 O.2       1 VZ4        -0.3322
      5 OAE        -4.5650    1.4860   17.2250 O.2       1 VZ4        -0.1233
      6 OAF        -6.8030    1.2810   16.2330 O.2       1 VZ4        -0.1233
      7 CAG        -3.0300    2.8160   14.2230 C.ar      1 VZ4        -0.0418
      8 CAH        -4.5470    5.1080   14.2470 C.ar      1 VZ4        -0.0729
      9 CAI        -6.5800    3.9380   14.9060 C.3       1 VZ4        -0.0284
     10 CAJ         1.0360    9.5030   12.2250 C.3       1 VZ4         0.0229
     11 CAK        -0.9480    3.9950   13.5660 C.3       1 VZ4        -0.0267
     12 CAL         1.0410    8.0560   12.7670 C.3       1 VZ4        -0.0350
     13 CAM        -0.5400    5.2410   12.7690 C.3       1 VZ4        -0.0407
     14 CAN        -3.0080    7.7990   14.4070 C.3       1 VZ4        -0.0433
     15 CAO        -2.4230    9.1140   13.8130 C.3       1 VZ4        -0.0408
     16 OAP        -4.8470    1.3800   14.8310 O.3       1 VZ4        -0.1649
     17 CAQ        -0.1720   10.1120   12.9560 C.2       1 VZ4         0.1328
     18 CAR        -5.1200    3.8690   14.5660 C.ar      1 VZ4        -0.0245
     19 CAS        -2.4390    4.0490   13.9100 C.ar      1 VZ4        -0.0557
     20 CAT        -4.3710    2.6790   14.5630 C.ar      1 VZ4         0.1128
     21 CAU        -3.1870    5.2270   13.9430 C.ar      1 VZ4        -0.0549
     22 CAV        -2.5400    6.5710   13.5700 C.3       1 VZ4        -0.0134
     23 CAW        -0.9870    6.4970   13.5250 C.3       1 VZ4        -0.0271
     24 CAX        -0.4780    7.7990   12.8700 C.3       1 VZ4        -0.0241
     25 CAY        -0.8970    9.0000   13.7150 C.3       1 VZ4         0.0352
     26 SAZ        -5.3660    0.8870   16.1510 S.o2      1 VZ4         0.1760
     27 H1         -7.7909    4.2276   16.6766 H         1 VZ4         0.0248
     28 H2         -6.2326    5.1210   16.6851 H         1 VZ4         0.0248
     29 H3         -6.2519    3.3463   16.9622 H         1 VZ4         0.0248
     30 H4         -0.6275    9.8875   15.6638 H         1 VZ4         0.0219
     31 H5          0.8119    9.0174   15.0331 H         1 VZ4         0.0219
     32 H6         -0.5984    8.0915   15.6498 H         1 VZ4         0.0219
     33 H7         -5.5353   -1.2497   16.9683 H         1 VZ4         0.1657
     34 H8         -4.8618   -1.2112   15.3730 H         1 VZ4         0.1657
     35 H9         -2.4109    1.9265   14.1986 H         1 VZ4         0.0445
     36 H10        -5.1720    5.9936   14.2357 H         1 VZ4         0.0451
     37 H11        -7.0494    4.7662   14.3548 H         1 VZ4         0.0387
     38 H12        -7.0688    2.9915   14.6319 H         1 VZ4         0.0387
     39 H13         0.8942    9.5211   11.1343 H         1 VZ4         0.0487
     40 H14         1.9666   10.0299   12.4826 H         1 VZ4         0.0487
     41 H15        -0.3624    3.9513   14.4961 H         1 VZ4         0.0397
     42 H16        -0.7469    3.0969   12.9635 H         1 VZ4         0.0397
     43 H17         1.5330    7.9901   13.7486 H         1 VZ4         0.0291
     44 H18         1.5255    7.3600   12.0665 H         1 VZ4         0.0291
     45 H19        -1.0204    5.2176   11.7797 H         1 VZ4         0.0288
     46 H20         0.5529    5.2563   12.6457 H         1 VZ4         0.0288
     47 H21        -4.1066    7.8512   14.3912 H         1 VZ4         0.0285
     48 H22        -2.6613    7.6840   15.4446 H         1 VZ4         0.0285
     49 H23        -2.6857    9.9593   14.4660 H         1 VZ4         0.0256
     50 H24        -2.8427    9.2811   12.8101 H         1 VZ4         0.0256
     51 H25        -2.8674    6.7730   12.5395 H         1 VZ4         0.0428
     52 H26        -0.5955    6.4399   14.5514 H         1 VZ4         0.0324
     53 H27        -0.9187    7.8506   11.8635 H         1 VZ4         0.0296
@<TRIPOS>BOND
     1    9    1 1  
     2   25    2 1  
     3   26    3 am 
     4   17    4 2  
     5   26    5 2  
     6   26    6 2  
     7   19    7 ar 
     8    7   20 ar 
     9    8   18 ar 
    10   21    8 ar 
    11   18    9 1  
    12   10   12 1  
    13   17   10 1  
    14   11   13 1  
    15   19   11 1  
    16   12   24 1  
    17   13   23 1  
    18   14   15 1  
    19   22   14 1  
    20   15   25 1  
    21   20   16 1  
    22   16   26 1  
    23   25   17 1  
    24   18   20 ar 
    25   21   19 ar 
    26   21   22 1  
    27   22   23 1  
    28   23   24 1  
    29   24   25 1  
    30    1   27 1  
    31    1   28 1  
    32    1   29 1  
    33    2   30 1  
    34    2   31 1  
    35    2   32 1  
    36    3   33 1  
    37    3   34 1  
    38    7   35 1  
    39    8   36 1  
    40    9   37 1  
    41    9   38 1  
    42   10   39 1  
    43   10   40 1  
    44   11   41 1  
    45   11   42 1  
    46   12   43 1  
    47   12   44 1  
    48   13   45 1  
    49   13   46 1  
    50   14   47 1  
    51   14   48 1  
    52   15   49 1  
    53   15   50 1  
    54   22   51 1  
    55   23   52 1  
    56   24   53 1  
@<TRIPOS>SUBSTRUCTURE
     1 VZ4         1

