### 
### Created by X-TOOL on Fri Sep 26 17:34:49 2014
### 

@<TRIPOS>MOLECULE
3okv_ligand
   53    56     1     0     0
SMALL
GAST_HUCK


@<TRIPOS>ATOM
      1 CAA        -5.2380    5.8260   15.0670 C.3       1 VZ4        -0.0580
      2 CAB        -1.2650    4.9030   10.2280 C.3       1 VZ4        -0.0545
      3 NAC        -5.4230   -0.3350   16.4610 N.am      1 VZ4        -0.2384
      4 OAD        -1.2530    5.0900    6.9310 O.2       1 VZ4        -0.3322
      5 OAE        -5.4680    1.2950   18.3910 O.2       1 VZ4        -0.1233
      6 OAF        -7.1130    1.6020   16.6270 O.2       1 VZ4        -0.1233
      7 CAG        -4.0990    1.2730   14.2150 C.ar      1 VZ4        -0.0418
      8 CAH        -5.0260    3.5870   12.9930 C.ar      1 VZ4        -0.0729
      9 CAI        -5.9500    4.4720   15.1510 C.3       1 VZ4        -0.0284
     10 CAJ        -0.1020    3.1340    7.8800 C.3       1 VZ4         0.0229
     11 CAK        -3.1590    0.3170   12.1470 C.3       1 VZ4        -0.0267
     12 CAL        -0.5010    2.3540    9.1530 C.3       1 VZ4        -0.0350
     13 CAM        -2.5880    0.7560   10.8010 C.3       1 VZ4        -0.0407
     14 CAN        -4.1630    4.2820   10.3470 C.3       1 VZ4        -0.0433
     15 CAO        -3.4600    4.6200    9.0060 C.3       1 VZ4        -0.0408
     16 OAP        -4.8710    2.0370   16.3160 O.3       1 VZ4        -0.1649
     17 CAQ        -1.1430    4.2610    7.8320 C.2       1 VZ4         0.1328
     18 CAR        -5.2030    3.4020   14.3680 C.ar      1 VZ4        -0.0245
     19 CAS        -3.8940    1.4600   12.8530 C.ar      1 VZ4        -0.0557
     20 CAT        -4.7770    2.2170   14.9520 C.ar      1 VZ4         0.1128
     21 CAU        -4.3650    2.6170   12.2390 C.ar      1 VZ4        -0.0549
     22 CAV        -4.0750    2.7930   10.7490 C.3       1 VZ4        -0.0134
     23 CAW        -2.6330    2.2690   10.6100 C.3       1 VZ4        -0.0271
     24 CAX        -1.9950    2.6630    9.2790 C.3       1 VZ4        -0.0241
     25 CAY        -2.0030    4.1600    9.0970 C.3       1 VZ4         0.0352
     26 SAZ        -5.7530    1.1560   16.9260 S.o2      1 VZ4         0.1760
     27 H1         -5.8034    6.5739   15.6423 H         1 VZ4         0.0248
     28 H2         -5.1756    6.1429   14.0155 H         1 VZ4         0.0248
     29 H3         -4.2239    5.7335   15.4829 H         1 VZ4         0.0248
     30 H4         -1.3041    5.9864   10.0415 H         1 VZ4         0.0219
     31 H5         -0.2158    4.5740   10.2593 H         1 VZ4         0.0219
     32 H6         -1.7484    4.6790   11.1903 H         1 VZ4         0.0219
     33 H7         -5.9668   -1.0990   16.8083 H         1 VZ4         0.1657
     34 H8         -4.6725   -0.5050   15.8224 H         1 VZ4         0.1657
     35 H9         -3.7229    0.3790   14.6992 H         1 VZ4         0.0445
     36 H10        -5.4022    4.4835   12.5135 H         1 VZ4         0.0451
     37 H11        -6.9644    4.5749   14.7381 H         1 VZ4         0.0387
     38 H12        -6.0127    4.1654   16.2055 H         1 VZ4         0.0387
     39 H13        -0.1680    2.4953    6.9869 H         1 VZ4         0.0487
     40 H14         0.9170    3.5392    7.9666 H         1 VZ4         0.0487
     41 H15        -2.3342   -0.0260   12.7889 H         1 VZ4         0.0397
     42 H16        -3.8639   -0.5111   11.9817 H         1 VZ4         0.0397
     43 H17         0.0547    2.7155   10.0308 H         1 VZ4         0.0291
     44 H18        -0.3278    1.2749    9.0282 H         1 VZ4         0.0291
     45 H19        -3.1727    0.2821    9.9988 H         1 VZ4         0.0288
     46 H20        -1.5413    0.4239   10.7371 H         1 VZ4         0.0288
     47 H21        -5.2253    4.5532   10.2578 H         1 VZ4         0.0285
     48 H22        -3.6967    4.8823   11.1421 H         1 VZ4         0.0285
     49 H23        -3.4969    5.7052    8.8300 H         1 VZ4         0.0256
     50 H24        -3.9640    4.0971    8.1798 H         1 VZ4         0.0256
     51 H25        -4.7722    2.2030   10.1360 H         1 VZ4         0.0428
     52 H26        -2.0358    2.7279   11.4117 H         1 VZ4         0.0324
     53 H27        -2.5521    2.1659    8.4712 H         1 VZ4         0.0296
@<TRIPOS>BOND
     1    9    1 1  
     2   25    2 1  
     3   26    3 am 
     4   17    4 2  
     5   26    5 2  
     6   26    6 2  
     7   19    7 ar 
     8    7   20 ar 
     9    8   18 ar 
    10   21    8 ar 
    11   18    9 1  
    12   10   12 1  
    13   17   10 1  
    14   11   13 1  
    15   19   11 1  
    16   12   24 1  
    17   13   23 1  
    18   14   15 1  
    19   22   14 1  
    20   15   25 1  
    21   20   16 1  
    22   16   26 1  
    23   25   17 1  
    24   18   20 ar 
    25   21   19 ar 
    26   21   22 1  
    27   22   23 1  
    28   23   24 1  
    29   24   25 1  
    30    1   27 1  
    31    1   28 1  
    32    1   29 1  
    33    2   30 1  
    34    2   31 1  
    35    2   32 1  
    36    3   33 1  
    37    3   34 1  
    38    7   35 1  
    39    8   36 1  
    40    9   37 1  
    41    9   38 1  
    42   10   39 1  
    43   10   40 1  
    44   11   41 1  
    45   11   42 1  
    46   12   43 1  
    47   12   44 1  
    48   13   45 1  
    49   13   46 1  
    50   14   47 1  
    51   14   48 1  
    52   15   49 1  
    53   15   50 1  
    54   22   51 1  
    55   23   52 1  
    56   24   53 1  
@<TRIPOS>SUBSTRUCTURE
     1 VZ4         1

