### 
### Created by X-TOOL on Mon Sep 10 21:13:05 2018
### 

@<TRIPOS>MOLECULE
3old_ligand
  130   135     1     0     0
SMALL
GAST_HUCK


@<TRIPOS>ATOM
      1 C1         15.8690  -19.1300  -28.5520 C.3       1 GLC         0.1884
      2 C2         15.4630  -19.1880  -30.0120 C.3       1 GLC         0.1341
      3 C3         14.8560  -20.5520  -30.3360 C.3       1 GLC         0.1141
      4 C4         15.7780  -21.6670  -29.8450 C.3       1 GLC         0.1119
      5 C5         16.0920  -21.4890  -28.3630 C.3       1 GLC         0.1130
      6 C6         17.0110  -22.5370  -27.7990 C.3       1 GLC         0.0730
      7 O2         14.5250  -18.1650  -30.2690 O.3       1 GLC        -0.3841
      8 O3         14.6930  -20.6650  -31.7340 O.3       1 GLC        -0.3864
      9 O4         15.1530  -22.9210  -30.0490 O.3       1 GLC        -0.3865
     10 O5         16.7130  -20.2180  -28.1790 O.3       1 GLC        -0.3405
     11 O6         17.9960  -22.8820  -28.7550 O.3       1 GLC        -0.3924
     12 C1         13.6310  -16.2360  -24.9020 C.3       1 GLC         0.1904
     13 C2         13.1140  -16.0620  -26.3140 C.3       1 GLC         0.1343
     14 C3         13.2270  -17.3300  -27.1540 C.3       1 GLC         0.1144
     15 C4         14.6100  -17.8980  -27.0030 C.3       1 GLC         0.1184
     16 C5         14.9460  -18.1510  -25.5330 C.3       1 GLC         0.1134
     17 C6         16.2880  -18.8360  -25.3040 C.3       1 GLC         0.0730
     18 O2         11.7590  -15.6510  -26.2770 O.3       1 GLC        -0.3841
     19 O3         12.9550  -17.0780  -28.5170 O.3       1 GLC        -0.3864
     20 O4         14.7360  -19.1130  -27.7530 O.3       1 GLC        -0.3401
     21 O5         14.9230  -16.8850  -24.8260 O.3       1 GLC        -0.3404
     22 O6         17.3490  -18.1470  -25.9100 O.3       1 GLC        -0.3924
     23 C1         10.2100  -16.4850  -21.2740 C.3       1 ACI         0.0141
     24 C2         11.0920  -15.2570  -21.1570 C.3       1 ACI         0.1303
     25 C3         11.7930  -15.2330  -22.5030 C.3       1 ACI         0.1219
     26 C4         12.6210  -16.5250  -22.6690 C.3       1 ACI         0.1178
     27 C5         12.1660  -17.7570  -21.8520 C.2       1 ACI        -0.0196
     28 C6         13.0860  -18.9890  -21.8400 C.3       1 ACI         0.0719
     29 C7         10.9720  -17.7940  -21.1540 C.2       1 ACI        -0.0543
     30 N1          8.7550  -16.4280  -21.5640 N.4       1 ACI         0.2433
     31 O2         10.4270  -14.1020  -20.6140 O.3       1 ACI        -0.3821
     32 O3         12.5600  -14.0400  -22.6870 O.3       1 ACI        -0.3843
     33 O4         12.6380  -16.8360  -24.0570 O.3       1 ACI        -0.3313
     34 O6         13.9270  -18.9390  -20.6870 O.3       1 ACI        -0.3839
     35 C1          6.5200  -19.2690  -23.8420 C.3       1 G6D         0.1886
     36 O2          5.6230  -20.0020  -21.7310 O.3       1 G6D        -0.3840
     37 C2          6.8250  -19.5690  -22.3710 C.3       1 G6D         0.1370
     38 C3A         7.3410  -18.3360  -21.6210 C.3       1 G6D         0.1304
     39 O3A         7.7990  -18.6970  -20.3120 O.3       1 G6D        -0.3834
     40 C4A         8.4330  -17.5970  -22.3740 C.3       1 G6D         0.0341
     41 C5A         7.8350  -17.2640  -23.7450 C.3       1 G6D         0.1038
     42 O5          7.5960  -18.5110  -24.4190 O.3       1 G6D        -0.3401
     43 C6A         8.6650  -16.3430  -24.6370 C.3       1 G6D        -0.0332
     44 C1          1.5510  -19.4150  -25.8950 C.3       1 GLC         0.1884
     45 C2          1.7090  -19.9500  -24.4780 C.3       1 GLC         0.1341
     46 C3          2.9780  -19.3460  -23.7420 C.3       1 GLC         0.1144
     47 C4          4.2430  -19.3680  -24.6470 C.3       1 GLC         0.1184
     48 C5          3.8030  -18.6730  -25.9550 C.3       1 GLC         0.1134
     49 C6          4.8500  -18.4280  -26.9960 C.3       1 GLC         0.0730
     50 O2          0.5730  -19.7770  -23.6630 O.3       1 GLC        -0.3841
     51 O3          3.1900  -20.0530  -22.5330 O.3       1 GLC        -0.3864
     52 O4          5.2730  -18.5820  -24.0220 O.3       1 GLC        -0.3401
     53 O5          2.7480  -19.4340  -26.6000 O.3       1 GLC        -0.3405
     54 O6          5.6300  -19.5740  -27.1760 O.3       1 GLC        -0.3924
     55 C1         -2.3990  -16.7330  -27.7930 C.3       1 GLC         0.1854
     56 C2         -2.5620  -17.5220  -26.4780 C.3       1 GLC         0.1339
     57 C3         -1.2600  -17.4760  -25.7110 C.3       1 GLC         0.1144
     58 C4         -0.1720  -18.0310  -26.5850 C.3       1 GLC         0.1184
     59 C5         -0.0500  -17.2400  -27.9120 C.3       1 GLC         0.1134
     60 C6          0.9880  -17.7950  -28.8720 C.3       1 GLC         0.0730
     61 O1         -2.0890  -15.4080  -27.5180 O.3       1 GLC        -0.3649
     62 O2         -3.5520  -16.9170  -25.6720 O.3       1 GLC        -0.3841
     63 O3         -1.3450  -18.2560  -24.5280 O.3       1 GLC        -0.3864
     64 O4          1.0620  -18.1150  -25.8800 O.3       1 GLC        -0.3401
     65 O5         -1.3340  -17.2860  -28.5930 O.3       1 GLC        -0.3407
     66 O6          2.2510  -17.1930  -28.6300 O.3       1 GLC        -0.3924
     67 H1         16.4263  -18.1957  -28.3893 H         1 GLC         0.0938
     68 H2         16.3512  -19.0322  -30.6419 H         1 GLC         0.0671
     69 H3         13.8774  -20.6434  -29.8421 H         1 GLC         0.0648
     70 H4         16.7171  -21.6333  -30.4167 H         1 GLC         0.0647
     71 H5         15.1452  -21.5200  -27.8039 H         1 GLC         0.0647
     72 H6         16.4268  -23.4319  -27.5387 H         1 GLC         0.0584
     73 H7         17.5014  -22.1439  -26.8963 H         1 GLC         0.0584
     74 H8         13.7551  -18.3000  -29.7292 H         1 GLC         0.2101
     75 H9         14.3099  -21.5096  -31.9398 H         1 GLC         0.2100
     76 H10        14.3468  -22.9570  -29.5478 H         1 GLC         0.2100
     77 H11        18.5019  -22.1099  -28.9796 H         1 GLC         0.2095
     78 H12        13.7890  -15.2202  -24.5107 H         1 GLC         0.0939
     79 H13        13.7102  -15.2756  -26.7999 H         1 GLC         0.0671
     80 H14        12.4965  -18.0639  -26.7829 H         1 GLC         0.0648
     81 H15        15.3285  -17.1664  -27.4011 H         1 GLC         0.0651
     82 H16        14.1637  -18.8029  -25.1169 H         1 GLC         0.0647
     83 H17        16.2420  -19.8524  -25.7220 H         1 GLC         0.0584
     84 H18        16.4758  -18.8928  -24.2216 H         1 GLC         0.0584
     85 H19        11.4576  -15.4776  -27.1611 H         1 GLC         0.2101
     86 H20        13.0153  -17.8901  -29.0062 H         1 GLC         0.2100
     87 H21        17.4015  -17.2692  -25.5505 H         1 GLC         0.2095
     88 H22         9.9928  -16.4711  -20.1958 H         1 GLC         0.0950
     89 H23        11.8733  -15.4793  -20.4154 H         1 GLC         0.0694
     90 H24        11.0176  -15.2370  -23.2832 H         1 GLC         0.0671
     91 H25        13.6482  -16.2967  -22.3486 H         1 GLC         0.0773
     92 H26        13.7071  -18.9926  -22.7479 H         1 GLC         0.0706
     93 H27        12.4753  -19.9034  -21.8099 H         1 GLC         0.0706
     94 H28        10.6213  -18.6557  -20.5880 H         1 GLC         0.0299
     95 H29         8.5363  -15.5849  -22.0714 H         1 GLC         0.2029
     96 H30         8.2299  -16.4482  -20.7038 H         1 GLC         0.2029
     97 H31         9.7356  -13.8288  -21.2055 H         1 GLC         0.2103
     98 H32        11.9979  -13.2827  -22.5728 H         1 GLC         0.2102
     99 H33        13.3891  -18.9355  -19.9040 H         1 GLC         0.2125
    100 H34         6.4517  -20.2297  -24.3734 H         1 GLC         0.0938
    101 H35         4.9686  -19.3160  -21.7914 H         1 GLC         0.2101
    102 H36         7.5825  -20.3649  -22.3188 H         1 GLC         0.0672
    103 H37         6.4941  -17.6438  -21.5046 H         1 GLC         0.0679
    104 H38         7.0811  -19.0787  -19.8206 H         1 GLC         0.2102
    105 H39         9.3300  -18.2211  -22.4999 H         1 GLC         0.0903
    106 H40         6.8709  -16.7630  -23.5732 H         1 GLC         0.0652
    107 H41         8.1359  -16.1784  -25.5872 H         1 GLC         0.0257
    108 H42         9.6414  -16.8084  -24.8369 H         1 GLC         0.0257
    109 H43         8.8154  -15.3788  -24.1294 H         1 GLC         0.0257
    110 H44         0.8287  -20.0563  -26.4212 H         1 GLC         0.0938
    111 H45         1.8718  -21.0337  -24.5736 H         1 GLC         0.0671
    112 H46         2.7633  -18.2961  -23.4941 H         1 GLC         0.0648
    113 H47         4.5926  -20.3945  -24.8314 H         1 GLC         0.0651
    114 H48         3.3998  -17.6916  -25.6646 H         1 GLC         0.0647
    115 H49         5.4946  -17.5968  -26.6743 H         1 GLC         0.0584
    116 H50         4.3627  -18.1673  -27.9471 H         1 GLC         0.0584
    117 H51        -0.1882  -20.1381  -24.1019 H         1 GLC         0.2101
    118 H52         3.9080  -19.6539  -22.0558 H         1 GLC         0.2100
    119 H53         6.2899  -19.4057  -27.8383 H         1 GLC         0.2095
    120 H54        -3.3417  -16.7802  -28.3578 H         1 GLC         0.0935
    121 H55        -2.8384  -18.5634  -26.6994 H         1 GLC         0.0671
    122 H56        -1.0287  -16.4341  -25.4445 H         1 GLC         0.0648
    123 H57        -0.4605  -19.0587  -26.8506 H         1 GLC         0.0651
    124 H58         0.2103  -16.1980  -27.6744 H         1 GLC         0.0647
    125 H59         0.6768  -17.5836  -29.9057 H         1 GLC         0.0584
    126 H60         1.0705  -18.8825  -28.7290 H         1 GLC         0.0584
    127 H61        -2.7802  -15.0251  -26.9906 H         1 GLC         0.2126
    128 H62        -3.3050  -16.0179  -25.4904 H         1 GLC         0.2101
    129 H63        -0.5148  -18.2223  -24.0675 H         1 GLC         0.2100
    130 H64         2.5221  -17.3761  -27.7381 H         1 GLC         0.2095
@<TRIPOS>BOND
     1    1    2 1  
     2    1   10 1  
     3   20    1 1  
     4    2    3 1  
     5    2    7 1  
     6    3    4 1  
     7    3    8 1  
     8    5    4 1  
     9    4    9 1  
    10    5    6 1  
    11   10    5 1  
    12    6   11 1  
    13   12   13 1  
    14   12   21 1  
    15   33   12 1  
    16   13   14 1  
    17   13   18 1  
    18   14   15 1  
    19   14   19 1  
    20   16   15 1  
    21   15   20 1  
    22   16   17 1  
    23   21   16 1  
    24   17   22 1  
    25   23   24 1  
    26   23   29 1  
    27   30   23 1  
    28   24   25 1  
    29   24   31 1  
    30   25   26 1  
    31   25   32 1  
    32   27   26 1  
    33   26   33 1  
    34   27   28 1  
    35   29   27 2  
    36   28   34 1  
    37   40   30 1  
    38   35   37 1  
    39   35   42 1  
    40   52   35 1  
    41   37   36 1  
    42   37   38 1  
    43   38   39 1  
    44   38   40 1  
    45   41   40 1  
    46   42   41 1  
    47   41   43 1  
    48   44   45 1  
    49   44   53 1  
    50   64   44 1  
    51   45   46 1  
    52   45   50 1  
    53   46   47 1  
    54   46   51 1  
    55   48   47 1  
    56   47   52 1  
    57   48   49 1  
    58   53   48 1  
    59   49   54 1  
    60   56   55 1  
    61   55   61 1  
    62   55   65 1  
    63   57   56 1  
    64   56   62 1  
    65   58   57 1  
    66   57   63 1  
    67   58   59 1  
    68   58   64 1  
    69   59   60 1  
    70   59   65 1  
    71   60   66 1  
    72    1   67 1  
    73    2   68 1  
    74    3   69 1  
    75    4   70 1  
    76    5   71 1  
    77    6   72 1  
    78    6   73 1  
    79    7   74 1  
    80    8   75 1  
    81    9   76 1  
    82   11   77 1  
    83   12   78 1  
    84   13   79 1  
    85   14   80 1  
    86   15   81 1  
    87   16   82 1  
    88   17   83 1  
    89   17   84 1  
    90   18   85 1  
    91   19   86 1  
    92   22   87 1  
    93   23   88 1  
    94   24   89 1  
    95   25   90 1  
    96   26   91 1  
    97   28   92 1  
    98   28   93 1  
    99   29   94 1  
   100   30   95 1  
   101   30   96 1  
   102   31   97 1  
   103   32   98 1  
   104   34   99 1  
   105   35  100 1  
   106   36  101 1  
   107   37  102 1  
   108   38  103 1  
   109   39  104 1  
   110   40  105 1  
   111   41  106 1  
   112   43  107 1  
   113   43  108 1  
   114   43  109 1  
   115   44  110 1  
   116   45  111 1  
   117   46  112 1  
   118   47  113 1  
   119   48  114 1  
   120   49  115 1  
   121   49  116 1  
   122   50  117 1  
   123   51  118 1  
   124   54  119 1  
   125   55  120 1  
   126   56  121 1  
   127   57  122 1  
   128   58  123 1  
   129   59  124 1  
   130   60  125 1  
   131   60  126 1  
   132   61  127 1  
   133   62  128 1  
   134   63  129 1  
   135   66  130 1  
@<TRIPOS>SUBSTRUCTURE
     1 GLC         1

