### 
### Created by X-TOOL on Mon Sep 10 21:13:07 2018
### 

@<TRIPOS>MOLECULE
3olf_ligand
   63    67     1     0     0
SMALL
GAST_HUCK


@<TRIPOS>ATOM
      1 N1         12.9230   24.3670    3.4290 N.pl3     1 OLF        -0.2159
      2 C2         13.7900   25.0590    2.6300 C.2       1 OLF         0.1435
      3 N3         13.1910   26.0640    2.0560 N.2       1 OLF        -0.3077
      4 C4         11.7050   24.9700    3.3190 C.ar      1 OLF         0.0828
      5 C5         11.8950   26.0530    2.4330 C.ar      1 OLF         0.0286
      6 C6         12.3470   22.0100    3.8910 C.2       1 OLF         0.2358
      7 C7         13.2630   23.1670    4.2090 C.3       1 OLF         0.1626
      8 C8         10.4640   24.6980    3.8690 C.ar      1 OLF        -0.0062
      9 N9         11.9950   21.8630    2.5860 N.am      1 OLF        -0.2324
     10 C10        10.8110   26.8770    2.1230 C.ar      1 OLF        -0.0282
     11 C11         9.4090   25.5340    3.5580 C.ar      1 OLF         0.1540
     12 C12        11.1630   20.8480    2.0970 C.ar      1 OLF         0.0721
     13 C13         8.5610   17.8150    0.5560 C.2       1 OLF         0.0512
     14 C14        15.1950   24.6850    2.4710 C.ar      1 OLF         0.0335
     15 C15         9.5880   26.5960    2.6900 C.ar      1 OLF         0.1515
     16 C16         9.4560   18.8690    1.0970 C.ar      1 OLF        -0.0123
     17 C17        10.7970   18.5690    1.3860 C.ar      1 OLF        -0.0596
     18 C18        11.6600   19.5590    1.8620 C.ar      1 OLF        -0.0203
     19 O19        11.9280   21.2550    4.7520 O.2       1 OLF        -0.3819
     20 O20         7.4490   18.0720    0.1490 O.co2     1 OLF        -0.5649
     21 C21         9.8230   21.1500    1.8070 C.ar      1 OLF        -0.0434
     22 C22         8.9800   20.1680    1.3160 C.ar      1 OLF        -0.0681
     23 C23        13.7030   23.4560    5.6570 C.3       1 OLF         0.0062
     24 C24        16.1930   25.4720    3.0540 C.ar      1 OLF        -0.0442
     25 C25        15.5260   23.4990    1.8030 C.ar      1 OLF        -0.0442
     26 F26         8.1920   25.3390    4.1000 F         1 OLF        -0.1901
     27 F27         8.5280   27.3520    2.4190 F         1 OLF        -0.1928
     28 O28         8.9820   16.5380    0.5130 O.co2     1 OLF        -0.5649
     29 C29        17.8530   23.9350    2.2420 C.ar      1 OLF         0.0443
     30 C30        17.5150   25.0980    2.9190 C.ar      1 OLF        -0.0432
     31 C31        16.8550   23.1240    1.6980 C.ar      1 OLF        -0.0432
     32 CL32       19.5310   23.4810    2.1060 Cl        1 OLF        -0.0670
     33 C33        13.1080   19.2060    2.1710 C.3       1 OLF        -0.0345
     34 C34        13.6490   24.9290    6.0680 C.3       1 OLF        -0.0454
     35 C35        13.1480   22.5420    6.7450 C.3       1 OLF        -0.0454
     36 C36        13.9190   22.7440    8.0570 C.3       1 OLF        -0.0526
     37 C37        14.4600   25.1350    7.3620 C.3       1 OLF        -0.0526
     38 C38        13.9590   24.2160    8.4780 C.3       1 OLF        -0.0530
     39 H1         14.2095   22.8353    3.7572 H         1 OLF         0.0889
     40 H2         10.3234   23.8490    4.5282 H         1 OLF         0.0521
     41 H3         12.3553   22.5258    1.9296 H         1 OLF         0.2250
     42 H4         10.9297   27.7192    1.4509 H         1 OLF         0.0527
     43 H5         11.1658   17.5604    1.2384 H         1 OLF         0.0545
     44 H6          9.4478   22.1542    1.9679 H         1 OLF         0.0489
     45 H7          7.9448   20.4058    1.0996 H         1 OLF         0.0556
     46 H8         14.7775   23.2212    5.6426 H         1 OLF         0.0355
     47 H9         15.9312   26.3671    3.6066 H         1 OLF         0.0660
     48 H10        14.7479   22.8796    1.3716 H         1 OLF         0.0660
     49 H11        18.2953   25.7180    3.3454 H         1 OLF         0.0632
     50 H12        17.1202   22.2017    1.1939 H         1 OLF         0.0632
     51 H13        13.6346   20.1016    2.5323 H         1 OLF         0.0362
     52 H14        13.5980   18.8358    1.2584 H         1 OLF         0.0362
     53 H15        13.1379   18.4256    2.9456 H         1 OLF         0.0362
     54 H16        12.6031   25.2227    6.2409 H         1 OLF         0.0270
     55 H17        14.0761   25.5487    5.2658 H         1 OLF         0.0270
     56 H18        13.2469   21.4946    6.4240 H         1 OLF         0.0270
     57 H19        12.0859   22.7767    6.9088 H         1 OLF         0.0270
     58 H20        14.9500   22.3851    7.9220 H         1 OLF         0.0265
     59 H21        13.4287   22.1609    8.8505 H         1 OLF         0.0265
     60 H22        14.3598   26.1814    7.6861 H         1 OLF         0.0265
     61 H23        15.5186   24.9129    7.1618 H         1 OLF         0.0265
     62 H24        14.6294   24.3164    9.3443 H         1 OLF         0.0265
     63 H25        12.9434   24.5287    8.7622 H         1 OLF         0.0265
@<TRIPOS>BOND
     1    1    2 1  
     2    1    4 1  
     3    7    1 1  
     4    2    3 2  
     5    2   14 1  
     6    5    3 1  
     7    4    5 ar 
     8    4    8 ar 
     9    5   10 ar 
    10    6    7 1  
    11    9    6 am 
    12    6   19 2  
    13    7   23 1  
    14    8   11 ar 
    15   12    9 1  
    16   10   15 ar 
    17   11   15 ar 
    18   11   26 1  
    19   18   12 ar 
    20   12   21 ar 
    21   16   13 1  
    22   13   20 ar 
    23   13   28 ar 
    24   14   24 ar 
    25   14   25 ar 
    26   15   27 1  
    27   17   16 ar 
    28   16   22 ar 
    29   17   18 ar 
    30   18   33 1  
    31   21   22 ar 
    32   23   34 1  
    33   23   35 1  
    34   24   30 ar 
    35   25   31 ar 
    36   30   29 ar 
    37   29   31 ar 
    38   29   32 1  
    39   34   37 1  
    40   35   36 1  
    41   36   38 1  
    42   37   38 1  
    43    7   39 1  
    44    8   40 1  
    45    9   41 1  
    46   10   42 1  
    47   17   43 1  
    48   21   44 1  
    49   22   45 1  
    50   23   46 1  
    51   24   47 1  
    52   25   48 1  
    53   30   49 1  
    54   31   50 1  
    55   33   51 1  
    56   33   52 1  
    57   33   53 1  
    58   34   54 1  
    59   34   55 1  
    60   35   56 1  
    61   35   57 1  
    62   36   58 1  
    63   36   59 1  
    64   37   60 1  
    65   37   61 1  
    66   38   62 1  
    67   38   63 1  
@<TRIPOS>SUBSTRUCTURE
     1 OLF         1

