### 
### Created by X-TOOL on Mon Sep 10 21:13:07 2018
### 

@<TRIPOS>MOLECULE
3omm_ligand
   60    64     1     0     0
SMALL
GAST_HUCK


@<TRIPOS>ATOM
      1 N1         12.9810   24.0630    3.5100 N.pl3     1 OMM        -0.2159
      2 C2         13.8570   24.7570    2.7100 C.2       1 OMM         0.1435
      3 N3         13.2470   25.7640    2.1550 N.2       1 OMM        -0.3077
      4 C4         11.7750   24.6890    3.4130 C.ar      1 OMM         0.0828
      5 C5         11.9630   25.7760    2.5420 C.ar      1 OMM         0.0286
      6 C6         12.3870   21.7510    3.9800 C.2       1 OMM         0.2366
      7 C7         13.2960   22.8910    4.3450 C.3       1 OMM         0.1628
      8 C8         10.5500   24.4400    4.0080 C.ar      1 OMM        -0.0062
      9 N9         12.0580   21.6120    2.6660 N.am      1 OMM        -0.2289
     10 C10        10.8810   26.6170    2.2720 C.ar      1 OMM        -0.0282
     11 C11         9.5030   25.2750    3.7390 C.ar      1 OMM         0.1540
     12 C12        11.1750   20.6570    2.1580 C.ar      1 OMM         0.1037
     13 C13         8.4240   17.7020    0.7000 C.2       1 OMM         0.0519
     14 C14        15.2670   24.3620    2.5130 C.ar      1 OMM         0.0335
     15 C15         9.6690   26.3360    2.8600 C.ar      1 OMM         0.1515
     16 C16         9.3630   18.7370    1.2150 C.ar      1 OMM        -0.0073
     17 C17        11.5600   19.3330    2.0340 C.ar      1 OMM         0.1552
     18 C18        10.6660   18.3760    1.5710 C.ar      1 OMM        -0.0274
     19 O19        11.9640   21.0010    4.8510 O.2       1 OMM        -0.3815
     20 O20         8.8080   16.5740    0.6150 O.co2     1 OMM        -0.5649
     21 C21         9.8650   21.0340    1.8220 C.ar      1 OMM        -0.0386
     22 C22         8.9890   20.0820    1.3210 C.ar      1 OMM        -0.0651
     23 C23        13.2270   23.2860    5.8410 C.3       1 OMM         0.0063
     24 C24        16.2780   25.1200    3.0880 C.ar      1 OMM        -0.0442
     25 C25        15.5810   23.1560    1.8700 C.ar      1 OMM        -0.0442
     26 F26         8.3170   25.0340    4.3400 F         1 OMM        -0.1901
     27 F27         8.6210   27.1270    2.6080 F         1 OMM        -0.1928
     28 F28        12.7930   18.9690    2.4420 F         1 OMM        -0.1930
     29 O29         7.1660   17.9770    0.2900 O.co2     1 OMM        -0.5649
     30 C30        17.9080   23.5550    2.2660 C.ar      1 OMM         0.0443
     31 C31        16.8980   22.7470    1.7700 C.ar      1 OMM        -0.0432
     32 C32        17.5810   24.7170    2.9490 C.ar      1 OMM        -0.0432
     33 CL33       19.5890   23.1000    2.1280 Cl        1 OMM        -0.0670
     34 C34        13.8810   22.2020    6.7140 C.3       1 OMM        -0.0454
     35 C35        13.9930   24.6000    6.0520 C.3       1 OMM        -0.0454
     36 C36        13.9010   25.0240    7.5330 C.3       1 OMM        -0.0526
     37 C37        13.9050   22.6010    8.1990 C.3       1 OMM        -0.0526
     38 C38        14.6330   23.9460    8.3530 C.3       1 OMM        -0.0530
     39 H1         14.3280   22.5770    4.1298 H         1 OMM         0.0889
     40 H2         10.4238   23.5961    4.6765 H         1 OMM         0.0521
     41 H3         12.4812   22.2421    2.0149 H         1 OMM         0.2261
     42 H4         10.9934   27.4714    1.6144 H         1 OMM         0.0527
     43 H5         10.9807   17.3422    1.4851 H         1 OMM         0.0595
     44 H6          9.5408   22.0601    1.9529 H         1 OMM         0.0499
     45 H7          7.9970   20.3850    1.0059 H         1 OMM         0.0578
     46 H8         12.1755   23.4144    6.1375 H         1 OMM         0.0355
     47 H9         16.0396   26.0212    3.6412 H         1 OMM         0.0660
     48 H10        14.7905   22.5439    1.4510 H         1 OMM         0.0660
     49 H11        17.1392   21.7978    1.3053 H         1 OMM         0.0632
     50 H12        18.3719   25.3189    3.3818 H         1 OMM         0.0632
     51 H13        14.9142   22.0443    6.3712 H         1 OMM         0.0270
     52 H14        13.3120   21.2668    6.6060 H         1 OMM         0.0270
     53 H15        13.5536   25.3850    5.4191 H         1 OMM         0.0270
     54 H16        15.0485   24.4560    5.7779 H         1 OMM         0.0270
     55 H17        12.8477   25.0856    7.8441 H         1 OMM         0.0265
     56 H18        14.3838   26.0018    7.6773 H         1 OMM         0.0265
     57 H19        14.4331   21.8292    8.7782 H         1 OMM         0.0265
     58 H20        12.8740   22.6969    8.5703 H         1 OMM         0.0265
     59 H21        14.6443   24.2371    9.4137 H         1 OMM         0.0265
     60 H22        15.6662   23.8472    7.9888 H         1 OMM         0.0265
@<TRIPOS>BOND
     1    1    2 1  
     2    1    4 1  
     3    7    1 1  
     4    2    3 2  
     5    2   14 1  
     6    5    3 1  
     7    4    5 ar 
     8    4    8 ar 
     9    5   10 ar 
    10    6    7 1  
    11    9    6 am 
    12    6   19 2  
    13    7   23 1  
    14    8   11 ar 
    15   12    9 1  
    16   10   15 ar 
    17   11   15 ar 
    18   11   26 1  
    19   17   12 ar 
    20   12   21 ar 
    21   16   13 1  
    22   13   20 ar 
    23   13   29 ar 
    24   14   24 ar 
    25   14   25 ar 
    26   15   27 1  
    27   18   16 ar 
    28   16   22 ar 
    29   17   18 ar 
    30   17   28 1  
    31   21   22 ar 
    32   23   34 1  
    33   23   35 1  
    34   24   32 ar 
    35   25   31 ar 
    36   31   30 ar 
    37   30   32 ar 
    38   30   33 1  
    39   34   37 1  
    40   35   36 1  
    41   36   38 1  
    42   37   38 1  
    43    7   39 1  
    44    8   40 1  
    45    9   41 1  
    46   10   42 1  
    47   18   43 1  
    48   21   44 1  
    49   22   45 1  
    50   23   46 1  
    51   24   47 1  
    52   25   48 1  
    53   31   49 1  
    54   32   50 1  
    55   34   51 1  
    56   34   52 1  
    57   35   53 1  
    58   35   54 1  
    59   36   55 1  
    60   36   56 1  
    61   37   57 1  
    62   37   58 1  
    63   38   59 1  
    64   38   60 1  
@<TRIPOS>SUBSTRUCTURE
     1 OMM         1

