### 
### Created by X-TOOL on Sun Sep  9 21:51:33 2018
### 

@<TRIPOS>MOLECULE
3oob_ligand
   51    54     1     0     0
SMALL
GAST_HUCK


@<TRIPOS>ATOM
      1 O1         28.6200   36.4380   21.2270 O.3       1 NON        -0.3417
      2 C3         29.1040   35.4690   20.3880 C.ar      1 NON         0.1015
      3 C6         30.2600   34.7520   20.6970 C.ar      1 NON         0.1362
      4 O7         30.9390   35.0010   21.8510 O.3       1 NON        -0.3466
      5 C9         30.7300   33.7710   19.8290 C.ar      1 NON         0.1015
      6 O10        31.8620   33.0740   20.1240 O.3       1 NON        -0.3417
      7 C12        30.0480   33.5020   18.6440 C.ar      1 NON        -0.0481
      8 C14        28.8890   34.2160   18.3280 C.ar      1 NON        -0.0349
      9 C15        28.1390   33.9500   17.0740 C.3       1 NON         0.1350
     10 C20        28.4660   32.6350   15.0300 C.ar      1 NON         0.0794
     11 C21        29.3080   32.2150   14.0000 C.ar      1 NON        -0.0224
     12 C24        28.7890   31.4790   12.9330 C.ar      1 NON         0.0640
     13 C26        27.4330   31.1660   12.8960 C.ar      1 NON        -0.0228
     14 C29        26.5900   31.5830   13.9250 C.ar      1 NON         0.0729
     15 C31        27.1090   32.3120   14.9910 C.ar      1 NON         0.0065
     16 C33        26.9820   33.0060   17.3740 C.3       1 NON         0.1292
     17 C36        26.7200   30.9140   18.6630 C.2       1 NON         0.2505
     18 C38        27.4540   29.8390   19.4020 C.ar      1 NON         0.0337
     19 C39        26.8070   28.8170   20.1010 C.ar      1 NON        -0.0312
     20 C41        28.8370   29.9000   19.3610 C.ar      1 NON        -0.0312
     21 C01        26.1830   32.7510   16.0990 C.3       1 NON         0.0069
     22 O01        28.9910   33.3610   16.0780 O.3       1 NON        -0.3105
     23 O02        29.6040   31.0630   11.9250 O.3       1 NON        -0.3427
     24 O03        25.2620   31.2680   13.8860 O.3       1 NON        -0.3424
     25 C4         28.4220   35.1990   19.2030 C.ar      1 NON        -0.0481
     26 O35        27.5480   31.7770   17.8340 O.3       1 NON        -0.2697
     27 O37        25.5120   31.0490   18.7500 O.2       1 NON        -0.3624
     28 C43        29.5980   28.9540   20.0150 C.ar      1 NON         0.1141
     29 O44        30.9550   29.0290   19.9600 O.3       1 NON        -0.3389
     30 C46        28.9750   27.9310   20.7200 C.ar      1 NON         0.1498
     31 O47        29.7440   26.9970   21.3530 O.3       1 NON        -0.3381
     32 C49        27.5880   27.8540   20.7630 C.ar      1 NON         0.1141
     33 O50        26.9880   26.8420   21.4350 O.3       1 NON        -0.3389
     34 H          27.8235   36.8181   20.8492 H         1 NON         0.2436
     35 H          31.7030   34.4220   21.9027 H         1 NON         0.2377
     36 H          32.0396   32.4428   19.4229 H         1 NON         0.2436
     37 H          30.4184   32.7350   17.9638 H         1 NON         0.0365
     38 H          27.7625   34.8967   16.6865 H         1 NON         0.0819
     39 H          30.3695   32.4611   14.0282 H         1 NON         0.0359
     40 H          27.0296   30.5937   12.0607 H         1 NON         0.0359
     41 H          26.3160   33.4351   18.1226 H         1 NON         0.0714
     42 H          25.7186   28.7674   20.1324 H         1 NON         0.0477
     43 H          29.3273   30.7012   18.8080 H         1 NON         0.0477
     44 H          25.4491   31.9670   16.2857 H         1 NON         0.0390
     45 H          25.6775   33.6699   15.8019 H         1 NON         0.0390
     46 H          30.5012   31.3573   12.0983 H         1 NON         0.2455
     47 H          25.0764   30.7671   13.0883 H         1 NON         0.2451
     48 H          27.5191   35.7582   18.9578 H         1 NON         0.0365
     49 H          31.3350   28.3041   20.4616 H         1 NON         0.2437
     50 H          29.1754   26.3608   21.7929 H         1 NON         0.2422
     51 H          27.2567   26.0028   21.0540 H         1 NON         0.2437
@<TRIPOS>BOND
     1    2    1 1  
     2    2    3 ar 
     3   25    2 ar 
     4    3    4 1  
     5    5    3 ar 
     6    5    6 1  
     7    7    5 ar 
     8    8    7 ar 
     9    9    8 1  
    10    8   25 ar 
    11   16    9 1  
    12    9   22 1  
    13   10   11 ar 
    14   15   10 ar 
    15   22   10 1  
    16   11   12 ar 
    17   13   12 ar 
    18   12   23 1  
    19   14   13 ar 
    20   15   14 ar 
    21   14   24 1  
    22   21   15 1  
    23   16   21 1  
    24   26   16 1  
    25   17   18 1  
    26   17   26 1  
    27   17   27 2  
    28   18   19 ar 
    29   18   20 ar 
    30   19   32 ar 
    31   20   28 ar 
    32   28   29 1  
    33   28   30 ar 
    34   30   31 1  
    35   30   32 ar 
    36   32   33 1  
    37    1   34 1  
    38    4   35 1  
    39    6   36 1  
    40    7   37 1  
    41    9   38 1  
    42   11   39 1  
    43   13   40 1  
    44   16   41 1  
    45   19   42 1  
    46   20   43 1  
    47   21   44 1  
    48   21   45 1  
    49   23   46 1  
    50   24   47 1  
    51   25   48 1  
    52   29   49 1  
    53   31   50 1  
    54   33   51 1  
@<TRIPOS>SUBSTRUCTURE
     1 NON         1

