### 
### Created by X-TOOL on Mon Sep 10 21:13:07 2018
### 

@<TRIPOS>MOLECULE
3oof_ligand
   60    64     1     0     0
SMALL
GAST_HUCK


@<TRIPOS>ATOM
      1 N1         22.7090   11.0990   52.2500 N.pl3     1 OOF        -0.2159
      2 C2         23.2350   11.8720   53.3320 C.2       1 OOF         0.1435
      3 N3         23.9980   11.1550   54.1430 N.2       1 OOF        -0.3077
      4 C4         23.1190    9.7900   52.4530 C.ar      1 OOF         0.0828
      5 C5         23.9120    9.8260   53.6590 C.ar      1 OOF         0.0286
      6 C6         20.6490   10.7520   50.9510 C.2       1 OOF         0.2375
      7 C7         21.9730   11.5760   51.1060 C.3       1 OOF         0.1629
      8 C8         22.8970    8.6180   51.7310 C.ar      1 OOF        -0.0062
      9 C9         24.4390    8.6320   54.1800 C.ar      1 OOF        -0.0282
     10 N10        19.9250   10.5460   52.1210 N.am      1 OOF        -0.2295
     11 C11        23.4790    7.4490   52.2330 C.ar      1 OOF         0.1540
     12 C12        23.0210   13.3100   53.4270 C.ar      1 OOF         0.0335
     13 C13        24.1950    7.4600   53.4640 C.ar      1 OOF         0.1515
     14 C14        14.9520    7.7890   52.5180 C.2       1 OOF         0.0528
     15 O15        20.3030   10.3030   49.8470 O.2       1 OOF        -0.3810
     16 C16        16.2170    8.5390   52.4880 C.ar      1 OOF        -0.0055
     17 O17        14.1300    7.6380   51.6140 O.co2     1 OOF        -0.5648
     18 C18        22.7980   11.5070   49.7860 C.3       1 OOF         0.0063
     19 C19        24.1170   14.1900   53.3660 C.ar      1 OOF        -0.0442
     20 C20        21.7340   13.8120   53.5660 C.ar      1 OOF        -0.0442
     21 C21        18.6900    9.8850   52.2810 C.ar      1 OOF         0.0697
     22 C22        16.7080    9.2730   53.5720 C.ar      1 OOF        -0.0612
     23 C23        16.9540    8.4980   51.2990 C.ar      1 OOF        -0.0612
     24 F24        23.3280    6.2520   51.6160 F         1 OOF        -0.1901
     25 F25        24.7460    6.2900   53.8320 F         1 OOF        -0.1928
     26 O26        14.6540    7.1190   53.6640 O.co2     1 OOF        -0.5648
     27 C27        22.5810   16.0550   53.5150 C.ar      1 OOF         0.0443
     28 C28        17.9320    9.9280   53.4740 C.ar      1 OOF        -0.0373
     29 C29        18.1710    9.1400   51.1950 C.ar      1 OOF        -0.0373
     30 C30        23.8940   15.5730   53.4190 C.ar      1 OOF        -0.0432
     31 C31        21.4950   15.1790   53.5930 C.ar      1 OOF        -0.0432
     32 CL32       22.2810   17.7160   53.5200 Cl        1 OOF        -0.0670
     33 C33        22.1720   12.4180   48.7310 C.3       1 OOF        -0.0454
     34 C34        24.2830   11.8530   49.9860 C.3       1 OOF        -0.0454
     35 C35        25.0630   11.8220   48.6830 C.3       1 OOF        -0.0526
     36 C36        22.9620   12.3550   47.4350 C.3       1 OOF        -0.0526
     37 C37        24.4160   12.7310   47.6480 C.3       1 OOF        -0.0530
     38 H1         21.7107   12.6289   51.2863 H         1 OOF         0.0889
     39 H2         22.3023    8.6129   50.8247 H         1 OOF         0.0521
     40 H3         25.0116    8.6222   55.1004 H         1 OOF         0.0527
     41 H4         20.3332   10.9143   52.9563 H         1 OOF         0.2272
     42 H5         22.7473   10.4722   49.4164 H         1 OOF         0.0355
     43 H6         25.1254   13.8019   53.2788 H         1 OOF         0.0660
     44 H7         20.9010   13.1241   53.6550 H         1 OOF         0.0660
     45 H8         16.1345    9.3320   54.4900 H         1 OOF         0.0611
     46 H9         16.5630    7.9538   50.4470 H         1 OOF         0.0611
     47 H10        18.3106   10.4804   54.3264 H         1 OOF         0.0511
     48 H11        18.7355    9.0731   50.2720 H         1 OOF         0.0511
     49 H12        24.7291   16.2634   53.3861 H         1 OOF         0.0632
     50 H13        20.4835   15.5605   53.6732 H         1 OOF         0.0632
     51 H14        22.1690   13.4532   49.1028 H         1 OOF         0.0270
     52 H15        21.1383   12.0938   48.5405 H         1 OOF         0.0270
     53 H16        24.7256   11.1239   50.6806 H         1 OOF         0.0270
     54 H17        24.3560   12.8620   50.4179 H         1 OOF         0.0270
     55 H18        25.0818   10.7919   48.2976 H         1 OOF         0.0265
     56 H19        26.0921   12.1625   48.8698 H         1 OOF         0.0265
     57 H20        22.5156   13.0521   46.7106 H         1 OOF         0.0265
     58 H21        22.9129   11.3309   47.0365 H         1 OOF         0.0265
     59 H22        24.9567   12.6346   46.6950 H         1 OOF         0.0265
     60 H23        24.4717   13.7725   47.9975 H         1 OOF         0.0265
@<TRIPOS>BOND
     1    1    2 1  
     2    1    4 1  
     3    7    1 1  
     4    2    3 2  
     5    2   12 1  
     6    5    3 1  
     7    4    5 ar 
     8    4    8 ar 
     9    5    9 ar 
    10    6    7 1  
    11   10    6 am 
    12    6   15 2  
    13    7   18 1  
    14    8   11 ar 
    15    9   13 ar 
    16   21   10 1  
    17   11   13 ar 
    18   11   24 1  
    19   12   19 ar 
    20   12   20 ar 
    21   13   25 1  
    22   16   14 1  
    23   14   17 ar 
    24   14   26 ar 
    25   22   16 ar 
    26   16   23 ar 
    27   18   33 1  
    28   18   34 1  
    29   19   30 ar 
    30   20   31 ar 
    31   28   21 ar 
    32   21   29 ar 
    33   22   28 ar 
    34   23   29 ar 
    35   30   27 ar 
    36   27   31 ar 
    37   27   32 1  
    38   33   36 1  
    39   34   35 1  
    40   35   37 1  
    41   36   37 1  
    42    7   38 1  
    43    8   39 1  
    44    9   40 1  
    45   10   41 1  
    46   18   42 1  
    47   19   43 1  
    48   20   44 1  
    49   22   45 1  
    50   23   46 1  
    51   28   47 1  
    52   29   48 1  
    53   30   49 1  
    54   31   50 1  
    55   33   51 1  
    56   33   52 1  
    57   34   53 1  
    58   34   54 1  
    59   35   55 1  
    60   35   56 1  
    61   36   57 1  
    62   36   58 1  
    63   37   59 1  
    64   37   60 1  
@<TRIPOS>SUBSTRUCTURE
     1 OOF         1

