### 
### Created by X-TOOL on Mon Sep 10 21:13:07 2018
### 

@<TRIPOS>MOLECULE
3ook_ligand
   60    64     1     0     0
SMALL
GAST_HUCK


@<TRIPOS>ATOM
      1 N1         23.4380   17.7780    3.4490 N.pl3     1 OOK        -0.2159
      2 C2         22.5910   17.0860    2.6230 C.2       1 OOK         0.1435
      3 N3         23.2210   16.1010    2.0480 N.2       1 OOK        -0.3077
      4 C4         24.6660   17.1810    3.3450 C.ar      1 OOK         0.0828
      5 C5         24.5080   16.1040    2.4500 C.ar      1 OOK         0.0286
      6 C6         23.9840   20.0800    3.9250 C.2       1 OOK         0.2357
      7 N7         24.2200   20.2790    2.6050 N.am      1 OOK        -0.2288
      8 C8         25.0320   21.3030    2.1230 C.ar      1 OOK         0.1379
      9 C9         23.0970   18.9150    4.3110 C.3       1 OOK         0.1626
     10 C10        25.8960   17.4370    3.9330 C.ar      1 OOK        -0.0062
     11 C11        24.5290   22.6000    1.9610 C.ar      1 OOK         0.1540
     12 C12        26.3870   21.0220    1.8610 C.ar      1 OOK         0.1540
     13 C13        26.7320   23.3130    1.2330 C.ar      1 OOK        -0.0090
     14 C14        25.6130   15.3210    2.1050 C.ar      1 OOK        -0.0282
     15 C15        27.6600   24.3830    0.7890 C.2       1 OOK         0.0510
     16 C16        26.9640   16.6330    3.6250 C.ar      1 OOK         0.1540
     17 C17        21.1560   17.3880    2.4650 C.ar      1 OOK         0.0335
     18 C18        26.8210   15.6010    2.6950 C.ar      1 OOK         0.1515
     19 C19        27.2220   22.0190    1.4080 C.ar      1 OOK        -0.0313
     20 C20        25.3790   23.6030    1.5200 C.ar      1 OOK        -0.0313
     21 O21        24.4480   20.8220    4.7580 O.2       1 OOK        -0.3820
     22 O22        28.8040   24.1430    0.4560 O.co2     1 OOK        -0.5649
     23 C23        23.1710   18.4730    5.7910 C.3       1 OOK         0.0062
     24 C24        20.7860   18.6440    1.9850 C.ar      1 OOK        -0.0442
     25 C25        20.1930   16.4700    2.9040 C.ar      1 OOK        -0.0442
     26 F26        26.9030   19.7930    2.0700 F         1 OOK        -0.1942
     27 F27        23.2290   22.8740    2.2280 F         1 OOK        -0.1942
     28 F28        28.1590   16.8710    4.1960 F         1 OOK        -0.1901
     29 F29        27.8620   14.7940    2.4670 F         1 OOK        -0.1928
     30 O30        27.2470   25.6510    0.8020 O.co2     1 OOK        -0.5649
     31 C31        18.4940   18.0240    2.2360 C.ar      1 OOK         0.0443
     32 C32        18.8560   16.7850    2.7540 C.ar      1 OOK        -0.0432
     33 C33        19.4590   18.9390    1.8480 C.ar      1 OOK        -0.0432
     34 CL34       16.8290   18.4710    2.0700 Cl        1 OOK        -0.0670
     35 C35        22.4620   19.5060    6.6800 C.3       1 OOK        -0.0454
     36 C36        22.5100   17.0840    5.9650 C.3       1 OOK        -0.0454
     37 C37        22.4290   19.0510    8.1470 C.3       1 OOK        -0.0526
     38 C38        22.5790   16.6150    7.4310 C.3       1 OOK        -0.0526
     39 C39        21.8130   17.6350    8.2920 C.3       1 OOK        -0.0530
     40 H1         23.7908   19.6613    1.9460 H         1 OOK         0.2249
     41 H2         22.0568   19.2117    4.1111 H         1 OOK         0.0889
     42 H3         26.0118   18.2617    4.6269 H         1 OOK         0.0521
     43 H4         25.5188   14.5124    1.3892 H         1 OOK         0.0527
     44 H5         28.2601   21.7981    1.1874 H         1 OOK         0.0563
     45 H6         25.0045   24.6125    1.3950 H         1 OOK         0.0563
     46 H7         24.2269   18.4062    6.0919 H         1 OOK         0.0355
     47 H8         21.5412   19.3765    1.7240 H         1 OOK         0.0660
     48 H9         20.4914   15.5296    3.3532 H         1 OOK         0.0660
     49 H10        18.0928   16.0698    3.0387 H         1 OOK         0.0632
     50 H11        19.1595   19.8947    1.4332 H         1 OOK         0.0632
     51 H12        21.4301   19.6383    6.3226 H         1 OOK         0.0270
     52 H13        22.9986   20.4640    6.6140 H         1 OOK         0.0270
     53 H14        23.0342   16.3548    5.3298 H         1 OOK         0.0270
     54 H15        21.4557   17.1471    5.6576 H         1 OOK         0.0270
     55 H16        21.8258   19.7639    8.7284 H         1 OOK         0.0265
     56 H17        23.4566   19.0350    8.5390 H         1 OOK         0.0265
     57 H18        23.6281   16.5636    7.7577 H         1 OOK         0.0265
     58 H19        22.1157   15.6220    7.5277 H         1 OOK         0.0265
     59 H20        20.7623   17.6638    7.9676 H         1 OOK         0.0265
     60 H21        21.8629   17.3263    9.3466 H         1 OOK         0.0265
@<TRIPOS>BOND
     1    1    2 1  
     2    1    4 1  
     3    9    1 1  
     4    2    3 2  
     5    2   17 1  
     6    5    3 1  
     7    4    5 ar 
     8    4   10 ar 
     9    5   14 ar 
    10    7    6 am 
    11    6    9 1  
    12    6   21 2  
    13    8    7 1  
    14    8   11 ar 
    15   12    8 ar 
    16    9   23 1  
    17   10   16 ar 
    18   11   20 ar 
    19   11   27 1  
    20   19   12 ar 
    21   12   26 1  
    22   13   15 1  
    23   13   19 ar 
    24   13   20 ar 
    25   14   18 ar 
    26   15   22 ar 
    27   15   30 ar 
    28   16   18 ar 
    29   16   28 1  
    30   17   24 ar 
    31   17   25 ar 
    32   18   29 1  
    33   23   35 1  
    34   23   36 1  
    35   24   33 ar 
    36   25   32 ar 
    37   32   31 ar 
    38   31   33 ar 
    39   31   34 1  
    40   35   37 1  
    41   36   38 1  
    42   37   39 1  
    43   38   39 1  
    44    7   40 1  
    45    9   41 1  
    46   10   42 1  
    47   14   43 1  
    48   19   44 1  
    49   20   45 1  
    50   23   46 1  
    51   24   47 1  
    52   25   48 1  
    53   32   49 1  
    54   33   50 1  
    55   35   51 1  
    56   35   52 1  
    57   36   53 1  
    58   36   54 1  
    59   37   55 1  
    60   37   56 1  
    61   38   57 1  
    62   38   58 1  
    63   39   59 1  
    64   39   60 1  
@<TRIPOS>SUBSTRUCTURE
     1 OOK         1

