### 
### Created by X-TOOL on Mon Sep 10 21:13:03 2018
### 

@<TRIPOS>MOLECULE
3oot_ligand
   63    67     1     0     0
SMALL
GAST_HUCK


@<TRIPOS>ATOM
      1 C1        -10.2150  -26.5600   -4.2730 C.ar      1 SSR        -0.0544
      2 C2        -10.8680  -25.3810   -3.8750 C.ar      1 SSR        -0.0550
      3 C3        -10.3670  -24.6140   -2.8160 C.ar      1 SSR         0.0687
      4 C4         -9.1960  -25.0380   -2.1490 C.ar      1 SSR        -0.0183
      5 C5         -8.5340  -26.2340   -2.5470 C.ar      1 SSR        -0.0310
      6 C6         -9.0430  -26.9720   -3.6320 C.ar      1 SSR         0.0695
      7 N9        -10.8640  -23.5790   -2.0970 N.pl3     1 SSR        -0.2127
      8 C10       -10.0370  -23.0660   -1.1400 C.2       1 SSR         0.0928
      9 C11        -9.0640  -24.0430   -1.0300 C.2       1 SSR         0.0472
     10 C12        -7.2040  -26.6400   -1.9550 C.3       1 SSR        -0.0395
     11 O16        -8.4270  -28.1100   -4.0710 O.3       1 SSR        -0.3464
     12 C17        -7.8500  -24.0570   -0.1560 C.2       1 SSR         0.1716
     13 N18        -7.7340  -24.9960    0.7990 N.am      1 SSR        -0.2700
     14 C19        -8.7840  -26.0250    1.0000 C.3       1 SSR         0.0723
     15 C20        -9.0730  -26.1330    2.4860 C.3       1 SSR        -0.0129
     16 N21        -7.8360  -26.3140    3.2190 N.4       1 SSR         0.2298
     17 C22        -6.8150  -25.2970    3.0790 C.3       1 SSR        -0.0129
     18 C23        -6.5030  -25.0600    1.6100 C.3       1 SSR         0.0723
     19 O32        -6.9970  -23.1910   -0.3320 O.2       1 SSR        -0.4094
     20 C35       -11.9210  -22.8690   -2.5760 C.ar      1 SSR         0.0912
     21 C36       -11.8130  -21.5400   -3.0560 C.ar      1 SSR        -0.0300
     22 C37       -12.9130  -20.8120   -3.5040 C.ar      1 SSR        -0.0678
     23 C38       -14.1770  -21.3970   -3.5430 C.ar      1 SSR        -0.0703
     24 C39       -14.3380  -22.7120   -3.1040 C.ar      1 SSR        -0.0678
     25 C40       -13.2300  -23.4110   -2.6190 C.ar      1 SSR        -0.0300
     26 C46       -10.2240  -21.8300   -0.2710 C.3       1 SSR         0.0437
     27 C47       -10.0920  -22.1380    1.1980 C.ar      1 SSR        -0.0261
     28 C50       -10.9980  -22.9680    1.9060 C.ar      1 SSR        -0.0079
     29 C51       -10.8170  -23.1560    3.2720 C.ar      1 SSR         0.1270
     30 C52        -9.7180  -22.5810    3.9320 C.ar      1 SSR        -0.0414
     31 C53        -8.8330  -21.7490    3.2280 C.ar      1 SSR        -0.0766
     32 C54        -9.0390  -21.5060    1.8660 C.ar      1 SSR        -0.0681
     33 C58       -12.1960  -23.6560    1.2820 C.3       1 SSR        -0.0326
     34 F62       -11.6920  -23.9260    3.9420 F         1 SSR        -0.1910
     35 H         -10.6252  -27.1574   -5.0872 H         1 SSR         0.0441
     36 H         -11.7713  -25.0612   -4.3945 H         1 SSR         0.0466
     37 H          -6.4641  -25.8670   -2.1628 H         1 SSR         0.0352
     38 H          -7.3099  -26.7630   -0.8772 H         1 SSR         0.0352
     39 H          -6.8822  -27.5817   -2.3996 H         1 SSR         0.0352
     40 H          -8.9163  -28.4713   -4.8137 H         1 SSR         0.2415
     41 H          -8.4418  -26.9861    0.6164 H         1 SSR         0.0573
     42 H          -9.6900  -25.7422    0.4640 H         1 SSR         0.0573
     43 H          -9.7239  -26.9890    2.6637 H         1 SSR         0.0834
     44 H          -9.5600  -25.2184    2.8242 H         1 SSR         0.0834
     45 H          -7.4218  -27.1691    2.8480 H         1 SSR         0.2015
     46 H          -8.0988  -26.3027    4.2045 H         1 SSR         0.2015
     47 H          -5.9093  -25.6304    3.5855 H         1 SSR         0.0834
     48 H          -7.1758  -24.3679    3.5202 H         1 SSR         0.0834
     49 H          -5.9789  -24.1088    1.5175 H         1 SSR         0.0573
     50 H          -5.8941  -25.8886    1.2484 H         1 SSR         0.0573
     51 H         -10.8303  -21.0687   -3.0754 H         1 SSR         0.0569
     52 H         -12.7841  -19.7786   -3.8259 H         1 SSR         0.0595
     53 H         -15.0328  -20.8324   -3.9132 H         1 SSR         0.0544
     54 H         -15.3177  -23.1885   -3.1392 H         1 SSR         0.0595
     55 H         -13.3801  -24.4271   -2.2543 H         1 SSR         0.0569
     56 H         -11.2275  -21.4423   -0.4462 H         1 SSR         0.0637
     57 H          -9.4499  -21.1100   -0.5363 H         1 SSR         0.0637
     58 H          -9.5525  -22.7809    4.9907 H         1 SSR         0.0531
     59 H          -7.9867  -21.2931    3.7419 H         1 SSR         0.0533
     60 H          -8.3801  -20.8255    1.3267 H         1 SSR         0.0510
     61 H         -12.8668  -22.9058    0.8632 H         1 SSR         0.0369
     62 H         -11.8578  -24.3250    0.4907 H         1 SSR         0.0369
     63 H         -12.7218  -24.2301    2.0449 H         1 SSR         0.0369
@<TRIPOS>BOND
     1    1    2 ar 
     2    1    6 ar 
     3    2    3 ar 
     4    3    4 ar 
     5    3    7 1  
     6    4    5 ar 
     7    4    9 1  
     8    5    6 ar 
     9    5   10 1  
    10    6   11 1  
    11    7    8 1  
    12    7   20 1  
    13    8    9 2  
    14    8   26 1  
    15    9   12 1  
    16   12   13 am 
    17   12   19 2  
    18   13   14 1  
    19   13   18 1  
    20   14   15 1  
    21   15   16 1  
    22   16   17 1  
    23   17   18 1  
    24   20   21 ar 
    25   20   25 ar 
    26   21   22 ar 
    27   22   23 ar 
    28   23   24 ar 
    29   24   25 ar 
    30   26   27 1  
    31   27   28 ar 
    32   27   32 ar 
    33   28   29 ar 
    34   28   33 1  
    35   29   30 ar 
    36   29   34 1  
    37   30   31 ar 
    38   31   32 ar 
    39    1   35 1  
    40    2   36 1  
    41   10   37 1  
    42   10   38 1  
    43   10   39 1  
    44   11   40 1  
    45   14   41 1  
    46   14   42 1  
    47   15   43 1  
    48   15   44 1  
    49   16   45 1  
    50   16   46 1  
    51   17   47 1  
    52   17   48 1  
    53   18   49 1  
    54   18   50 1  
    55   21   51 1  
    56   22   52 1  
    57   23   53 1  
    58   24   54 1  
    59   25   55 1  
    60   26   56 1  
    61   26   57 1  
    62   30   58 1  
    63   31   59 1  
    64   32   60 1  
    65   33   61 1  
    66   33   62 1  
    67   33   63 1  
@<TRIPOS>SUBSTRUCTURE
     1 SSR         1

