### 
### Created by X-TOOL on Mon Sep 10 21:13:07 2018
### 

@<TRIPOS>MOLECULE
3ooz_ligand
   51    53     1     0     0
SMALL
GAST_HUCK


@<TRIPOS>ATOM
      1 C1         15.9290   -4.1890   17.8560 C.3       1 ZOO         0.0232
      2 F1         17.9220  -14.2740   16.7700 F         1 ZOO        -0.1724
      3 N1         15.4130   -5.3580   17.1410 N.am      1 ZOO        -0.2228
      4 O1         14.4670   -6.4710   18.9600 O.2       1 ZOO        -0.3765
      5 C2         14.7540   -6.3850   17.7700 C.2       1 ZOO         0.1892
      6 F2         16.1050  -14.0330   15.5840 F         1 ZOO        -0.1724
      7 N2         14.9450   -6.7540   15.4550 N.pl3     1 ZOO        -0.2848
      8 O2         16.4020  -12.7320   17.3670 O.3       1 ZOO        -0.2349
      9 C3         14.3690   -7.3970   16.6730 C.3       1 ZOO         0.1727
     10 F3         10.4870   -2.2670   12.8620 F         1 ZOO        -0.2490
     11 N3         16.1290   -4.8280   14.9070 N.pl3     1 ZOO        -0.2551
     12 C4         15.5010   -5.6370   15.8100 C.cat     1 ZOO         0.3164
     13 F4          8.6900   -7.4760   16.6500 F         1 ZOO        -0.1604
     14 C5         14.9330   -8.8190   16.8930 C.ar      1 ZOO        -0.0284
     15 C6         15.3700   -9.3200   18.1340 C.ar      1 ZOO        -0.0522
     16 C7         15.8530  -10.6310   18.2420 C.ar      1 ZOO        -0.0058
     17 C8         15.9110  -11.4680   17.1280 C.ar      1 ZOO         0.1280
     18 C9         15.4820  -10.9800   15.8890 C.ar      1 ZOO        -0.0058
     19 C10        15.0040   -9.6670   15.7760 C.ar      1 ZOO        -0.0522
     20 C11        17.0590  -13.3640   16.2820 C.3       1 ZOO         0.3725
     21 C12        12.8390   -7.4460   16.6410 C.ar      1 ZOO        -0.0247
     22 C13        12.1120   -8.4730   17.2900 C.ar      1 ZOO        -0.0490
     23 C14        10.7140   -8.4860   17.2900 C.ar      1 ZOO        -0.0037
     24 C15        10.0320   -7.4600   16.6440 C.ar      1 ZOO         0.1742
     25 C16        10.7270   -6.4200   16.0030 C.ar      1 ZOO         0.0812
     26 C17        12.1200   -6.4080   16.0010 C.ar      1 ZOO        -0.0336
     27 C18        10.0130   -5.3800   15.3460 C.1       1 ZOO        -0.0611
     28 C19         9.3920   -4.5170   14.7960 C.1       1 ZOO        -0.0986
     29 C20         8.6400   -3.4480   14.1320 C.3       1 ZOO         0.0111
     30 C21         9.0380   -2.0710   14.6770 C.3       1 ZOO        -0.0139
     31 C22        10.3510   -1.6130   14.0590 C.3       1 ZOO         0.0910
     32 H1         15.6861   -4.2765   18.9253 H         1 ZOO         0.0484
     33 H2         15.4680   -3.2771   17.4487 H         1 ZOO         0.0484
     34 H3         17.0206   -4.1352   17.7313 H         1 ZOO         0.0484
     35 H4         14.9074   -7.1321   14.4977 H         1 ZOO         0.3051
     36 H5         16.5615   -3.9467   15.2187 H         1 ZOO         0.3198
     37 H6         16.1702   -5.0990   13.9141 H         1 ZOO         0.3198
     38 H7         15.3326   -8.6866   19.0129 H         1 ZOO         0.0768
     39 H8         16.1863  -10.9999   19.2053 H         1 ZOO         0.0630
     40 H9         15.5193  -11.6189   15.0141 H         1 ZOO         0.0630
     41 H10        14.6831   -9.2994   14.8080 H         1 ZOO         0.0768
     42 H11        17.5778  -12.6290   15.6491 H         1 ZOO         0.1436
     43 H12        12.6503   -9.2654   17.7973 H         1 ZOO         0.0773
     44 H13        10.1704   -9.2825   17.7852 H         1 ZOO         0.0670
     45 H14        12.6539   -5.6031   15.5089 H         1 ZOO         0.0781
     46 H15         7.5649   -3.6051   14.3038 H         1 ZOO         0.0396
     47 H16         8.8474   -3.4804   13.0522 H         1 ZOO         0.0396
     48 H17         9.1542   -2.1335   15.7690 H         1 ZOO         0.0299
     49 H18         8.2499   -1.3434   14.4332 H         1 ZOO         0.0299
     50 H19        10.3304   -0.5257   13.8939 H         1 ZOO         0.0615
     51 H20        11.1893   -1.8671   14.7244 H         1 ZOO         0.0615
@<TRIPOS>BOND
     1    3    1 1  
     2   20    2 1  
     3    5    3 am 
     4   12    3 ar 
     5    5    4 2  
     6    9    5 1  
     7   20    6 1  
     8    9    7 1  
     9    7   12 ar 
    10   17    8 1  
    11    8   20 1  
    12    9   14 1  
    13   21    9 1  
    14   31   10 1  
    15   12   11 ar 
    16   24   13 1  
    17   14   15 ar 
    18   14   19 ar 
    19   15   16 ar 
    20   16   17 ar 
    21   18   17 ar 
    22   19   18 ar 
    23   21   22 ar 
    24   26   21 ar 
    25   23   22 ar 
    26   24   23 ar 
    27   25   24 ar 
    28   25   26 ar 
    29   27   25 1  
    30   28   27 3  
    31   29   28 1  
    32   30   29 1  
    33   30   31 1  
    34    1   32 1  
    35    1   33 1  
    36    1   34 1  
    37    7   35 1  
    38   11   36 1  
    39   11   37 1  
    40   15   38 1  
    41   16   39 1  
    42   18   40 1  
    43   19   41 1  
    44   20   42 1  
    45   22   43 1  
    46   23   44 1  
    47   26   45 1  
    48   29   46 1  
    49   29   47 1  
    50   30   48 1  
    51   30   49 1  
    52   31   50 1  
    53   31   51 1  
@<TRIPOS>SUBSTRUCTURE
     1 ZOO         1

