### 
### Created by X-TOOL on Mon Sep 10 21:13:06 2018
### 

@<TRIPOS>MOLECULE
3opm_ligand
   54    56     1     0     0
SMALL
GAST_HUCK


@<TRIPOS>ATOM
      1 C4         18.3500  -32.8510   13.6900 C.ar      1 LUI        -0.0385
      2 C5         17.7940  -31.6790   13.1880 C.ar      1 LUI         0.0870
      3 C6         16.6670  -31.1300   13.8180 C.ar      1 LUI        -0.0375
      4 C7         16.1030  -33.6310   16.6280 C.2       1 LUI         0.2271
      5 C10        18.3430  -34.7130   15.3530 C.2       1 LUI         0.0066
      6 C13        21.9730  -35.3770   14.8280 C.ar      1 LUI        -0.0736
      7 C15        20.7560  -36.6580   13.1920 C.ar      1 LUI        -0.0736
      8 C17        18.3450  -36.5980   17.0620 C.3       1 LUI         0.0405
      9 C20        14.6300  -36.0250   17.9110 C.3       1 LUI        -0.0175
     10 C21        14.2800  -37.1710   18.8440 C.3       1 LUI        -0.0600
     11 C22        14.6120  -36.5640   16.4910 C.3       1 LUI        -0.0600
     12 C26        18.2630  -29.9640    9.9490 C.2       1 LUI         0.2046
     13 O28        17.7190  -29.1570    9.1940 O.2       1 LUI        -0.3943
     14 N27        19.4270  -30.5810    9.7230 N.am      1 LUI        -0.2986
     15 C25        17.5750  -30.2850   11.2390 C.3       1 LUI         0.1593
     16 O24        18.3800  -31.1050   12.0830 O.3       1 LUI        -0.2978
     17 C1         16.1120  -31.7600   14.9310 C.ar      1 LUI        -0.0609
     18 C3         17.7820  -33.4660   14.8090 C.ar      1 LUI        -0.0388
     19 C9         17.7180  -35.3250   16.5490 C.2       1 LUI         0.1379
     20 N18        19.4800  -36.2540   17.8830 N.4       1 LUI         0.2389
     21 N8         16.6320  -34.7610   17.1180 N.am      1 LUI        -0.1905
     22 C19        15.9640  -35.3520   18.2920 C.3       1 LUI         0.0722
     23 O23        15.1040  -33.1420   17.1930 O.2       1 LUI        -0.3927
     24 C2         16.6700  -32.9340   15.4340 C.ar      1 LUI         0.0366
     25 C11        19.5600  -35.2890   14.7420 C.ar      1 LUI        -0.0484
     26 C16        19.5480  -36.1680   13.6760 C.ar      1 LUI        -0.0707
     27 C14        21.9630  -36.2640   13.7630 C.ar      1 LUI        -0.0729
     28 C12        20.7690  -34.8900   15.3100 C.ar      1 LUI        -0.0707
     29 H          19.2264  -33.2886   13.2119 H         1 LUI         0.0440
     30 H          16.2247  -30.2096   13.4367 H         1 LUI         0.0476
     31 H          22.9151  -35.0669   15.2800 H         1 LUI         0.0587
     32 H          20.7579  -37.3581   12.3566 H         1 LUI         0.0587
     33 H          18.6669  -37.2167   16.2244 H         1 LUI         0.1098
     34 H          17.6183  -37.1588   17.6498 H         1 LUI         0.1098
     35 H          13.8920  -35.2275   17.9980 H         1 LUI         0.0323
     36 H          13.2894  -37.5512   18.5947 H         1 LUI         0.0233
     37 H          15.0154  -37.9675   18.7308 H         1 LUI         0.0233
     38 H          14.2849  -36.8139   19.8738 H         1 LUI         0.0233
     39 H          15.3444  -37.3660   16.3988 H         1 LUI         0.0233
     40 H          13.6184  -36.9497   16.2627 H         1 LUI         0.0233
     41 H          14.8603  -35.7618   15.7961 H         1 LUI         0.0233
     42 H          19.9433  -30.3967    8.8628 H         1 LUI         0.1815
     43 H          19.7989  -31.2361   10.4107 H         1 LUI         0.1815
     44 H          16.6576  -30.8275   11.0106 H         1 LUI         0.0861
     45 H          17.3760  -29.3494   11.7615 H         1 LUI         0.0861
     46 H          15.2334  -31.3304   15.4123 H         1 LUI         0.0615
     47 H          19.9134  -37.1070   18.2365 H         1 LUI         0.2017
     48 H          20.1567  -35.7336   17.3247 H         1 LUI         0.2017
     49 H          19.1697  -35.6790   18.6663 H         1 LUI         0.2017
     50 H          16.6223  -36.1103   18.7159 H         1 LUI         0.0635
     51 H          15.7549  -34.5548   19.0054 H         1 LUI         0.0635
     52 H          18.6055  -36.4728   13.2212 H         1 LUI         0.0520
     53 H          22.9025  -36.6541   13.3715 H         1 LUI         0.0525
     54 H          20.7669  -34.1868   16.1429 H         1 LUI         0.0520
@<TRIPOS>BOND
     1    1    2 ar 
     2   18    1 ar 
     3    2    3 ar 
     4    2   16 1  
     5   17    3 ar 
     6   21    4 am 
     7    4   23 2  
     8   24    4 1  
     9    5   18 1  
    10    5   19 2  
    11   25    5 1  
    12   27    6 ar 
    13    6   28 ar 
    14   26    7 ar 
    15    7   27 ar 
    16   19    8 1  
    17    8   20 1  
    18    9   10 1  
    19    9   11 1  
    20   22    9 1  
    21   12   13 2  
    22   12   14 am 
    23   15   12 1  
    24   16   15 1  
    25   24   17 ar 
    26   18   24 ar 
    27   19   21 1  
    28   21   22 1  
    29   25   26 ar 
    30   25   28 ar 
    31    1   29 1  
    32    3   30 1  
    33    6   31 1  
    34    7   32 1  
    35    8   33 1  
    36    8   34 1  
    37    9   35 1  
    38   10   36 1  
    39   10   37 1  
    40   10   38 1  
    41   11   39 1  
    42   11   40 1  
    43   11   41 1  
    44   14   42 1  
    45   14   43 1  
    46   15   44 1  
    47   15   45 1  
    48   17   46 1  
    49   20   47 1  
    50   20   48 1  
    51   20   49 1  
    52   22   50 1  
    53   22   51 1  
    54   26   52 1  
    55   27   53 1  
    56   28   54 1  
@<TRIPOS>SUBSTRUCTURE
     1 LUI         1

