### 
### Created by X-TOOL on Mon Sep 10 21:13:05 2018
### 

@<TRIPOS>MOLECULE
3opp_ligand
   41    40     1     0     0
SMALL
GAST_HUCK


@<TRIPOS>ATOM
      1 O23        34.8670   59.6410    3.8500 O.co2     1 SA2        -0.5690
      2 C20        35.5410   60.5830    3.3800 C.2       1 SA2         0.0349
      3 O22        36.7680   60.7070    3.5580 O.co2     1 SA2        -0.5690
      4 C19        34.8180   61.6370    2.5660 C.3       1 SA2         0.0024
      5 C18        35.0860   61.4070    1.0820 C.3       1 SA2        -0.0232
      6 C17        34.0350   62.0680    0.1970 C.3       1 SA2         0.0502
      7 C16        34.0720   63.5580    0.4390 C.2       1 SA2         0.2339
      8 O24        34.9950   64.2290   -0.0040 O.2       1 SA2        -0.3704
      9 O15        33.0160   64.1740    1.2170 O.3       1 SA2        -0.2747
     10 C14        33.0580   65.5680    1.5320 C.3       1 SA2         0.0996
     11 C2         31.8050   66.0000    2.2690 C.3       1 SA2         0.0846
     12 S1         31.9820   67.5950    2.7880 S.o2      1 SA2        -0.2600
     13 O13        33.0580   67.6480    3.7500 O.co2     1 SA2        -0.5004
     14 O12        32.4380   68.3830    1.6810 O.co2     1 SA2        -0.5004
     15 C21        30.6390   65.9090    1.2890 C.3       1 SA2        -0.0393
     16 C3         31.6140   65.0320    3.4610 C.3       1 SA2         0.0870
     17 C9         30.4290   65.3380    4.3470 C.2       1 SA2         0.0498
     18 O10        30.5260   66.1630    5.2800 O.co2     1 SA2        -0.5678
     19 O11        29.3740   64.7160    4.1570 O.co2     1 SA2        -0.5678
     20 N4         32.8530   64.9270    4.2350 N.2       1 SA2        -0.3249
     21 C5         33.2090   63.8400    4.9260 C.2       1 SA2         0.0189
     22 C6         32.4110   62.7870    5.1400 C.3       1 SA2         0.0775
     23 C7         32.9190   61.6620    5.9130 C.2       1 SA2         0.1198
     24 O8         33.9140   61.8160    6.6100 O.2       1 SA2        -0.3696
     25 H          35.1777   62.6257    2.8509 H         1 SA2         0.0432
     26 H          33.7467   61.5708    2.7560 H         1 SA2         0.0432
     27 H          35.0597   60.3334    0.8953 H         1 SA2         0.0308
     28 H          36.0552   61.8437    0.8410 H         1 SA2         0.0308
     29 H          33.0466   61.6767    0.4380 H         1 SA2         0.0519
     30 H          34.2453   61.8563   -0.8514 H         1 SA2         0.0519
     31 H          33.1281   66.1333    0.6027 H         1 SA2         0.0635
     32 H          33.9205   65.7549    2.1717 H         1 SA2         0.0635
     33 H          30.8275   68.0278    3.2868 H         1 SA2         0.1493
     34 H          29.7238   66.2339    1.7840 H         1 SA2         0.0252
     35 H          30.8367   66.5508    0.4304 H         1 SA2         0.0252
     36 H          30.5265   64.8776    0.9550 H         1 SA2         0.0252
     37 H          31.3771   64.0638    3.0200 H         1 SA2         0.0599
     38 H          34.2157   63.8089    5.3428 H         1 SA2         0.1228
     39 H          32.2117   62.3796    4.1488 H         1 SA2         0.0764
     40 H          31.5803   63.1788    5.7269 H         1 SA2         0.0764
     41 H          32.4193   60.6942    5.8716 H         1 SA2         0.1386
@<TRIPOS>BOND
     1    1    2 ar 
     2    2    3 ar 
     3    2    4 1  
     4    4    5 1  
     5    5    6 1  
     6    6    7 1  
     7    7    8 2  
     8    7    9 1  
     9    9   10 1  
    10   10   11 1  
    11   11   12 1  
    12   11   15 1  
    13   11   16 1  
    14   12   13 ar 
    15   12   14 ar 
    16   16   17 1  
    17   16   20 1  
    18   17   18 ar 
    19   17   19 ar 
    20   20   21 2  
    21   21   22 1  
    22   22   23 1  
    23   23   24 2  
    24    4   25 1  
    25    4   26 1  
    26    5   27 1  
    27    5   28 1  
    28    6   29 1  
    29    6   30 1  
    30   10   31 1  
    31   10   32 1  
    32   12   33 1  
    33   15   34 1  
    34   15   35 1  
    35   15   36 1  
    36   16   37 1  
    37   21   38 1  
    38   22   39 1  
    39   22   40 1  
    40   23   41 1  
@<TRIPOS>SUBSTRUCTURE
     1 SA2         1

