### 
### Created by X-TOOL on Mon Sep 10 21:13:05 2018
### 

@<TRIPOS>MOLECULE
3opr_ligand
   41    40     1     0     0
SMALL
GAST_HUCK


@<TRIPOS>ATOM
      1 O23        34.8600   59.8770    3.7490 O.co2     1 SA2        -0.5690
      2 C20        35.5130   60.8500    3.3170 C.2       1 SA2         0.0349
      3 O22        36.7470   60.9900    3.4470 O.co2     1 SA2        -0.5690
      4 C19        34.7560   61.9250    2.5800 C.3       1 SA2         0.0024
      5 C18        35.0110   61.6570    1.0960 C.3       1 SA2        -0.0232
      6 C17        33.9440   62.2840    0.2130 C.3       1 SA2         0.0502
      7 C16        33.9920   63.7840    0.3680 C.2       1 SA2         0.2339
      8 O24        34.9310   64.4430   -0.0590 O.2       1 SA2        -0.3704
      9 O15        32.9090   64.4450    1.0510 O.3       1 SA2        -0.2747
     10 C14        32.9830   65.8370    1.3660 C.3       1 SA2         0.0996
     11 C2         31.7520   66.2670    2.1490 C.3       1 SA2         0.0846
     12 S1         31.9860   67.8570    2.6580 S.o2      1 SA2        -0.2600
     13 O13        33.0780   67.9040    3.6040 O.co2     1 SA2        -0.5004
     14 O12        32.3460   68.6550    1.5190 O.co2     1 SA2        -0.5004
     15 C21        30.5530   66.1820    1.2080 C.3       1 SA2        -0.0393
     16 C3         31.5340   65.3000    3.3350 C.3       1 SA2         0.0870
     17 C9         30.3720   65.6630    4.2210 C.2       1 SA2         0.0498
     18 O10        30.5330   66.4910    5.1380 O.co2     1 SA2        -0.5678
     19 O11        29.2770   65.1070    4.0250 O.co2     1 SA2        -0.5678
     20 N4         32.7380   65.1560    4.1480 N.2       1 SA2        -0.3249
     21 C5         33.0540   64.0670    4.8390 C.2       1 SA2         0.0189
     22 C6         32.2560   63.0190    5.0560 C.3       1 SA2         0.0775
     23 C7         32.7940   61.9110    5.8350 C.2       1 SA2         0.1198
     24 O8         33.8380   62.0580    6.4500 O.2       1 SA2        -0.3696
     25 H          35.0909   62.9209    2.8701 H         1 SA2         0.0432
     26 H          33.6919   61.8975    2.8145 H         1 SA2         0.0432
     27 H          34.9953   60.5788    0.9366 H         1 SA2         0.0308
     28 H          35.9734   62.0946    0.8309 H         1 SA2         0.0308
     29 H          32.9614   61.9165    0.5089 H         1 SA2         0.0519
     30 H          34.1269   62.0173   -0.8279 H         1 SA2         0.0519
     31 H          33.0335   66.4093    0.4397 H         1 SA2         0.0635
     32 H          33.8711   66.0182    1.9714 H         1 SA2         0.0635
     33 H          30.8721   68.3132    3.2236 H         1 SA2         0.1493
     34 H          29.6589   66.5244    1.7290 H         1 SA2         0.0252
     35 H          30.7312   66.8123    0.3367 H         1 SA2         0.0252
     36 H          30.4158   65.1489    0.8887 H         1 SA2         0.0252
     37 H          31.2931   64.3462    2.8655 H         1 SA2         0.0599
     38 H          34.0553   64.0250    5.2677 H         1 SA2         0.1228
     39 H          32.0404   62.6063    4.0704 H         1 SA2         0.0764
     40 H          31.4177   63.4047    5.6361 H         1 SA2         0.0764
     41 H          32.2675   60.9572    5.8682 H         1 SA2         0.1386
@<TRIPOS>BOND
     1    1    2 ar 
     2    2    3 ar 
     3    2    4 1  
     4    4    5 1  
     5    5    6 1  
     6    6    7 1  
     7    7    8 2  
     8    7    9 1  
     9    9   10 1  
    10   10   11 1  
    11   11   12 1  
    12   11   15 1  
    13   11   16 1  
    14   12   13 ar 
    15   12   14 ar 
    16   16   17 1  
    17   16   20 1  
    18   17   18 ar 
    19   17   19 ar 
    20   20   21 2  
    21   21   22 1  
    22   22   23 1  
    23   23   24 2  
    24    4   25 1  
    25    4   26 1  
    26    5   27 1  
    27    5   28 1  
    28    6   29 1  
    29    6   30 1  
    30   10   31 1  
    31   10   32 1  
    32   12   33 1  
    33   15   34 1  
    34   15   35 1  
    35   15   36 1  
    36   16   37 1  
    37   21   38 1  
    38   22   39 1  
    39   22   40 1  
    40   23   41 1  
@<TRIPOS>SUBSTRUCTURE
     1 SA2         1

