### 
### Created by X-TOOL on Mon Sep 10 21:13:03 2018
### 

@<TRIPOS>MOLECULE
3oq5_ligand
   28    27     1     0     0
SMALL
GAST_HUCK


@<TRIPOS>ATOM
      1 N          27.8520   11.8810   26.0450 N.4       1 MLZ         0.2327
      2 CA         29.1470   11.5920   26.7280 C.3       1 MLZ         0.0283
      3 CB         29.2980   10.0880   26.9250 C.3       1 MLZ         0.0026
      4 CG         28.0680    9.3690   26.3860 C.3       1 MLZ        -0.0416
      5 CD         28.2450    7.8570   26.4850 C.3       1 MLZ        -0.0123
      6 CE         26.9020    7.1370   26.5050 C.3       1 MLZ        -0.0339
      7 NZ         27.0470    5.6970   26.5740 N.4       1 MLZ         0.2248
      8 CM         25.8770    4.8780   26.8260 C.3       1 MLZ        -0.0449
      9 C          30.3100   12.1610   25.9630 C.2       1 MLZ         0.0844
     10 O          31.4090   11.6090   25.9360 O.co2     1 MLZ        -0.5643
     11 H          27.0861   11.4826   26.5882 H         1 MLZ         0.2010
     12 H          27.7271   12.8904   25.9687 H         1 MLZ         0.2010
     13 H          27.8607   11.4668   25.1129 H         1 MLZ         0.2010
     14 H          29.1416   12.0758   27.7047 H         1 MLZ         0.1024
     15 H          29.4030    9.8733   27.9885 H         1 MLZ         0.0339
     16 H          30.1811    9.7418   26.3881 H         1 MLZ         0.0339
     17 H          27.9296    9.6411   25.3396 H         1 MLZ         0.0270
     18 H          27.1998    9.6628   26.9760 H         1 MLZ         0.0270
     19 H          28.7714    7.6312   27.4124 H         1 MLZ         0.0317
     20 H          28.8056    7.5175   25.6141 H         1 MLZ         0.0317
     21 H          26.3764    7.3787   25.5812 H         1 MLZ         0.0814
     22 H          26.3579    7.4636   27.3912 H         1 MLZ         0.0814
     23 H          27.6566    5.5345   27.3755 H         1 MLZ         0.2011
     24 H          27.3624    5.4219   25.6438 H         1 MLZ         0.2011
     25 H          25.4424    5.1535   27.7869 H         1 MLZ         0.0777
     26 H          25.1448    5.0395   26.0349 H         1 MLZ         0.0777
     27 H          26.1676    3.8276   26.8449 H         1 MLZ         0.0777
     28 O          30.1536   13.2385   25.3288 O.co2     1 MLZ        -0.5643
@<TRIPOS>BOND
     1    1    2 1  
     2    2    3 1  
     3    2    9 1  
     4    3    4 1  
     5    4    5 1  
     6    5    6 1  
     7    6    7 1  
     8    7    8 1  
     9    9   10 ar 
    10    1   11 1  
    11    1   12 1  
    12    1   13 1  
    13    2   14 1  
    14    3   15 1  
    15    3   16 1  
    16    4   17 1  
    17    4   18 1  
    18    5   19 1  
    19    5   20 1  
    20    6   21 1  
    21    6   22 1  
    22    7   23 1  
    23    7   24 1  
    24    8   25 1  
    25    8   26 1  
    26    8   27 1  
    27    9   28 ar 
@<TRIPOS>SUBSTRUCTURE
     1 MLZ         1

