### 
### Created by X-TOOL on Mon Sep 10 21:13:02 2018
### 

@<TRIPOS>MOLECULE
3oqf_ligand
   56    60     1     0     0
SMALL
GAST_HUCK


@<TRIPOS>ATOM
      1 C1        -14.0100  -20.9970   -3.4290 C.ar      1 S51        -0.0701
      2 C2        -14.3230  -22.2560   -2.9180 C.ar      1 S51        -0.0675
      3 C3        -13.3080  -23.0620   -2.3930 C.ar      1 S51        -0.0295
      4 C4        -11.9460  -22.6930   -2.3780 C.ar      1 S51         0.0935
      5 C5        -11.6870  -21.4160   -2.9250 C.ar      1 S51        -0.0295
      6 C6        -12.6820  -20.5730   -3.4280 C.ar      1 S51        -0.0675
      7 N12       -10.9880  -23.5190   -1.8630 N.pl3     1 S51        -0.2049
      8 C13       -10.5860  -24.6160   -2.5460 C.ar      1 S51         0.0837
      9 C14        -9.3880  -25.0210   -1.9440 C.ar      1 S51        -0.0133
     10 C15        -9.1460  -24.1290   -0.8980 C.2       1 S51         0.0537
     11 C16       -10.0560  -23.0620   -0.9880 C.2       1 S51         0.0989
     12 C17       -11.1540  -25.4340   -3.5380 C.ar      1 S51        -0.0419
     13 C18       -10.4960  -26.6000   -3.9520 C.ar      1 S51        -0.0778
     14 C19        -9.2870  -26.9790   -3.3580 C.ar      1 S51        -0.0809
     15 C20        -8.7250  -26.1910   -2.3460 C.ar      1 S51        -0.0765
     16 C26       -10.1430  -22.2540    1.3540 C.ar      1 S51        -0.0257
     17 C29        -9.1280  -21.7680    2.1720 C.ar      1 S51        -0.0576
     18 C30        -9.0790  -22.2000    3.4990 C.ar      1 S51        -0.0680
     19 C31       -10.0300  -23.1090    3.9790 C.ar      1 S51        -0.0683
     20 C32       -11.0410  -23.6050    3.1480 C.ar      1 S51        -0.0680
     21 C33       -11.0950  -23.1710    1.8260 C.ar      1 S51        -0.0576
     22 C39        -7.8200  -24.1770   -0.1650 C.2       1 S51         0.1732
     23 N40        -7.4560  -25.1750    0.6780 N.am      1 S51        -0.2699
     24 O41        -7.0630  -23.2280   -0.3400 O.2       1 S51        -0.4090
     25 C42        -8.2680  -26.3600    0.9650 C.3       1 S51         0.0723
     26 C43        -8.4540  -26.4300    2.4800 C.3       1 S51        -0.0129
     27 N44        -7.1950  -26.3650    3.1960 N.4       1 S51         0.2298
     28 C45        -6.3000  -25.2770    2.8500 C.3       1 S51        -0.0129
     29 C46        -6.1310  -25.1660    1.3330 C.3       1 S51         0.0723
     30 C60       -10.1630  -21.8320   -0.0830 C.3       1 S51         0.0487
     31 H         -14.7945  -20.3519   -3.8246 H         1 S51         0.0546
     32 H         -15.3538  -22.6102   -2.9277 H         1 S51         0.0596
     33 H         -13.5841  -24.0288   -1.9721 H         1 S51         0.0571
     34 H         -10.6541  -21.0692   -2.9564 H         1 S51         0.0571
     35 H         -12.4209  -19.5890   -3.8175 H         1 S51         0.0596
     36 H         -12.1091  -25.1606   -3.9866 H         1 S51         0.0547
     37 H         -10.9284  -27.2152   -4.7411 H         1 S51         0.0512
     38 H          -8.7822  -27.8886   -3.6834 H         1 S51         0.0514
     39 H          -7.7853  -26.4823   -1.8768 H         1 S51         0.0515
     40 H          -8.3884  -21.0665    1.7861 H         1 S51         0.0562
     41 H          -8.2984  -21.8287    4.1630 H         1 S51         0.0600
     42 H          -9.9820  -23.4359    5.0177 H         1 S51         0.0562
     43 H         -11.7726  -24.3178    3.5286 H         1 S51         0.0600
     44 H         -11.8739  -23.5422    1.1600 H         1 S51         0.0562
     45 H          -7.7738  -27.2598    0.5987 H         1 S51         0.0573
     46 H          -9.2337  -26.2920    0.4641 H         1 S51         0.0573
     47 H          -8.9279  -27.3824    2.7176 H         1 S51         0.0834
     48 H          -9.0594  -25.5764    2.7849 H         1 S51         0.0834
     49 H          -6.6956  -27.2231    2.9621 H         1 S51         0.2015
     50 H          -7.4379  -26.2262    4.1769 H         1 S51         0.2015
     51 H          -5.3250  -25.4711    3.2969 H         1 S51         0.0834
     52 H          -6.7229  -24.3444    3.2236 H         1 S51         0.0834
     53 H          -5.6185  -24.2338    1.0953 H         1 S51         0.0573
     54 H          -5.5460  -26.0125    0.9733 H         1 S51         0.0573
     55 H         -11.0977  -21.3116   -0.2922 H         1 S51         0.0658
     56 H          -9.3191  -21.1694   -0.2752 H         1 S51         0.0658
@<TRIPOS>BOND
     1    2    1 ar 
     2    6    1 ar 
     3    3    2 ar 
     4    4    3 ar 
     5    4    5 ar 
     6    7    4 1  
     7    5    6 ar 
     8    7    8 1  
     9   11    7 1  
    10    9    8 ar 
    11    8   12 ar 
    12   10    9 1  
    13    9   15 ar 
    14   11   10 2  
    15   10   22 1  
    16   30   11 1  
    17   12   13 ar 
    18   14   13 ar 
    19   15   14 ar 
    20   16   17 ar 
    21   16   21 ar 
    22   16   30 1  
    23   17   18 ar 
    24   18   19 ar 
    25   19   20 ar 
    26   20   21 ar 
    27   22   23 am 
    28   22   24 2  
    29   23   25 1  
    30   23   29 1  
    31   25   26 1  
    32   26   27 1  
    33   27   28 1  
    34   28   29 1  
    35    1   31 1  
    36    2   32 1  
    37    3   33 1  
    38    5   34 1  
    39    6   35 1  
    40   12   36 1  
    41   13   37 1  
    42   14   38 1  
    43   15   39 1  
    44   17   40 1  
    45   18   41 1  
    46   19   42 1  
    47   20   43 1  
    48   21   44 1  
    49   25   45 1  
    50   25   46 1  
    51   26   47 1  
    52   26   48 1  
    53   27   49 1  
    54   27   50 1  
    55   28   51 1  
    56   28   52 1  
    57   29   53 1  
    58   29   54 1  
    59   30   55 1  
    60   30   56 1  
@<TRIPOS>SUBSTRUCTURE
     1 S51         1

