### 
### Created by X-TOOL on Mon Sep 10 21:13:04 2018
### 

@<TRIPOS>MOLECULE
3oqk_ligand
   54    58     1     0     0
SMALL
GAST_HUCK


@<TRIPOS>ATOM
      1 C1        -13.5620  -20.8620   -2.8560 C.ar      1 S52        -0.0703
      2 O1         -9.6150  -21.9180    0.1330 O.3       1 S52        -0.2137
      3 C2        -13.7190  -22.2560   -2.9000 C.ar      1 S52        -0.0678
      4 C3        -12.6670  -23.0820   -2.4690 C.ar      1 S52        -0.0299
      5 C4        -11.4240  -22.5600   -2.0040 C.ar      1 S52         0.0953
      6 C5        -11.3210  -21.1370   -2.0160 C.ar      1 S52        -0.0299
      7 C6        -12.3590  -20.2990   -2.4110 C.ar      1 S52        -0.0678
      8 N12       -10.3430  -23.3090   -1.6350 N.pl3     1 S52        -0.1766
      9 C13        -9.8820  -24.3720   -2.3460 C.ar      1 S52         0.0838
     10 C14        -8.6550  -24.7560   -1.7310 C.ar      1 S52        -0.0155
     11 C15        -8.4260  -23.8700   -0.6780 C.2       1 S52         0.0837
     12 C16        -9.4510  -22.9570   -0.7190 C.2       1 S52         0.2549
     13 C17       -10.3900  -25.1190   -3.4180 C.ar      1 S52        -0.0438
     14 C18        -9.6650  -26.2290   -3.8680 C.ar      1 S52        -0.0795
     15 C19        -8.4580  -26.6010   -3.2470 C.ar      1 S52        -0.0827
     16 C20        -7.9390  -25.8640   -2.1780 C.ar      1 S52        -0.0788
     17 C26        -9.3580  -22.0380    1.4670 C.ar      1 S52         0.1266
     18 C29        -8.5240  -21.0750    2.0650 C.ar      1 S52        -0.0268
     19 C30        -8.2510  -21.1990    3.4350 C.ar      1 S52        -0.0691
     20 C31        -8.7810  -22.2610    4.1920 C.ar      1 S52        -0.0718
     21 C32        -9.5950  -23.2000    3.5660 C.ar      1 S52        -0.0691
     22 C33        -9.8940  -23.1010    2.2040 C.ar      1 S52        -0.0268
     23 C39        -7.1890  -23.8150    0.1810 C.2       1 S52         0.1706
     24 N40        -6.7020  -24.8170    0.9520 N.am      1 S52        -0.2710
     25 O41        -6.6030  -22.7020    0.1160 O.2       1 S52        -0.4128
     26 C42        -7.2860  -26.1540    1.1000 C.3       1 S52         0.0721
     27 C43        -7.5970  -26.3810    2.5760 C.3       1 S52        -0.0130
     28 N44        -6.5550  -25.9060    3.4560 N.4       1 S52         0.2298
     29 C45        -5.9190  -24.6280    3.1800 C.3       1 S52        -0.0130
     30 C46        -5.4770  -24.5800    1.7220 C.3       1 S52         0.0721
     31 H         -14.3805  -20.2141   -3.1697 H         1 S52         0.0544
     32 H         -14.6481  -22.6938   -3.2650 H         1 S52         0.0595
     33 H         -12.8064  -24.1628   -2.4909 H         1 S52         0.0569
     34 H         -10.3816  -20.6835   -1.6997 H         1 S52         0.0569
     35 H         -12.2375  -19.2164   -2.3746 H         1 S52         0.0595
     36 H         -11.3313  -24.8410   -3.8921 H         1 S52         0.0541
     37 H         -10.0398  -26.8120   -4.7093 H         1 S52         0.0499
     38 H          -7.9189  -27.4780   -3.6052 H         1 S52         0.0509
     39 H          -6.9985  -26.1492   -1.7067 H         1 S52         0.0500
     40 H          -8.1027  -20.2570    1.4807 H         1 S52         0.0557
     41 H          -7.6165  -20.4591    3.9229 H         1 S52         0.0591
     42 H          -8.5565  -22.3467    5.2552 H         1 S52         0.0531
     43 H         -10.0060  -24.0258    4.1468 H         1 S52         0.0591
     44 H         -10.5347  -23.8401    1.7231 H         1 S52         0.0557
     45 H          -6.5846  -26.9093    0.7455 H         1 S52         0.0573
     46 H          -8.1992  -26.2302    0.5098 H         1 S52         0.0573
     47 H          -7.6966  -27.4553    2.7314 H         1 S52         0.0834
     48 H          -8.5060  -25.8274    2.8112 H         1 S52         0.0834
     49 H          -5.8067  -26.5937    3.3688 H         1 S52         0.2015
     50 H          -7.0135  -25.7794    4.3583 H         1 S52         0.2015
     51 H          -5.0490  -24.5098    3.8259 H         1 S52         0.0834
     52 H          -6.6283  -23.8224    3.3698 H         1 S52         0.0834
     53 H          -5.0164  -23.6251    1.4686 H         1 S52         0.0573
     54 H          -4.7108  -25.3243    1.5053 H         1 S52         0.0573
@<TRIPOS>BOND
     1    3    1 ar 
     2    7    1 ar 
     3   12    2 1  
     4    2   17 1  
     5    4    3 ar 
     6    5    4 ar 
     7    5    6 ar 
     8    8    5 1  
     9    6    7 ar 
    10    8    9 1  
    11    8   12 1  
    12    9   10 ar 
    13    9   13 ar 
    14   10   11 1  
    15   10   16 ar 
    16   11   12 2  
    17   11   23 1  
    18   13   14 ar 
    19   14   15 ar 
    20   15   16 ar 
    21   17   18 ar 
    22   17   22 ar 
    23   18   19 ar 
    24   19   20 ar 
    25   20   21 ar 
    26   21   22 ar 
    27   23   24 am 
    28   23   25 2  
    29   24   26 1  
    30   24   30 1  
    31   26   27 1  
    32   27   28 1  
    33   28   29 1  
    34   29   30 1  
    35    1   31 1  
    36    3   32 1  
    37    4   33 1  
    38    6   34 1  
    39    7   35 1  
    40   13   36 1  
    41   14   37 1  
    42   15   38 1  
    43   16   39 1  
    44   18   40 1  
    45   19   41 1  
    46   20   42 1  
    47   21   43 1  
    48   22   44 1  
    49   26   45 1  
    50   26   46 1  
    51   27   47 1  
    52   27   48 1  
    53   28   49 1  
    54   28   50 1  
    55   29   51 1  
    56   29   52 1  
    57   30   53 1  
    58   30   54 1  
@<TRIPOS>SUBSTRUCTURE
     1 S52         1

