### 
### Created by X-TOOL on Mon Sep 10 21:13:08 2018
### 

@<TRIPOS>MOLECULE
3orn_ligand
   51    53     1     0     0
SMALL
GAST_HUCK


@<TRIPOS>ATOM
      1 C4         63.2020  -10.3750   12.1980 C.ar      1 3OR         0.0614
      2 C5         62.7070   -9.2750   12.9850 C.ar      1 3OR        -0.0537
      3 C6         63.5440   -8.6020   13.9300 C.ar      1 3OR         0.0082
      4 C7         63.0220   -7.4480   14.7550 C.3       1 3OR         0.0923
      5 C13        66.2710  -13.4810   13.1570 C.ar      1 3OR        -0.0385
      6 C15        66.9860  -15.6560   12.3360 C.ar      1 3OR        -0.0051
      7 C17        66.4540  -15.3600   11.0560 C.ar      1 3OR        -0.0277
      8 C20        60.6750   -7.3690   15.6480 C.2       1 3OR         0.2034
      9 C22        59.7150   -7.8790   16.7060 C.3       1 3OR         0.0415
     10 C24        61.4480   -9.5670   17.2880 C.3       1 3OR         0.0817
     11 C26        62.2880  -11.0650   11.2070 C.2       1 3OR         0.2153
     12 C1         64.5840  -10.8160   12.3620 C.ar      1 3OR         0.1054
     13 N2         65.0870  -11.9010   11.5980 N.pl3     1 3OR        -0.2735
     14 C3         65.7210  -13.1330   11.8830 C.ar      1 3OR         0.0946
     15 N8         61.9780   -7.8370   15.6940 N.am      1 3OR        -0.1388
     16 C9         64.8810   -9.0390   14.0760 C.ar      1 3OR         0.1640
     17 F10        65.6960   -8.4330   14.9530 F         1 3OR        -0.1890
     18 C11        65.3850  -10.1090   13.3150 C.ar      1 3OR         0.1859
     19 F12        66.6600  -10.4470   13.5200 F         1 3OR        -0.1927
     20 C14        66.8960  -14.7220   13.3860 C.ar      1 3OR        -0.0655
     21 I16        67.9160  -17.4640   12.6920 I         1 3OR        -0.0609
     22 C18        65.8290  -14.1020   10.8500 C.ar      1 3OR         0.1556
     23 F19        65.3270  -13.8240    9.6360 F         1 3OR        -0.1907
     24 O21        60.2670   -6.5740   14.8050 O.2       1 3OR        -0.3966
     25 C23        60.3800   -8.6290   17.8460 C.3       1 3OR        -0.0097
     26 O25        62.4770   -8.7610   16.6730 O.3       1 3OR        -0.2521
     27 O27        62.7720  -11.6680   10.2430 O.2       1 3OR        -0.3937
     28 N28        60.9300  -10.9680   11.4230 N.am      1 3OR        -0.1633
     29 O29        60.0980  -11.4020   10.3500 O.3       1 3OR        -0.2550
     30 C30        59.3170  -10.3010    9.8520 C.3       1 3OR         0.1022
     31 C31        59.7110  -10.0420    8.4060 C.3       1 3OR         0.0704
     32 O32        59.2250  -11.0970    7.5950 O.3       1 3OR        -0.3926
     33 H          61.6747   -8.9490   12.8581 H         1 3OR         0.0532
     34 H          62.5922   -6.7194   14.0676 H         1 3OR         0.0684
     35 H          63.8564   -7.0535   15.3348 H         1 3OR         0.0684
     36 H          66.2043  -12.7639   13.9752 H         1 3OR         0.0522
     37 H          66.5234  -16.0848   10.2448 H         1 3OR         0.0597
     38 H          59.0387   -8.5782   16.2142 H         1 3OR         0.0502
     39 H          59.2240   -7.0077   17.1394 H         1 3OR         0.0502
     40 H          61.0088  -10.2406   16.5522 H         1 3OR         0.0591
     41 H          61.8731  -10.1711   18.0895 H         1 3OR         0.0591
     42 H          64.9601  -11.7570   10.5962 H         1 3OR         0.2074
     43 H          67.3067  -14.9576   14.3678 H         1 3OR         0.0579
     44 H          59.6307   -9.2114   18.3822 H         1 3OR         0.0313
     45 H          60.8444   -7.9155   18.5267 H         1 3OR         0.0313
     46 H          60.5446  -10.6081   12.2961 H         1 3OR         0.2208
     47 H          59.5043   -9.4111   10.4529 H         1 3OR         0.0613
     48 H          58.2557  -10.5424    9.9101 H         1 3OR         0.0613
     49 H          60.7968   -9.9896    8.3264 H         1 3OR         0.0581
     50 H          59.2815   -9.0970    8.0733 H         1 3OR         0.0581
     51 H          59.6062  -11.9273    7.8897 H         1 3OR         0.2095
@<TRIPOS>BOND
     1    1    2 ar 
     2    1   11 1  
     3   12    1 ar 
     4    2    3 ar 
     5    3    4 1  
     6    3   16 ar 
     7    4   15 1  
     8   14    5 ar 
     9    5   20 ar 
    10    6    7 ar 
    11   20    6 ar 
    12    6   21 1  
    13    7   22 ar 
    14    8    9 1  
    15   15    8 am 
    16    8   24 2  
    17    9   25 1  
    18   25   10 1  
    19   10   26 1  
    20   11   27 2  
    21   11   28 am 
    22   13   12 1  
    23   12   18 ar 
    24   13   14 1  
    25   14   22 ar 
    26   15   26 1  
    27   16   17 1  
    28   16   18 ar 
    29   18   19 1  
    30   22   23 1  
    31   28   29 1  
    32   29   30 1  
    33   30   31 1  
    34   31   32 1  
    35    2   33 1  
    36    4   34 1  
    37    4   35 1  
    38    5   36 1  
    39    7   37 1  
    40    9   38 1  
    41    9   39 1  
    42   10   40 1  
    43   10   41 1  
    44   13   42 1  
    45   20   43 1  
    46   25   44 1  
    47   25   45 1  
    48   28   46 1  
    49   30   47 1  
    50   30   48 1  
    51   31   49 1  
    52   31   50 1  
    53   32   51 1  
@<TRIPOS>SUBSTRUCTURE
     1 3OR         1

