### 
### Created by X-TOOL on Mon Sep 10 21:13:08 2018
### 

@<TRIPOS>MOLECULE
3os3_ligand
   52    53     1     0     0
SMALL
GAST_HUCK


@<TRIPOS>ATOM
      1 C4         10.3520   39.9670   -4.0330 C.ar      1 3OS         0.0615
      2 C5         10.8010   39.1920   -2.9090 C.ar      1 3OS        -0.0507
      3 C6         10.0600   38.0610   -2.4880 C.ar      1 3OS         0.0285
      4 C7          8.8900   37.7030   -3.1790 C.ar      1 3OS         0.1670
      5 C13         5.0930   42.2850   -7.0380 C.ar      1 3OS         0.0109
      6 C15         2.8890   43.4460   -7.7720 C.1       1 3OS        -0.1208
      7 C17         7.4540   41.8220   -7.3590 C.ar      1 3OS         0.1550
      8 C22        12.4970   38.3300    1.0000 C.3       1 3OS         0.1147
      9 C1          9.1590   39.6080   -4.7480 C.ar      1 3OS         0.1054
     10 N2          8.7350   40.3840   -5.8700 N.pl3     1 3OS        -0.2741
     11 C3          7.4930   40.9880   -6.2110 C.ar      1 3OS         0.0936
     12 F8          8.1760   36.6490   -2.8080 F         1 3OS        -0.1889
     13 C9          8.4520   38.4590   -4.2820 C.ar      1 3OS         0.1861
     14 F10         7.3500   38.0690   -4.9010 F         1 3OS        -0.1927
     15 C11         6.2770   40.8330   -5.4800 C.ar      1 3OS        -0.0390
     16 C12         5.0890   41.4690   -5.8910 C.ar      1 3OS        -0.0599
     17 C14         3.9030   42.9180   -7.4400 C.1       1 3OS        -0.0812
     18 C16         6.2710   42.4630   -7.7850 C.ar      1 3OS        -0.0224
     19 F18         8.5650   41.9960   -8.0690 F         1 3OS        -0.1909
     20 C19        10.4980   37.2420   -1.3530 C.3       1 3OS         0.0266
     21 N20        10.5830   37.6750   -0.1340 N.4       1 3OS         0.3988
     22 O21        11.7960   37.1980    0.4310 O.3       1 3OS        -0.3258
     23 C23        11.7930   38.7880    2.2640 C.3       1 3OS         0.0728
     24 O24        12.3240   38.0480    3.3640 O.3       1 3OS        -0.3925
     25 C25        11.1690   41.1330   -4.4430 C.2       1 3OS         0.2153
     26 O26        11.0330   41.5480   -5.5920 O.2       1 3OS        -0.3937
     27 N27        12.0730   41.6930   -3.5450 N.am      1 3OS        -0.1633
     28 O28        13.0530   42.6130   -4.0400 O.3       1 3OS        -0.2550
     29 C29        14.2940   41.9210   -4.0560 C.3       1 3OS         0.1022
     30 C30        14.6330   41.6270   -5.4900 C.3       1 3OS         0.0704
     31 O31        15.6180   42.5490   -5.8890 O.3       1 3OS        -0.3926
     32 H          11.7116   39.4747   -2.3808 H         1 3OS         0.0533
     33 H          12.5089   39.1465    0.2780 H         1 3OS         0.0639
     34 H          13.5184   38.0367    1.2424 H         1 3OS         0.0639
     35 H           9.4675   40.5348   -6.5636 H         1 3OS         0.2075
     36 H           6.2673   40.2100   -4.5857 H         1 3OS         0.0522
     37 H           4.1695   41.3296   -5.3225 H         1 3OS         0.0569
     38 H           6.2705   43.0864   -8.6792 H         1 3OS         0.0585
     39 H          11.5363   37.0232   -1.6023 H         1 3OS         0.0959
     40 H           9.7138   36.4880   -1.2851 H         1 3OS         0.0959
     41 H           9.7893   37.3383    0.4110 H         1 3OS         0.2366
     42 H          10.5727   38.6949   -0.1255 H         1 3OS         0.2366
     43 H          10.7202   38.6148    2.1790 H         1 3OS         0.0582
     44 H          11.9549   39.8550    2.4173 H         1 3OS         0.0582
     45 H          11.8895   38.3249    4.1740 H         1 3OS         0.2095
     46 H          12.0383   41.4531   -2.5542 H         1 3OS         0.2208
     47 H          14.2200   40.9951   -3.4857 H         1 3OS         0.0613
     48 H          15.0741   42.5294   -3.5983 H         1 3OS         0.0613
     49 H          13.7470   41.7199   -6.1180 H         1 3OS         0.0581
     50 H          15.0018   40.6065   -5.5931 H         1 3OS         0.0581
     51 H          15.8558   42.3853   -6.8046 H         1 3OS         0.2095
     52 H           1.9895   43.9144   -8.0665 H         1 3OS         0.1190
@<TRIPOS>BOND
     1    2    1 ar 
     2    1    9 ar 
     3    1   25 1  
     4    3    2 ar 
     5    3    4 ar 
     6   20    3 1  
     7    4   12 1  
     8    4   13 ar 
     9   16    5 ar 
    10    5   17 1  
    11   18    5 ar 
    12   17    6 3  
    13   11    7 ar 
    14    7   18 ar 
    15    7   19 1  
    16   22    8 1  
    17    8   23 1  
    18    9   10 1  
    19   13    9 ar 
    20   10   11 1  
    21   11   15 ar 
    22   13   14 1  
    23   15   16 ar 
    24   21   20 1  
    25   21   22 1  
    26   23   24 1  
    27   25   26 2  
    28   25   27 am 
    29   27   28 1  
    30   28   29 1  
    31   29   30 1  
    32   30   31 1  
    33    2   32 1  
    34    8   33 1  
    35    8   34 1  
    36   10   35 1  
    37   15   36 1  
    38   16   37 1  
    39   18   38 1  
    40   20   39 1  
    41   20   40 1  
    42   21   41 1  
    43   21   42 1  
    44   23   43 1  
    45   23   44 1  
    46   24   45 1  
    47   27   46 1  
    48   29   47 1  
    49   29   48 1  
    50   30   49 1  
    51   30   50 1  
    52   31   51 1  
    53    6   52 1  
@<TRIPOS>SUBSTRUCTURE
     1 3OS         1

