### 
### Created by X-TOOL on Mon Sep 10 21:13:06 2018
### 

@<TRIPOS>MOLECULE
3osi_ligand
   33    34     1     0     0
SMALL
GAST_HUCK


@<TRIPOS>ATOM
      1 CAA        15.7440   16.3290    9.8580 C.3       1 XDH        -0.1043
      2 CAB        17.2780   18.1900    9.8520 C.3       1 XDH        -0.1043
      3 OAC        16.7510   17.1800   16.0150 O.3       1 XDH        -0.3126
      4 OAD        11.7550   21.1770    9.1510 O.3       1 XDH        -0.3126
      5 CLAE       13.9280   17.3240   15.2000 Cl        1 XDH        -0.0705
      6 CLAF       19.2610   17.2560   14.4820 Cl        1 XDH        -0.0705
      7 CLAG       14.3810   22.4880    9.6950 Cl        1 XDH        -0.0705
      8 CLAH       10.9410   18.3880    9.1160 Cl        1 XDH        -0.0705
      9 CAI        15.1050   17.4980   12.7630 C.ar      1 XDH        -0.0445
     10 CAJ        17.4920   17.4770   12.4400 C.ar      1 XDH        -0.0445
     11 CAK        15.0890   19.9400   10.0670 C.ar      1 XDH        -0.0445
     12 CAL        13.5960   18.0690    9.8140 C.ar      1 XDH        -0.0445
     13 CAM        16.5740   17.3060   14.6560 C.ar      1 XDH         0.1450
     14 CAN        12.7890   20.3160    9.4580 C.ar      1 XDH         0.1450
     15 CAO        15.2900   17.3810   14.1340 C.ar      1 XDH         0.0933
     16 CAP        17.6750   17.3530   13.8120 C.ar      1 XDH         0.0933
     17 CAQ        14.0580   20.8020    9.7440 C.ar      1 XDH         0.0933
     18 CAR        12.5500   18.9480    9.4900 C.ar      1 XDH         0.0933
     19 CAS        16.2060   17.5500   11.9160 C.ar      1 XDH        -0.0876
     20 CAT        14.8640   18.5720   10.1050 C.ar      1 XDH        -0.0876
     21 CAU        16.0100   17.6710   10.4420 C.3       1 XDH        -0.0588
     22 H          16.5914   15.6730   10.0572 H         1 XDH         0.0064
     23 H          14.8445   15.9098   10.3089 H         1 XDH         0.0064
     24 H          15.6018   16.4243    8.7815 H         1 XDH         0.0064
     25 H          17.5062   19.1643   10.2841 H         1 XDH         0.0064
     26 H          18.0894   17.4955   10.0696 H         1 XDH         0.0064
     27 H          17.1616   18.2881    8.7727 H         1 XDH         0.0064
     28 H          16.3602   17.9362   16.4589 H         1 XDH         0.2601
     29 H          10.9572   20.6701    8.9830 H         1 XDH         0.2601
     30 H          14.0971   17.5490   12.3511 H         1 XDH         0.0765
     31 H          18.3552   17.5170   11.7756 H         1 XDH         0.0765
     32 H          16.0795   20.3356   10.2920 H         1 XDH         0.0765
     33 H          13.4171   16.9940    9.8381 H         1 XDH         0.0765
@<TRIPOS>BOND
     1   21    1 1  
     2   21    2 1  
     3   13    3 1  
     4   14    4 1  
     5   15    5 1  
     6   16    6 1  
     7   17    7 1  
     8   18    8 1  
     9    9   15 ar 
    10   19    9 ar 
    11   10   16 ar 
    12   19   10 ar 
    13   11   17 ar 
    14   20   11 ar 
    15   12   18 ar 
    16   20   12 ar 
    17   15   13 ar 
    18   16   13 ar 
    19   17   14 ar 
    20   18   14 ar 
    21   21   19 1  
    22   20   21 1  
    23    1   22 1  
    24    1   23 1  
    25    1   24 1  
    26    2   25 1  
    27    2   26 1  
    28    2   27 1  
    29    3   28 1  
    30    4   29 1  
    31    9   30 1  
    32   10   31 1  
    33   11   32 1  
    34   12   33 1  
@<TRIPOS>SUBSTRUCTURE
     1 XDH         1

