### 
### Created by X-TOOL on Mon Sep 10 21:13:06 2018
### 

@<TRIPOS>MOLECULE
3osw_ligand
   33    34     1     0     0
SMALL
GAST_HUCK


@<TRIPOS>ATOM
      1 CAA        15.9390   16.5120    9.9090 C.3       1 XDI        -0.1035
      2 CAB        17.4180   18.4230    9.7330 C.3       1 XDI        -0.1035
      3 OAC        16.8920   17.3990   16.0080 O.3       1 XDI        -0.3111
      4 OAD        11.6980   21.1340    9.1540 O.3       1 XDI        -0.3111
      5 BRAE       19.6530   17.1920   14.6440 Br        1 XDI        -0.0490
      6 BRAF       13.9940   17.7720   15.3430 Br        1 XDI        -0.0490
      7 BRAG       14.2170   22.7850    9.5690 Br        1 XDI        -0.0490
      8 BRAH       10.8320   18.1990    9.1840 Br        1 XDI        -0.0490
      9 CAI        17.7210   17.5750   12.4340 C.ar      1 XDI        -0.0462
     10 CAJ        15.3340   17.8140   12.7500 C.ar      1 XDI        -0.0462
     11 CAK        15.1030   20.0780    9.9870 C.ar      1 XDI        -0.0462
     12 CAL        13.7160   18.1140    9.8380 C.ar      1 XDI        -0.0462
     13 CAM        16.7710   17.5130   14.6490 C.ar      1 XDI         0.1353
     14 CAN        12.7690   20.3070    9.4530 C.ar      1 XDI         0.1353
     15 CAO        17.8940   17.4490   13.8230 C.ar      1 XDI         0.0676
     16 CAP        15.5040   17.6940   14.1250 C.ar      1 XDI         0.0676
     17 CAQ        14.0110   20.8690    9.6800 C.ar      1 XDI         0.0676
     18 CAR        12.6130   18.9240    9.5310 C.ar      1 XDI         0.0676
     19 CAS        16.4350   17.7660   11.8960 C.ar      1 XDI        -0.0817
     20 CAT        14.9690   18.7000   10.0750 C.ar      1 XDI        -0.0817
     21 CAU        16.1940   17.8850   10.4110 C.3       1 XDI        -0.0552
     22 H          16.8071   15.8850   10.1125 H         1 XDI         0.0066
     23 H          15.0649   16.0990   10.4124 H         1 XDI         0.0066
     24 H          15.7584   16.5470    8.8346 H         1 XDI         0.0066
     25 H          17.6533   19.4071   10.1382 H         1 XDI         0.0066
     26 H          18.2552   17.7471    9.9075 H         1 XDI         0.0066
     27 H          17.2324   18.5045    8.6620 H         1 XDI         0.0066
     28 H          17.4550   18.1030   16.3382 H         1 XDI         0.2617
     29 H          10.9102   20.6010    9.0239 H         1 XDI         0.2617
     30 H          18.5853   17.5246   11.7718 H         1 XDI         0.0812
     31 H          14.3338   17.9464   12.3374 H         1 XDI         0.0812
     32 H          16.0748   20.5400   10.1609 H         1 XDI         0.0812
     33 H          13.6003   17.0315    9.8924 H         1 XDI         0.0812
@<TRIPOS>BOND
     1   21    1 1  
     2   21    2 1  
     3   13    3 1  
     4   14    4 1  
     5   15    5 1  
     6   16    6 1  
     7   17    7 1  
     8   18    8 1  
     9    9   15 ar 
    10   19    9 ar 
    11   10   16 ar 
    12   19   10 ar 
    13   11   17 ar 
    14   20   11 ar 
    15   12   18 ar 
    16   20   12 ar 
    17   15   13 ar 
    18   16   13 ar 
    19   17   14 ar 
    20   18   14 ar 
    21   21   19 1  
    22   20   21 1  
    23    1   22 1  
    24    1   23 1  
    25    1   24 1  
    26    2   25 1  
    27    2   26 1  
    28    2   27 1  
    29    3   28 1  
    30    4   29 1  
    31    9   30 1  
    32   10   31 1  
    33   11   32 1  
    34   12   33 1  
@<TRIPOS>SUBSTRUCTURE
     1 XDI         1

