### 
### Created by X-TOOL on Mon Sep 10 21:13:03 2018
### 

@<TRIPOS>MOLECULE
3ot3_ligand
   45    48     1     0     0
SMALL
GAST_HUCK


@<TRIPOS>ATOM
      1 C01        14.5990   -1.0590   10.0490 C.2       1 22K        -0.0132
      2 C02        15.7060   -1.7940   10.2340 C.2       1 22K         0.1481
      3 N03        16.7320   -1.1520    9.5530 N.pl3     1 22K        -0.1125
      4 N04        16.2760    0.0090    9.0040 N.2       1 22K        -0.2140
      5 C05        14.9820    0.0340    9.3260 C.2       1 22K        -0.0162
      6 N06        15.8910   -2.9520   10.9110 N.2       1 22K        -0.2988
      7 C07        17.0860   -3.4190   10.9130 C.2       1 22K         0.0187
      8 C08        18.2730   -2.7730   10.2290 C.2       1 22K         0.0936
      9 C09        18.0460   -1.6350    9.5390 C.2       1 22K         0.2284
     10 BR10       20.0270   -3.4330   10.4170 Br        1 22K        -0.0734
     11 N11        19.0380   -0.9170    8.8840 N.pl3     1 22K        -0.2813
     12 C12        13.3320   -1.2610   10.7110 C.2       1 22K        -0.0305
     13 C13        12.3310   -0.2700   10.9200 C.2       1 22K        -0.0050
     14 N14        11.3310   -0.7350   11.7010 N.2       1 22K        -0.2208
     15 N15        11.7300   -2.0250   12.0540 N.pl3     1 22K        -0.2172
     16 C16        12.9480   -2.3490   11.5270 C.2       1 22K         0.0436
     17 C17        10.9220   -2.8870   12.9420 C.3       1 22K         0.0578
     18 C18        17.3200   -4.6950   11.7000 C.3       1 22K         0.0134
     19 C19        17.2380   -4.3010   13.2040 C.3       1 22K         0.0070
     20 C20        17.3590   -5.5160   14.0930 C.3       1 22K        -0.0217
     21 C21        16.2360   -6.5150   13.8300 C.3       1 22K        -0.0094
     22 C22        16.2690   -6.9320   12.3420 C.3       1 22K        -0.0454
     23 C23        16.1610   -5.7080   11.4250 C.3       1 22K        -0.0358
     24 N24        17.1430   -5.0330   15.5060 N.4       1 22K         0.2209
     25 H          14.3041    0.8392    9.0428 H         1 22K         0.0626
     26 H          20.0040   -1.2436    8.9077 H         1 22K         0.1930
     27 H          18.8006   -0.0631    8.3792 H         1 22K         0.1930
     28 H          12.3668    0.7364   10.5028 H         1 22K         0.0633
     29 H          13.5120   -3.2653   11.7014 H         1 22K         0.0881
     30 H          10.8020   -2.3989   13.9092 H         1 22K         0.0600
     31 H           9.9426   -3.0523   12.4930 H         1 22K         0.0600
     32 H          11.4276   -3.8433   13.0764 H         1 22K         0.0600
     33 H          18.2747   -5.1443   11.4266 H         1 22K         0.0523
     34 H          16.2729   -3.8292   13.3884 H         1 22K         0.0351
     35 H          18.0584   -3.6202   13.4310 H         1 22K         0.0351
     36 H          18.3249   -5.9891   13.9162 H         1 22K         0.0852
     37 H          15.2749   -6.0557   14.0611 H         1 22K         0.0320
     38 H          16.3717   -7.3938   14.4604 H         1 22K         0.0320
     39 H          15.4239   -7.5917   12.1452 H         1 22K         0.0269
     40 H          17.2141   -7.4366   12.1414 H         1 22K         0.0269
     41 H          16.2271   -6.0411   10.3892 H         1 22K         0.0296
     42 H          15.2102   -5.2109   11.6171 H         1 22K         0.0296
     43 H          17.2154   -5.8219   16.1485 H         1 22K         0.1997
     44 H          17.8520   -4.3375   15.7384 H         1 22K         0.1997
     45 H          16.2161   -4.6142   15.5829 H         1 22K         0.1997
@<TRIPOS>BOND
     1    1    2 2  
     2    1    5 1  
     3    1   12 1  
     4    2    3 1  
     5    2    6 1  
     6    3    4 1  
     7    3    9 1  
     8    4    5 2  
     9    6    7 2  
    10    7    8 1  
    11    7   18 1  
    12    8    9 2  
    13    8   10 1  
    14    9   11 1  
    15   12   13 1  
    16   12   16 2  
    17   13   14 2  
    18   14   15 1  
    19   15   16 1  
    20   15   17 1  
    21   18   19 1  
    22   18   23 1  
    23   19   20 1  
    24   20   21 1  
    25   20   24 1  
    26   21   22 1  
    27   22   23 1  
    28    5   25 1  
    29   11   26 1  
    30   11   27 1  
    31   13   28 1  
    32   16   29 1  
    33   17   30 1  
    34   17   31 1  
    35   17   32 1  
    36   18   33 1  
    37   19   34 1  
    38   19   35 1  
    39   20   36 1  
    40   21   37 1  
    41   21   38 1  
    42   22   39 1  
    43   22   40 1  
    44   23   41 1  
    45   23   42 1  
    46   24   43 1  
    47   24   44 1  
    48   24   45 1  
@<TRIPOS>SUBSTRUCTURE
     1 22K         1

