### 
### Created by X-TOOL on Mon Sep 10 21:13:02 2018
### 

@<TRIPOS>MOLECULE
3ot8_ligand
   51    55     1     0     0
SMALL
GAST_HUCK


@<TRIPOS>ATOM
      1 C01        14.4620   -0.5520   10.0620 C.2       1 MI5        -0.0135
      2 C02        15.6050   -1.2240   10.3080 C.2       1 MI5         0.1484
      3 N03        16.5910   -0.6580    9.5290 N.pl3     1 MI5        -0.1116
      4 N04        16.1020    0.4220    8.7980 N.2       1 MI5        -0.2152
      5 C05        14.8370    0.4600    9.1330 C.2       1 MI5        -0.0168
      6 N06        15.8630   -2.2990   11.1330 N.2       1 MI5        -0.2959
      7 C07        17.0770   -2.7250   11.1370 C.2       1 MI5         0.0187
      8 C08        18.1960   -2.1600   10.3700 C.2       1 MI5         0.0307
      9 C09        17.9150   -1.1530    9.5380 C.2       1 MI5         0.2492
     10 N10        18.8000   -0.5130    8.7420 N.pl3     1 MI5        -0.1919
     11 C11        17.4190   -3.8620   12.1030 C.3       1 MI5         0.0485
     12 C12        13.1820   -0.7320   10.7320 C.2       1 MI5        -0.0306
     13 C13        16.9290   -3.4360   13.5220 C.3       1 MI5        -0.0172
     14 N14        17.2820   -4.4480   14.5500 N.4       1 MI5         0.2290
     15 C15        16.5790   -5.6820   14.2390 C.3       1 MI5        -0.0333
     16 C16        17.0870   -6.2140   12.8900 C.3       1 MI5        -0.0099
     17 C17        16.8020   -5.1860   11.7570 C.3       1 MI5        -0.0267
     18 C18        12.1450    0.1900   10.8280 C.2       1 MI5        -0.0051
     19 N19        11.1210   -0.2460   11.5410 N.2       1 MI5        -0.2208
     20 N20        11.5210   -1.4660   11.9640 N.pl3     1 MI5        -0.2172
     21 C21        12.7690   -1.7940   11.5180 C.2       1 MI5         0.0436
     22 C22        10.6180   -2.2810   12.8230 C.3       1 MI5         0.0578
     23 C23        20.0260   -0.8910    8.3230 C.2       1 MI5         0.1539
     24 S24        20.7970   -2.3580    8.6970 S.3       1 MI5         0.0219
     25 N25        22.1890   -2.0680    7.8390 N.2       1 MI5        -0.3105
     26 C26        22.0850   -0.8580    7.2670 C.2       1 MI5        -0.0133
     27 C27        20.8800   -0.1530    7.5180 C.2       1 MI5        -0.0094
     28 C28        23.2110   -0.3600    6.4390 C.3       1 MI5        -0.0190
     29 H          14.1371    1.1965    8.7382 H         1 MI5         0.0622
     30 H          19.2102   -2.5453   10.4752 H         1 MI5         0.0436
     31 H          18.4930    0.3994    8.4048 H         1 MI5         0.2415
     32 H          18.4970   -4.0141   12.0488 H         1 MI5         0.0570
     33 H          15.8439   -3.3364   13.4957 H         1 MI5         0.0846
     34 H          17.4128   -2.4953   13.7850 H         1 MI5         0.0846
     35 H          17.0106   -4.1152   15.4752 H         1 MI5         0.2015
     36 H          18.2890   -4.6101   14.5490 H         1 MI5         0.2015
     37 H          15.5072   -5.4924   14.1816 H         1 MI5         0.0814
     38 H          16.7634   -6.4194   15.0202 H         1 MI5         0.0814
     39 H          16.5716   -7.1465   12.6601 H         1 MI5         0.0319
     40 H          18.1624   -6.3789   12.9565 H         1 MI5         0.0319
     41 H          17.2316   -5.5504   10.8239 H         1 MI5         0.0299
     42 H          15.7248   -5.0629   11.6453 H         1 MI5         0.0299
     43 H          12.1739    1.1747   10.3614 H         1 MI5         0.0633
     44 H          13.3259   -2.7052   11.7361 H         1 MI5         0.0881
     45 H          10.4038   -1.7361   13.7424 H         1 MI5         0.0600
     46 H           9.6878   -2.4748   12.2889 H         1 MI5         0.0600
     47 H          11.1038   -3.2265   13.0642 H         1 MI5         0.0600
     48 H          20.6548    0.8398    7.1286 H         1 MI5         0.0288
     49 H          24.1112   -0.2999    7.0506 H         1 MI5         0.0442
     50 H          23.3798   -1.0448    5.6079 H         1 MI5         0.0442
     51 H          22.9662    0.6293    6.0523 H         1 MI5         0.0442
@<TRIPOS>BOND
     1    1    2 2  
     2    1    5 1  
     3    1   12 1  
     4    2    3 1  
     5    2    6 1  
     6    3    4 1  
     7    3    9 1  
     8    4    5 2  
     9    6    7 2  
    10    7    8 1  
    11    7   11 1  
    12    8    9 2  
    13    9   10 1  
    14   10   23 1  
    15   11   13 1  
    16   11   17 1  
    17   12   18 1  
    18   12   21 2  
    19   13   14 1  
    20   14   15 1  
    21   15   16 1  
    22   16   17 1  
    23   18   19 2  
    24   19   20 1  
    25   20   21 1  
    26   20   22 1  
    27   23   24 1  
    28   23   27 2  
    29   24   25 1  
    30   25   26 2  
    31   26   27 1  
    32   26   28 1  
    33    5   29 1  
    34    8   30 1  
    35   10   31 1  
    36   11   32 1  
    37   13   33 1  
    38   13   34 1  
    39   14   35 1  
    40   14   36 1  
    41   15   37 1  
    42   15   38 1  
    43   16   39 1  
    44   16   40 1  
    45   17   41 1  
    46   17   42 1  
    47   18   43 1  
    48   21   44 1  
    49   22   45 1  
    50   22   46 1  
    51   22   47 1  
    52   27   48 1  
    53   28   49 1  
    54   28   50 1  
    55   28   51 1  
@<TRIPOS>SUBSTRUCTURE
     1 MI5         1

