### 
### Created by X-TOOL on Mon Sep 10 21:13:04 2018
### 

@<TRIPOS>MOLECULE
3otq_ligand
   47    50     1     0     0
SMALL
GAST_HUCK


@<TRIPOS>ATOM
      1 N1         75.3920  -11.2400   70.1760 N.pl3     1 MZL        -0.1676
      2 C2         75.1440  -10.4490   68.9140 C.ar      1 MZL         0.0979
      3 C3         75.6020  -12.7050   70.3170 C.2       1 MZL         0.0821
      4 N4         75.4830  -10.6950   71.4610 N.2       1 MZL        -0.2107
      5 C5         74.0720  -10.6970   68.1100 C.ar      1 MZL        -0.0376
      6 C6         76.1070   -9.3760   68.4970 C.ar      1 MZL        -0.0376
      7 C7         75.7910  -12.9570   71.6060 C.2       1 MZL        -0.0402
      8 C8         75.6150  -13.7550   69.1790 C.3       1 MZL         0.0083
      9 C9         75.7100  -11.6530   72.2840 C.2       1 MZL         0.0323
     10 C10        73.9010   -9.8940   66.8410 C.ar      1 MZL        -0.0436
     11 C11        75.9510   -8.6660   67.3760 C.ar      1 MZL        -0.0436
     12 C12        76.2060  -15.1540   69.5250 C.3       1 MZL        -0.0518
     13 C13        75.9080  -11.5130   73.7590 C.ar      1 MZL         0.0099
     14 C14        74.8150   -8.9310   66.4980 C.ar      1 MZL         0.0607
     15 C15        75.9260  -12.6330   74.5720 C.ar      1 MZL        -0.0364
     16 C16        76.1150  -10.2000   74.3830 C.ar      1 MZL         0.0173
     17 N17        74.7250   -8.1450   65.3150 N.am      1 MZL        -0.2352
     18 C18        76.1470  -12.5150   76.0410 C.ar      1 MZL        -0.0350
     19 N19        76.3060  -10.1250   75.6720 N.ar      1 MZL        -0.2976
     20 C20        75.4870   -8.3520   64.1300 C.2       1 MZL         0.2390
     21 C21        76.3300  -11.2950   76.5520 C.ar      1 MZL         0.0097
     22 C22        75.3030   -7.4160   62.9870 C.ar      1 MZL         0.0837
     23 O23        76.3090   -9.2820   64.0670 O.2       1 MZL        -0.3706
     24 C24        76.0270   -7.5630   61.8570 C.ar      1 MZL        -0.0220
     25 C25        74.3320   -6.2900   63.0520 C.ar      1 MZL         0.0317
     26 C26        75.8480   -6.6300   60.7240 C.ar      1 MZL        -0.0284
     27 N27        74.1960   -5.4780   62.0310 N.ar      1 MZL        -0.2904
     28 C28        74.9470   -5.6280   60.8400 C.ar      1 MZL         0.0155
     29 H          73.3468  -11.4650   68.3788 H         1 MZL         0.0553
     30 H          76.9671   -9.1679   69.1334 H         1 MZL         0.0553
     31 H          75.9693  -13.9284   72.0672 H         1 MZL         0.0258
     32 H          76.2546  -13.3436   68.3981 H         1 MZL         0.0467
     33 H          74.5710  -13.9265   68.9167 H         1 MZL         0.0467
     34 H          73.0445  -10.0818   66.1935 H         1 MZL         0.0492
     35 H          76.6711   -7.8897   67.1172 H         1 MZL         0.0492
     36 H          77.2444  -15.0414   69.8367 H         1 MZL         0.0255
     37 H          75.6287  -15.6008   70.3345 H         1 MZL         0.0255
     38 H          76.1570  -15.7954   68.6451 H         1 MZL         0.0255
     39 H          75.7760  -13.6181   74.1302 H         1 MZL         0.0731
     40 H          76.1092   -9.2955   73.7748 H         1 MZL         0.0822
     41 H          74.0610   -7.3708   65.3160 H         1 MZL         0.2239
     42 H          76.1589  -13.3984   76.6794 H         1 MZL         0.0705
     43 H          76.4969  -11.1704   77.6219 H         1 MZL         0.0811
     44 H          76.7491   -8.3758   61.7793 H         1 MZL         0.0789
     45 H          73.7326   -6.1398   63.9499 H         1 MZL         0.0878
     46 H          76.4320   -6.7477   59.8112 H         1 MZL         0.0722
     47 H          74.7984   -4.9332   60.0134 H         1 MZL         0.0858
@<TRIPOS>BOND
     1    1    2 1  
     2    1    3 1  
     3    1    4 1  
     4    2    5 ar 
     5    2    6 ar 
     6    3    7 2  
     7    3    8 1  
     8    4    9 2  
     9    5   10 ar 
    10    6   11 ar 
    11    7    9 1  
    12    8   12 1  
    13    9   13 1  
    14   10   14 ar 
    15   11   14 ar 
    16   13   15 ar 
    17   13   16 ar 
    18   14   17 1  
    19   15   18 ar 
    20   16   19 ar 
    21   17   20 am 
    22   18   21 ar 
    23   19   21 ar 
    24   20   22 1  
    25   20   23 2  
    26   22   24 ar 
    27   22   25 ar 
    28   24   26 ar 
    29   25   27 ar 
    30   26   28 ar 
    31   27   28 ar 
    32    5   29 1  
    33    6   30 1  
    34    7   31 1  
    35    8   32 1  
    36    8   33 1  
    37   10   34 1  
    38   11   35 1  
    39   12   36 1  
    40   12   37 1  
    41   12   38 1  
    42   15   39 1  
    43   16   40 1  
    44   17   41 1  
    45   18   42 1  
    46   21   43 1  
    47   24   44 1  
    48   25   45 1  
    49   26   46 1  
    50   28   47 1  
@<TRIPOS>SUBSTRUCTURE
     1 MZL         1

