### 
### Created by X-TOOL on Mon Sep 10 21:13:04 2018
### 

@<TRIPOS>MOLECULE
3ouh_ligand
   24    26     1     0     0
SMALL
GAST_HUCK


@<TRIPOS>ATOM
      1 F          44.7850   23.7520    3.5830 F         1 014        -0.1912
      2 CL         45.8300   21.8910    1.9010 Cl        1 014        -0.0822
      3 C1         36.5810   17.4900    4.3380 C.2       1 014         0.0455
      4 N1         38.6490   20.2010    5.7740 N.2       1 014        -0.1922
      5 O1         35.4490   17.4850    4.9480 O.co2     1 014        -0.5693
      6 C2         37.6330   18.4570    4.7430 C.2       1 014         0.0300
      7 N2         39.4710   19.5230    4.8950 N.pl3     1 014        -0.1084
      8 O2         36.8330   16.7780    3.3160 O.co2     1 014        -0.5693
      9 C3         37.5050   19.4690    5.7010 C.2       1 014         0.0128
     10 N3         40.8560   21.2810    4.9400 N.pl3     1 014        -0.2185
     11 C4         38.8920   18.5630    4.2060 C.2       1 014         0.0929
     12 N4         41.4230   19.5050    3.6370 N.2       1 014        -0.2876
     13 C5         40.6210   20.0150    4.5810 C.2       1 014         0.2891
     14 C6         42.0200   21.5290    4.2910 C.ar      1 014         0.0796
     15 C7         42.8320   22.6360    4.3220 C.ar      1 014        -0.0083
     16 C8         43.9650   22.6790    3.5770 C.ar      1 014         0.1318
     17 C10        44.3050   21.6270    2.8040 C.ar      1 014         0.0571
     18 C11        43.5260   20.4790    2.7410 C.ar      1 014        -0.0517
     19 C12        42.3690   20.4370    3.4860 C.ar      1 014         0.0217
     20 H          36.6141   19.6457    6.3037 H         1 014         0.0701
     21 H          40.3068   21.8955    5.5410 H         1 014         0.2337
     22 H          39.3180   17.9805    3.3891 H         1 014         0.1085
     23 H          42.5644   23.4861    4.9496 H         1 014         0.0522
     24 H          43.8224   19.6345    2.1189 H         1 014         0.0537
@<TRIPOS>BOND
     1   16    1 1  
     2   17    2 1  
     3    3    5 ar 
     4    6    3 1  
     5    3    8 ar 
     6    7    4 1  
     7    4    9 2  
     8    6    9 1  
     9   11    6 2  
    10    7   11 1  
    11   13    7 1  
    12   10   13 1  
    13   14   10 1  
    14   12   13 2  
    15   19   12 1  
    16   15   14 ar 
    17   14   19 ar 
    18   16   15 ar 
    19   16   17 ar 
    20   17   18 ar 
    21   18   19 ar 
    22    9   20 1  
    23   10   21 1  
    24   11   22 1  
    25   15   23 1  
    26   18   24 1  
@<TRIPOS>SUBSTRUCTURE
     1 014         1

