### 
### Created by X-TOOL on Mon Sep 10 21:13:03 2018
### 

@<TRIPOS>MOLECULE
3oui_ligand
   24    25     1     0     0
SMALL
GAST_HUCK


@<TRIPOS>ATOM
      1 C1         14.3860   -7.6370   -7.2240 C.ar      1 42Z        -0.0435
      2 C2         13.2930   -7.5520   -8.0600 C.ar      1 42Z         0.0431
      3 C3         11.9710   -8.0550   -7.6700 C.ar      1 42Z         0.0877
      4 CL3        15.6890   -8.2880   -4.9220 Cl        1 42Z        -0.0796
      5 C4         11.8200   -8.6320   -6.4160 C.ar      1 42Z        -0.0227
      6 CL4        12.6830   -9.4830   -3.9640 Cl        1 42Z        -0.0761
      7 C5         12.9110   -8.7140   -5.5760 C.ar      1 42Z         0.0434
      8 C6         14.2330   -8.1990   -5.9740 C.ar      1 42Z         0.0414
      9 N13        11.1380   -7.8390   -8.6790 N.pl3     1 42Z        -0.2383
     10 C14        11.8620   -7.2320   -9.6460 C.2       1 42Z         0.2184
     11 N15        13.1500   -7.0720   -9.3060 N.2       1 42Z        -0.2836
     12 C24        11.4180   -6.8130  -10.9730 C.2       1 42Z         0.2642
     13 N26        10.3050   -7.2660  -11.5110 N.am      1 42Z        -0.2664
     14 C28         8.8010   -7.5560  -13.4130 C.2       1 42Z         0.0570
     15 O30         7.9660   -7.9420  -12.6380 O.co2     1 42Z        -0.5669
     16 O32         8.5300   -7.4620  -14.6980 O.co2     1 42Z        -0.5669
     17 O34        12.2230   -6.1250  -11.5620 O.2       1 42Z        -0.3678
     18 C43        10.1530   -7.1250  -12.9390 C.3       1 42Z         0.0834
     19 H1         15.3530   -7.2669   -7.5450 H         1 42Z         0.0576
     20 H2         10.8556   -9.0137   -6.1008 H         1 42Z         0.0561
     21 H3         10.1385   -8.0847   -8.7182 H         1 42Z         0.2341
     22 H4          9.5930   -7.6910  -10.9520 H         1 42Z         0.1874
     23 H5         10.9154   -7.7410  -13.4381 H         1 42Z         0.0690
     24 H6         10.3015   -6.0687  -13.2077 H         1 42Z         0.0690
@<TRIPOS>BOND
     1    2    1 ar 
     2    1    8 ar 
     3    2    3 ar 
     4   11    2 1  
     5    3    5 ar 
     6    9    3 1  
     7    8    4 1  
     8    5    7 ar 
     9    7    6 1  
    10    8    7 ar 
    11   10    9 1  
    12   10   11 2  
    13   12   10 1  
    14   13   12 am 
    15   12   17 2  
    16   18   13 1  
    17   14   15 ar 
    18   14   16 ar 
    19   14   18 1  
    20    1   19 1  
    21    5   20 1  
    22    9   21 1  
    23   13   22 1  
    24   18   23 1  
    25   18   24 1  
@<TRIPOS>SUBSTRUCTURE
     1 42Z         1

