### 
### Created by X-TOOL on Mon Sep 10 21:13:03 2018
### 

@<TRIPOS>MOLECULE
3ouj_ligand
   14    13     1     0     0
SMALL
GAST_HUCK


@<TRIPOS>ATOM
      1 C1         14.2120   24.7980   -5.4660 C.2       1 AKG         0.1249
      2 O1         13.6390   24.3690   -6.5140 O.co2     1 AKG        -0.5464
      3 O2         15.0900   24.1210   -4.8870 O.co2     1 AKG        -0.5464
      4 C2         13.8490   26.1120   -4.8990 C.2       1 AKG         0.1731
      5 O5         13.1970   26.9100   -5.5590 O.2       1 AKG        -0.3576
      6 C3         14.2630   26.4810   -3.4840 C.3       1 AKG         0.0423
      7 C4         13.2770   27.5000   -2.9140 C.3       1 AKG         0.0164
      8 C5         13.6190   27.9000   -1.4970 C.2       1 AKG         0.0371
      9 O3         14.4110   27.2000   -0.8280 O.co2     1 AKG        -0.5688
     10 O4         13.0820   28.9310   -1.0380 O.co2     1 AKG        -0.5688
     11 H1         15.2728   26.9169   -3.4993 H         1 AKG         0.0516
     12 H2         14.2625   25.5788   -2.8548 H         1 AKG         0.0516
     13 H3         12.2688   27.0601   -2.9236 H         1 AKG         0.0456
     14 H4         13.2911   28.3987   -3.5482 H         1 AKG         0.0456
@<TRIPOS>BOND
     1    1    2 ar 
     2    1    3 ar 
     3    1    4 1  
     4    4    5 2  
     5    4    6 1  
     6    6    7 1  
     7    7    8 1  
     8    8    9 ar 
     9    8   10 ar 
    10    6   11 1  
    11    6   12 1  
    12    7   13 1  
    13    7   14 1  
@<TRIPOS>SUBSTRUCTURE
     1 AKG         1

