### 
### Created by X-TOOL on Mon Sep 10 21:13:07 2018
### 

@<TRIPOS>MOLECULE
3ovn_ligand
   21    22     1     0     0
SMALL
GAST_HUCK


@<TRIPOS>ATOM
      1 C1         24.2990    7.5140   11.0560 C.2       1 MPV        -0.0305
      2 C2         25.4810    8.0050   10.5350 C.2       1 MPV         0.1512
      3 N3         25.3100    8.9620    9.6300 N.pl3     1 MPV        -0.1963
      4 N4         23.9230    9.1380    9.4760 N.2       1 MPV        -0.2387
      5 C5         23.3840    8.2720   10.3590 C.2       1 MPV         0.0203
      6 C6         21.9110    8.1130   10.4970 C.2       1 MPV         0.0328
      7 S7         20.8110    8.6870    9.3160 S.3       1 MPV        -0.0406
      8 C8         19.4770    8.0930   10.2200 C.2       1 MPV        -0.0072
      9 C9         19.8980    7.4500   11.3750 C.2       1 MPV        -0.0762
     10 C10        21.2890    7.4590   11.5420 C.2       1 MPV        -0.0704
     11 C11        26.2200    9.8120    8.8030 C.3       1 MPV         0.0580
     12 N12        26.7080    7.5920   10.9210 N.pl3     1 MPV        -0.3098
     13 H1         24.1363    6.7431   11.8077 H         1 MPV         0.0169
     14 H2         18.4350    8.2065    9.9247 H         1 MPV         0.0729
     15 H3         19.2141    6.9838   12.0827 H         1 MPV         0.0417
     16 H4         21.8111    7.0093   12.3852 H         1 MPV         0.0424
     17 H5         25.6206   10.4873    8.1748 H         1 MPV         0.0590
     18 H6         26.8403    9.1687    8.1616 H         1 MPV         0.0590
     19 H7         26.8687   10.4055    9.4640 H         1 MPV         0.0590
     20 H8         26.8025    6.8469   11.6258 H         1 MPV         0.1782
     21 H9         27.5490    8.0223   10.5105 H         1 MPV         0.1782
@<TRIPOS>BOND
     1    1    2 2  
     2    1    5 1  
     3    2    3 1  
     4    2   12 1  
     5    3    4 1  
     6    3   11 1  
     7    4    5 2  
     8    5    6 1  
     9    6    7 1  
    10    6   10 2  
    11    7    8 1  
    12    8    9 2  
    13    9   10 1  
    14    1   13 1  
    15    8   14 1  
    16    9   15 1  
    17   10   16 1  
    18   11   17 1  
    19   11   18 1  
    20   11   19 1  
    21   12   20 1  
    22   12   21 1  
@<TRIPOS>SUBSTRUCTURE
     1 MPV         1

