### 
### Created by X-TOOL on Mon Sep 10 21:13:03 2018
### 

@<TRIPOS>MOLECULE
3ovx_ligand
   32    32     1     0     0
SMALL
GAST_HUCK


@<TRIPOS>ATOM
      1 C1         28.8940   33.9020   20.4670 C.ar      1 O64         0.0670
      2 C2         30.0390   33.4370   21.1190 C.ar      1 O64        -0.0278
      3 C3         30.5670   34.1440   22.1980 C.ar      1 O64        -0.0274
      4 C4         29.9540   35.3180   22.6260 C.ar      1 O64        -0.0145
      5 C5         28.8160   35.7860   21.9730 C.ar      1 O64         0.0931
      6 C6         28.2870   35.0710   20.9080 C.ar      1 O64         0.0945
      7 CL7        26.8200   35.6600   20.0660 Cl        1 O64        -0.0351
      8 C8         28.1630   37.0440   22.4750 C.2       1 O64         0.2125
      9 N9         28.7850   38.2320   22.3940 N.am      1 O64        -0.2804
     10 O10        27.0650   36.9140   22.9820 O.2       1 O64        -0.3840
     11 C11        28.2110   39.4860   22.8900 C.3       1 O64         0.0643
     12 C12        27.9780   40.4220   21.6990 C.3       1 O64         0.0671
     13 O13        27.0500   41.4590   22.0610 O.3       1 O64        -0.3927
     14 C14        29.2590   40.0990   23.8190 C.3       1 O64        -0.0306
     15 C15        29.4550   39.2760   25.0740 C.3       1 O64        -0.0631
     16 C16        28.2950   33.1500   19.3040 C.3       1 O64         0.3773
     17 F17        28.2420   33.9270   18.2420 F         1 O64        -0.2211
     18 F18        27.0690   32.7540   19.6060 F         1 O64        -0.2211
     19 F19        29.0040   32.0740   19.0270 F         1 O64        -0.2211
     20 H          30.5207   32.5188   20.7829 H         1 O64         0.0881
     21 H          31.4591   33.7778   22.7061 H         1 O64         0.0708
     22 H          30.3640   35.8707   23.4713 H         1 O64         0.0901
     23 H          29.7089   38.2630   21.9630 H         1 O64         0.1849
     24 H          27.2658   39.3265   23.4089 H         1 O64         0.0578
     25 H          27.5678   39.8485   20.8677 H         1 O64         0.0580
     26 H          28.9260   40.8751   21.4088 H         1 O64         0.0580
     27 H          26.2146   41.0632   22.3199 H         1 O64         0.2095
     28 H          28.9159   41.0912   24.1122 H         1 O64         0.0285
     29 H          30.2081   40.1366   23.2844 H         1 O64         0.0285
     30 H          28.5121   39.2142   25.6173 H         1 O64         0.0230
     31 H          29.7853   38.2736   24.8017 H         1 O64         0.0230
     32 H          30.2082   39.7496   25.7036 H         1 O64         0.0230
@<TRIPOS>BOND
     1    1    2 ar 
     2    1    6 ar 
     3    1   16 1  
     4    2    3 ar 
     5    3    4 ar 
     6    4    5 ar 
     7    5    6 ar 
     8    5    8 1  
     9    6    7 1  
    10    8    9 am 
    11    8   10 2  
    12    9   11 1  
    13   11   12 1  
    14   11   14 1  
    15   12   13 1  
    16   14   15 1  
    17   16   17 1  
    18   16   18 1  
    19   16   19 1  
    20    2   20 1  
    21    3   21 1  
    22    4   22 1  
    23    9   23 1  
    24   11   24 1  
    25   12   25 1  
    26   12   26 1  
    27   13   27 1  
    28   14   28 1  
    29   14   29 1  
    30   15   30 1  
    31   15   31 1  
    32   15   32 1  
@<TRIPOS>SUBSTRUCTURE
     1 O64         1

