### 
### Created by X-TOOL on Mon Sep 10 21:13:04 2018
### 

@<TRIPOS>MOLECULE
3ovz_ligand
   49    50     1     0     0
SMALL
GAST_HUCK


@<TRIPOS>ATOM
      1 N1         11.3270  -20.5380   -2.9200 N.am      1 O96        -0.2987
      2 C4         10.0600  -20.1520   -2.5870 C.2       1 O96         0.2047
      3 C5          9.5600  -19.0050   -3.4960 C.3       1 O96         0.1659
      4 C6         10.4580  -17.7460   -3.4680 C.3       1 O96         0.0841
      5 N8          9.9360  -16.6540   -4.3050 N.am      1 O96        -0.2791
      6 C10        10.6330  -16.0130   -5.3140 C.2       1 O96         0.2059
      7 C11         9.8690  -14.9270   -5.9270 C.ar      1 O96         0.0819
      8 C12         9.9860  -13.6810   -5.3200 C.ar      1 O96        -0.0227
      9 C14         9.2600  -12.6060   -5.8180 C.ar      1 O96         0.0050
     10 C16         8.3990  -12.7630   -6.9300 C.ar      1 O96         0.1390
     11 C17         8.2720  -14.0040   -7.5500 C.ar      1 O96         0.0962
     12 C18         9.0040  -15.0710   -7.0110 C.ar      1 O96         0.0869
     13 CL19        8.8620  -16.6070   -7.7160 Cl        1 O96        -0.0403
     14 C20         7.3160  -14.1660   -8.7090 C.3       1 O96         0.3690
     15 F21         7.7720  -14.4740   -9.9440 F         1 O96        -0.2313
     16 F22         6.4910  -15.1760   -8.4100 F         1 O96        -0.2313
     17 F23         6.4700  -13.1290   -8.9570 F         1 O96        -0.2313
     18 O24         7.6500  -11.7900   -7.5130 O.3       1 O96        -0.2745
     19 C25         7.7670  -10.4650   -7.0030 C.3       1 O96         0.1302
     20 C28         7.0890   -9.4690   -7.8930 C.ar      1 O96         0.0605
     21 N29         7.2600   -8.1810   -7.5390 N.ar      1 O96        -0.2952
     22 C30         6.6720   -7.2470   -8.3240 C.ar      1 O96         0.0029
     23 C32         5.9250   -7.5500   -9.4460 C.ar      1 O96        -0.0410
     24 C34         5.7880   -8.8640   -9.8040 C.ar      1 O96        -0.0488
     25 C36         6.3630   -9.8380   -9.0090 C.ar      1 O96        -0.0296
     26 O38        11.7590  -16.3050   -5.7010 O.2       1 O96        -0.3879
     27 C39        10.6090  -17.2390   -2.0130 C.3       1 O96        -0.0282
     28 C42        11.7430  -16.2360   -1.8720 C.3       1 O96        -0.0630
     29 O46         8.1830  -18.7590   -3.2180 O.3       1 O96        -0.3691
     30 O47         9.4240  -20.7000   -1.7010 O.2       1 O96        -0.3943
     31 H          11.7729  -21.3085   -2.4221 H         1 O96         0.1815
     32 H          11.8274  -20.0558   -3.6666 H         1 O96         0.1815
     33 H           9.6400  -19.3229   -4.5356 H         1 O96         0.0861
     34 H          11.4250  -18.0410   -3.8754 H         1 O96         0.0607
     35 H           8.9809  -16.3438   -4.1265 H         1 O96         0.1848
     36 H          10.6424  -13.5488   -4.4599 H         1 O96         0.0863
     37 H           9.3550  -11.6283   -5.3456 H         1 O96         0.0637
     38 H           8.8253  -10.2106   -6.9454 H         1 O96         0.0832
     39 H           7.2915  -10.4303   -6.0228 H         1 O96         0.0832
     40 H           6.7950   -6.1978   -8.0556 H         1 O96         0.0803
     41 H           5.4554   -6.7606  -10.0328 H         1 O96         0.0652
     42 H           5.2342   -9.1382  -10.7019 H         1 O96         0.0719
     43 H           6.2442  -10.8917   -9.2614 H         1 O96         0.0652
     44 H          10.8309  -18.0951   -1.3758 H         1 O96         0.0287
     45 H           9.6805  -16.7450   -1.7269 H         1 O96         0.0287
     46 H          12.6810  -16.7061   -2.1676 H         1 O96         0.0231
     47 H          11.5480  -15.3765   -2.5133 H         1 O96         0.0231
     48 H          11.8102  -15.9090   -0.8344 H         1 O96         0.0231
     49 H           7.6975  -19.5864   -3.2548 H         1 O96         0.2134
@<TRIPOS>BOND
     1    1    2 am 
     2    2    3 1  
     3    2   30 2  
     4    3    4 1  
     5    3   29 1  
     6    4    5 1  
     7    4   27 1  
     8    5    6 am 
     9    6    7 1  
    10    6   26 2  
    11    7    8 ar 
    12    7   12 ar 
    13    8    9 ar 
    14    9   10 ar 
    15   10   11 ar 
    16   10   18 1  
    17   11   12 ar 
    18   11   14 1  
    19   12   13 1  
    20   14   15 1  
    21   14   16 1  
    22   14   17 1  
    23   18   19 1  
    24   19   20 1  
    25   20   21 ar 
    26   20   25 ar 
    27   21   22 ar 
    28   22   23 ar 
    29   23   24 ar 
    30   24   25 ar 
    31   27   28 1  
    32    1   31 1  
    33    1   32 1  
    34    3   33 1  
    35    4   34 1  
    36    5   35 1  
    37    8   36 1  
    38    9   37 1  
    39   19   38 1  
    40   19   39 1  
    41   22   40 1  
    42   23   41 1  
    43   24   42 1  
    44   25   43 1  
    45   27   44 1  
    46   27   45 1  
    47   28   46 1  
    48   28   47 1  
    49   28   48 1  
    50   29   49 1  
@<TRIPOS>SUBSTRUCTURE
     1 O96         1

