### 
### Created by X-TOOL on Mon Sep 10 21:13:02 2018
### 

@<TRIPOS>MOLECULE
3ow3_ligand
   57    61     1     0     0
SMALL
GAST_HUCK


@<TRIPOS>ATOM
      1 N1         11.1820   34.7530   36.8670 N.ar      1 SMY        -0.2682
      2 C2         12.5280   34.7370   37.0060 C.ar      1 SMY         0.0563
      3 N3         13.3080   33.6550   36.9970 N.ar      1 SMY        -0.2907
      4 C4         12.6840   32.4930   36.7520 C.ar      1 SMY         0.0433
      5 C5         11.2740   32.4060   36.6120 C.ar      1 SMY         0.0407
      6 C6         10.5370   33.6060   36.6420 C.ar      1 SMY         0.1269
      7 C7         13.4410   31.2100   36.6910 C.3       1 SMY         0.0444
      8 S8         12.0440   30.0140   36.5100 S.3       1 SMY        -0.1290
      9 C9         10.5960   31.0650   36.3230 C.3       1 SMY         0.0426
     10 C10         9.5300   30.4410   37.3110 C.3       1 SMY        -0.0444
     11 N11         9.1770   33.6140   36.4220 N.pl3     1 SMY        -0.2879
     12 C12         8.2040   33.9320   37.4140 C.3       1 SMY         0.0510
     13 C13         7.0290   34.5900   36.7170 C.3       1 SMY         0.0544
     14 N14         6.3570   33.8360   35.6400 N.am      1 SMY        -0.2646
     15 C15         7.2220   32.9550   34.8370 C.3       1 SMY         0.0544
     16 C16         8.6780   32.8090   35.2940 C.3       1 SMY         0.0510
     17 C17         5.0120   34.0590   35.3900 C.2       1 SMY         0.2283
     18 O18         4.3660   34.8540   36.0780 O.2       1 SMY        -0.3905
     19 C19         4.1210   33.4490   34.2950 C.3       1 SMY         0.0691
     20 C20         3.0950   32.4720   34.9260 C.3       1 SMY         0.0245
     21 C21         3.5140   31.1160   35.5470 C.2       1 SMY        -0.0386
     22 C22         2.7250   30.3540   36.3700 C.2       1 SMY         0.0168
     23 N23         3.3040   29.1480   36.7880 N.pl3     1 SMY        -0.2890
     24 C24         4.5380   29.1270   36.2120 C.ar      1 SMY         0.0603
     25 C25         4.7210   30.2770   35.4630 C.ar      1 SMY        -0.0213
     26 C26         5.5740   28.1660   36.2820 C.ar      1 SMY        -0.0443
     27 C27         6.8150   28.3140   35.6180 C.ar      1 SMY        -0.0768
     28 C28         6.9990   29.4830   34.8510 C.ar      1 SMY        -0.0792
     29 C29         5.9530   30.4420   34.7800 C.ar      1 SMY        -0.0747
     30 N30         3.5340   34.6350   33.5480 N.4       1 SMY         0.2388
     31 H1         13.0190   35.6945   37.1371 H         1 SMY         0.1000
     32 H2         14.0138   31.0307   37.6128 H         1 SMY         0.0571
     33 H3         14.1193   31.1780   35.8257 H         1 SMY         0.0571
     34 H4         10.1776   31.0671   35.3057 H         1 SMY         0.0554
     35 H5          9.1752   29.4807   36.9086 H         1 SMY         0.0260
     36 H6          8.6798   31.1309   37.4165 H         1 SMY         0.0260
     37 H7          9.9937   30.2773   38.2950 H         1 SMY         0.0260
     38 H8          8.6353   34.6231   38.1532 H         1 SMY         0.0542
     39 H9          7.8721   33.0137   37.9205 H         1 SMY         0.0542
     40 H10         7.3921   35.5321   36.2805 H         1 SMY         0.0542
     41 H11         6.2727   34.8092   37.4851 H         1 SMY         0.0542
     42 H12         7.2340   33.3476   33.8095 H         1 SMY         0.0542
     43 H13         6.7703   31.9521   34.8411 H         1 SMY         0.0542
     44 H14         8.8209   31.7535   35.5686 H         1 SMY         0.0542
     45 H15         9.3095   33.0510   34.4265 H         1 SMY         0.0542
     46 H16         4.7413   32.8702   33.5948 H         1 SMY         0.1114
     47 H17         2.3707   32.2346   34.1329 H         1 SMY         0.0430
     48 H18         2.5911   33.0327   35.7270 H         1 SMY         0.0430
     49 H19         1.7260   30.6620   36.6751 H         1 SMY         0.0795
     50 H20         2.8863   28.4318   37.3992 H         1 SMY         0.2216
     51 H21         5.4091   27.2725   36.8732 H         1 SMY         0.0541
     52 H22         7.5909   27.5610   35.6957 H         1 SMY         0.0530
     53 H23         7.9298   29.6484   34.3205 H         1 SMY         0.0510
     54 H24         6.1022   31.3333   34.1813 H         1 SMY         0.0540
     55 H25         4.2808   35.2030   33.1796 H         1 SMY         0.2016
     56 H26         2.9732   35.1855   34.1792 H         1 SMY         0.2016
     57 H27         2.9588   34.3032   32.7897 H         1 SMY         0.2016
@<TRIPOS>BOND
     1    1    2 ar 
     2    1    6 ar 
     3    2    3 ar 
     4    3    4 ar 
     5    4    5 ar 
     6    4    7 1  
     7    5    6 ar 
     8    5    9 1  
     9    6   11 1  
    10    7    8 1  
    11    8    9 1  
    12    9   10 1  
    13   11   12 1  
    14   11   16 1  
    15   12   13 1  
    16   13   14 1  
    17   14   15 1  
    18   14   17 am 
    19   15   16 1  
    20   17   18 2  
    21   17   19 1  
    22   19   20 1  
    23   19   30 1  
    24   20   21 1  
    25   21   22 2  
    26   21   25 1  
    27   22   23 1  
    28   23   24 1  
    29   24   25 ar 
    30   24   26 ar 
    31   25   29 ar 
    32   26   27 ar 
    33   27   28 ar 
    34   28   29 ar 
    35    2   31 1  
    36    7   32 1  
    37    7   33 1  
    38    9   34 1  
    39   10   35 1  
    40   10   36 1  
    41   10   37 1  
    42   12   38 1  
    43   12   39 1  
    44   13   40 1  
    45   13   41 1  
    46   15   42 1  
    47   15   43 1  
    48   16   44 1  
    49   16   45 1  
    50   19   46 1  
    51   20   47 1  
    52   20   48 1  
    53   22   49 1  
    54   23   50 1  
    55   26   51 1  
    56   27   52 1  
    57   28   53 1  
    58   29   54 1  
    59   30   55 1  
    60   30   56 1  
    61   30   57 1  
@<TRIPOS>SUBSTRUCTURE
     1 SMY         1

