### 
### Created by X-TOOL on Mon Sep 10 21:13:03 2018
### 

@<TRIPOS>MOLECULE
3ow4_ligand
   57    61     1     0     0
SMALL
GAST_HUCK


@<TRIPOS>ATOM
      1 N1         14.8750   -3.9170   15.3650 N.ar      1 SMY        -0.2682
      2 C2         16.1030   -4.3250   15.0060 C.ar      1 SMY         0.0563
      3 N3         17.2190   -3.5850   14.9670 N.ar      1 SMY        -0.2907
      4 C4         17.1050   -2.2990   15.3210 C.ar      1 SMY         0.0433
      5 C5         15.8650   -1.7680   15.7050 C.ar      1 SMY         0.0407
      6 C6         14.7310   -2.6270   15.7100 C.ar      1 SMY         0.1269
      7 C7         18.2720   -1.3470   15.3170 C.3       1 SMY         0.0444
      8 S8         17.5300    0.2820   15.6260 S.3       1 SMY        -0.1290
      9 C9         15.8530   -0.2920   16.0540 C.3       1 SMY         0.0426
     10 C10        14.9140    0.4890   15.1300 C.3       1 SMY        -0.0444
     11 N11        13.4590   -2.2330   16.1130 N.pl3     1 SMY        -0.2879
     12 C12        13.3480   -1.5350   17.4150 C.3       1 SMY         0.0510
     13 C13        12.0200   -0.8080   17.6360 C.3       1 SMY         0.0544
     14 N14        10.9520   -1.8130   17.4960 N.am      1 SMY        -0.2646
     15 C15        10.9780   -2.5500   16.2190 C.3       1 SMY         0.0544
     16 C16        12.3480   -3.1770   15.9280 C.3       1 SMY         0.0510
     17 C17         9.7980   -1.6830   18.1930 C.2       1 SMY         0.2283
     18 O18         8.8550   -2.4760   18.0590 O.2       1 SMY        -0.3905
     19 C19         9.8580   -1.0000   19.5320 C.3       1 SMY         0.0691
     20 C20         8.9970    0.2740   19.6090 C.3       1 SMY         0.0245
     21 C21         9.3350    1.4750   18.7340 C.2       1 SMY        -0.0386
     22 C22        10.0790    2.5850   19.0550 C.2       1 SMY         0.0168
     23 N23        10.1780    3.5360   18.0070 N.pl3     1 SMY        -0.2890
     24 C24         9.4530    3.0010   16.9810 C.ar      1 SMY         0.0603
     25 C25         8.9230    1.7660   17.3700 C.ar      1 SMY        -0.0213
     26 C26         9.2100    3.5180   15.6870 C.ar      1 SMY        -0.0443
     27 C27         8.4090    2.7490   14.8060 C.ar      1 SMY        -0.0768
     28 C28         7.8700    1.4970   15.2040 C.ar      1 SMY        -0.0792
     29 C29         8.1250    0.9920   16.4970 C.ar      1 SMY        -0.0747
     30 N30         9.4970   -2.0290   20.5450 N.4       1 SMY         0.2388
     31 H          16.2024   -5.3707   14.7150 H         1 SMY         0.1000
     32 H          18.8191   -1.3749   14.3747 H         1 SMY         0.0571
     33 H          19.0147   -1.6076   16.0710 H         1 SMY         0.0571
     34 H          15.5479   -0.1480   17.0905 H         1 SMY         0.0554
     35 H          15.0316    1.5570   15.3132 H         1 SMY         0.0260
     36 H          15.1612    0.2677   14.0917 H         1 SMY         0.0260
     37 H          13.8833    0.1961   15.3298 H         1 SMY         0.0260
     38 H          14.1327   -0.7788   17.4388 H         1 SMY         0.0542
     39 H          13.4277   -2.2955   18.1918 H         1 SMY         0.0542
     40 H          11.8932   -0.0058   16.9090 H         1 SMY         0.0542
     41 H          11.9909   -0.3486   18.6241 H         1 SMY         0.0542
     42 H          10.7555   -1.8436   15.4192 H         1 SMY         0.0542
     43 H          10.2466   -3.3558   16.2816 H         1 SMY         0.0542
     44 H          12.4919   -4.0019   16.6258 H         1 SMY         0.0542
     45 H          12.3532   -3.4977   14.8862 H         1 SMY         0.0542
     46 H          10.8620   -0.6208   19.7223 H         1 SMY         0.1114
     47 H           9.1319    0.6332   20.6292 H         1 SMY         0.0430
     48 H           8.0108   -0.0422   19.2691 H         1 SMY         0.0430
     49 H          10.5509    2.7224   20.0279 H         1 SMY         0.0795
     50 H          10.6801    4.4238   18.0176 H         1 SMY         0.2216
     51 H           9.6254    4.4770   15.3773 H         1 SMY         0.0541
     52 H           8.2029    3.1258   13.8042 H         1 SMY         0.0530
     53 H           7.2571    0.9239   14.5083 H         1 SMY         0.0510
     54 H           7.7179    0.0317   16.8136 H         1 SMY         0.0540
     55 H           9.5235   -1.6122   21.4756 H         1 SMY         0.2016
     56 H           8.5577   -2.3777   20.3539 H         1 SMY         0.2016
     57 H          10.1633   -2.7998   20.4973 H         1 SMY         0.2016
@<TRIPOS>BOND
     1    1    2 ar 
     2    1    6 ar 
     3    2    3 ar 
     4    3    4 ar 
     5    4    5 ar 
     6    4    7 1  
     7    5    6 ar 
     8    5    9 1  
     9    6   11 1  
    10    7    8 1  
    11    8    9 1  
    12    9   10 1  
    13   11   12 1  
    14   11   16 1  
    15   12   13 1  
    16   13   14 1  
    17   14   15 1  
    18   14   17 am 
    19   15   16 1  
    20   17   18 2  
    21   17   19 1  
    22   19   20 1  
    23   19   30 1  
    24   20   21 1  
    25   21   22 2  
    26   21   25 1  
    27   22   23 1  
    28   23   24 1  
    29   24   25 ar 
    30   24   26 ar 
    31   25   29 ar 
    32   26   27 ar 
    33   27   28 ar 
    34   28   29 ar 
    35    2   31 1  
    36    7   32 1  
    37    7   33 1  
    38    9   34 1  
    39   10   35 1  
    40   10   36 1  
    41   10   37 1  
    42   12   38 1  
    43   12   39 1  
    44   13   40 1  
    45   13   41 1  
    46   15   42 1  
    47   15   43 1  
    48   16   44 1  
    49   16   45 1  
    50   19   46 1  
    51   20   47 1  
    52   20   48 1  
    53   22   49 1  
    54   23   50 1  
    55   26   51 1  
    56   27   52 1  
    57   28   53 1  
    58   29   54 1  
    59   30   55 1  
    60   30   56 1  
    61   30   57 1  
@<TRIPOS>SUBSTRUCTURE
     1 SMY         1

