### 
### Created by X-TOOL on Mon Sep 10 21:13:06 2018
### 

@<TRIPOS>MOLECULE
3ow6_ligand
   28    30     1     0     0
SMALL
GAST_HUCK


@<TRIPOS>ATOM
      1 C1         -0.3290  -11.5360   -2.8250 C.ar      1 MEX        -0.0510
      2 C2         -1.4990  -11.5330   -3.5630 C.ar      1 MEX         0.1113
      3 C3         -2.6500  -12.0770   -3.0340 C.ar      1 MEX         0.1078
      4 C4         -2.7180  -12.5710   -1.7450 C.ar      1 MEX        -0.0151
      5 C5         -1.5360  -12.5530   -1.0130 C.ar      1 MEX         0.0657
      6 C6         -0.3580  -12.0570   -1.5440 C.ar      1 MEX        -0.0553
      7 O7         -1.5290  -13.0030    0.3090 O.3       1 MEX        -0.3442
      8 O8         -3.7810  -12.0460   -3.8280 O.3       1 MEX        -0.3400
      9 N9         -1.5740  -10.9670   -4.8700 N.am      1 MEX        -0.1651
     10 C10        -1.4130   -9.6010   -5.1410 C.ar      1 MEX         0.1116
     11 C11        -1.4550   -9.4510   -6.5020 C.ar      1 MEX         0.0956
     12 N12        -1.6380  -10.7030   -7.0820 N.am      1 MEX        -0.2153
     13 C13        -1.7350  -11.6480   -6.0540 C.2       1 MEX         0.3311
     14 C14        -1.2730   -8.5320   -4.2970 C.ar      1 MEX        -0.0491
     15 C15        -1.1680   -7.2950   -4.8940 C.ar      1 MEX        -0.0891
     16 C16        -1.1970   -7.1430   -6.2690 C.ar      1 MEX        -0.0894
     17 C17        -1.3430   -8.2230   -7.1140 C.ar      1 MEX        -0.0523
     18 O18        -1.8860  -12.8530   -6.1640 O.2       1 MEX        -0.3867
     19 H1          0.5898  -11.1390   -3.2412 H         1 MEX         0.0465
     20 H2         -3.6429  -12.9519   -1.3273 H         1 MEX         0.0430
     21 H3          0.5493  -12.0770   -0.9511 H         1 MEX         0.0418
     22 H4         -2.3962  -13.3139    0.5411 H         1 MEX         0.2438
     23 H5         -4.1127  -12.9292   -3.9393 H         1 MEX         0.2441
     24 H6         -1.6909  -10.8940   -8.0622 H         1 MEX         0.2255
     25 H7         -1.2463   -8.6523   -3.2200 H         1 MEX         0.0473
     26 H8         -1.0596   -6.4160   -4.2690 H         1 MEX         0.0455
     27 H9         -1.1026   -6.1497   -6.6928 H         1 MEX         0.0459
     28 H10        -1.3680   -8.1120   -8.1920 H         1 MEX         0.0462
@<TRIPOS>BOND
     1    1    2 ar 
     2    1    6 ar 
     3    2    3 ar 
     4    2    9 1  
     5    3    4 ar 
     6    3    8 1  
     7    4    5 ar 
     8    5    6 ar 
     9    5    7 1  
    10    9   10 1  
    11    9   13 am 
    12   10   11 ar 
    13   10   14 ar 
    14   11   12 1  
    15   11   17 ar 
    16   12   13 am 
    17   13   18 2  
    18   14   15 ar 
    19   15   16 ar 
    20   16   17 ar 
    21    1   19 1  
    22    4   20 1  
    23    6   21 1  
    24    7   22 1  
    25    8   23 1  
    26   12   24 1  
    27   14   25 1  
    28   15   26 1  
    29   16   27 1  
    30   17   28 1  
@<TRIPOS>SUBSTRUCTURE
     1 MEX         1

