### 
### Created by X-TOOL on Mon Sep 10 21:13:05 2018
### 

@<TRIPOS>MOLECULE
3owb_ligand
   45    47     1     0     0
SMALL
GAST_HUCK


@<TRIPOS>ATOM
      1 C22        -2.3020    5.6650   28.2240 C.3       1 BSM         0.0588
      2 O21        -2.7530    6.2040   26.9840 O.3       1 BSM        -0.3234
      3 C18        -1.7220    6.7420   26.2210 C.ar      1 BSM         0.0872
      4 C19        -2.0730    7.2370   24.9860 C.ar      1 BSM        -0.0369
      5 C20        -1.1180    7.7730   24.1530 C.ar      1 BSM        -0.0698
      6 C17        -0.4000    6.7690   26.6130 C.ar      1 BSM        -0.0369
      7 C16         0.5500    7.3460   25.7720 C.ar      1 BSM        -0.0698
      8 C7          0.2080    7.8470   24.5370 C.ar      1 BSM        -0.0441
      9 C3          1.1500    8.5410   23.6610 C.2       1 BSM         0.0149
     10 C2          1.4450    8.1640   22.3670 C.2       1 BSM         0.1146
     11 C8          0.9770    7.0700   21.5930 C.2       1 BSM         0.2100
     12 O9          0.4040    6.1250   22.0980 O.2       1 BSM        -0.3859
     13 N10         1.1500    7.2530   20.2360 N.am      1 BSM        -0.2865
     14 C26         0.8800    6.1460   19.3390 C.3       1 BSM         0.0275
     15 C27        -0.2920    6.4240   18.4370 C.3       1 BSM        -0.0449
     16 N1          2.3310    9.0790   21.8850 N.2       1 BSM        -0.1947
     17 N5          2.6150   10.0560   22.7730 N.pl3     1 BSM        -0.2114
     18 C4          1.9010    9.7390   23.8590 C.2       1 BSM         0.0933
     19 C6          1.9370   10.5780   25.0230 C.ar      1 BSM         0.0349
     20 C11         0.7410   11.0650   25.5290 C.ar      1 BSM        -0.0508
     21 C12         0.7320   11.8310   26.6740 C.ar      1 BSM         0.0593
     22 CL25       -0.7600   12.4830   27.3490 Cl        1 BSM        -0.0872
     23 C13         1.9290   12.0540   27.3090 C.ar      1 BSM         0.0965
     24 O24         1.9270   12.7630   28.4930 O.3       1 BSM        -0.3330
     25 C14         3.1360   11.5880   26.8220 C.ar      1 BSM        -0.0008
     26 C15         3.1370   10.8700   25.6490 C.ar      1 BSM         0.0958
     27 O23         4.3550   10.4290   25.1420 O.3       1 BSM        -0.3312
     28 H1         -3.1590    5.2565   28.7796 H         1 BSM         0.0577
     29 H2         -1.8253    6.4592   28.8173 H         1 BSM         0.0577
     30 H3         -1.5737    4.8633   28.0321 H         1 BSM         0.0577
     31 H4         -3.1086    7.2045   24.6673 H         1 BSM         0.0535
     32 H5         -1.4108    8.1442   23.1775 H         1 BSM         0.0550
     33 H6         -0.1027    6.3457   27.5656 H         1 BSM         0.0535
     34 H7          1.5822    7.4013   26.0985 H         1 BSM         0.0550
     35 H8          1.4566    8.1346   19.8772 H         1 BSM         0.1844
     36 H9          0.6626    5.2490   19.9374 H         1 BSM         0.0517
     37 H10         1.7705    5.9661   18.7188 H         1 BSM         0.0517
     38 H11        -0.4593    5.5604   17.7766 H         1 BSM         0.0249
     39 H12        -0.0827    7.3160   17.8282 H         1 BSM         0.0249
     40 H13        -1.1907    6.5988   19.0468 H         1 BSM         0.0249
     41 H14         3.2408   10.8638   22.6433 H         1 BSM         0.2564
     42 H15        -0.1905   10.8420   25.0214 H         1 BSM         0.0583
     43 H16         2.8170   12.8398   28.8164 H         1 BSM         0.2497
     44 H17         4.0607   11.7841   27.3527 H         1 BSM         0.0469
     45 H18         4.9146   11.1771   24.9698 H         1 BSM         0.2506
@<TRIPOS>BOND
     1    1    2 1  
     2    2    3 1  
     3    3    4 ar 
     4    3    6 ar 
     5    4    5 ar 
     6    5    8 ar 
     7    6    7 ar 
     8    7    8 ar 
     9    8    9 1  
    10    9   10 1  
    11    9   18 2  
    12   10   11 1  
    13   10   16 2  
    14   11   12 2  
    15   11   13 am 
    16   13   14 1  
    17   14   15 1  
    18   16   17 1  
    19   17   18 1  
    20   18   19 1  
    21   19   20 ar 
    22   19   26 ar 
    23   20   21 ar 
    24   21   22 1  
    25   21   23 ar 
    26   23   24 1  
    27   23   25 ar 
    28   25   26 ar 
    29   26   27 1  
    30    1   28 1  
    31    1   29 1  
    32    1   30 1  
    33    4   31 1  
    34    5   32 1  
    35    6   33 1  
    36    7   34 1  
    37   13   35 1  
    38   14   36 1  
    39   14   37 1  
    40   15   38 1  
    41   15   39 1  
    42   15   40 1  
    43   17   41 1  
    44   20   42 1  
    45   24   43 1  
    46   25   44 1  
    47   27   45 1  
@<TRIPOS>SUBSTRUCTURE
     1 BSM         1

