### 
### Created by X-TOOL on Mon Sep 10 21:13:05 2018
### 

@<TRIPOS>MOLECULE
3owd_ligand
   52    56     1     0     0
SMALL
GAST_HUCK


@<TRIPOS>ATOM
      1 C1         -3.8920    8.1520   23.8240 C.ar      1 MEY        -0.0612
      2 C2         -3.8990    6.8010   24.1600 C.ar      1 MEY        -0.0611
      3 C3         -3.4850    7.0920   19.1550 C.ar      1 MEY        -0.0593
      4 C4         -3.7850    8.5440   22.5040 C.ar      1 MEY        -0.0540
      5 C5         -3.8080    5.8550   23.1500 C.ar      1 MEY        -0.0521
      6 C6         -3.5780    7.9990   20.1880 C.ar      1 MEY        -0.0539
      7 C7         -0.5250    5.6400   22.5430 C.ar      1 MEY        -0.0852
      8 C8         -0.2030    6.9560   22.8600 C.ar      1 MEY        -0.0547
      9 C9         -3.5000    5.7490   19.4500 C.ar      1 MEY        -0.0345
     10 C10         0.0160    5.9520   20.2220 C.ar      1 MEY        -0.0490
     11 C11        -0.6070   10.3890   23.3900 C.ar      1 MEY        -0.0376
     12 C12         1.7250   11.0630   24.7330 C.ar      1 MEY        -0.0143
     13 C13        -3.6800    7.5920   21.5070 C.ar      1 MEY        -0.0160
     14 C14        -3.7170    6.2440   21.8270 C.ar      1 MEY         0.0087
     15 C15        -0.4490    5.1350   21.2490 C.ar      1 MEY        -0.0515
     16 C16         0.2400    7.7510   21.8160 C.ar      1 MEY         0.1052
     17 C17         0.3620    7.2480   20.5470 C.ar      1 MEY         0.0895
     18 C18         0.6140    9.9770   22.8910 C.ar      1 MEY         0.1105
     19 C19         1.7750   10.3570   23.5490 C.ar      1 MEY         0.1079
     20 C20         0.4930   11.4180   25.2460 C.ar      1 MEY         0.0799
     21 C21        -3.6160    5.3480   20.7690 C.ar      1 MEY         0.1159
     22 C22        -0.6570   11.1480   24.5360 C.ar      1 MEY         0.0449
     23 C23         1.0950    9.3910   20.4980 C.2       1 MEY         0.3295
     24 C24        -0.8510    3.7170   20.9460 C.3       1 MEY         0.0508
     25 N25         0.8820    8.2690   19.7050 N.am      1 MEY        -0.2169
     26 N26         0.6910    9.0770   21.7940 N.am      1 MEY        -0.1687
     27 N27        -2.0360    3.2630   21.7210 N.am      1 MEY        -0.2384
     28 O28         1.5110   10.4830   20.1350 O.2       1 MEY        -0.3873
     29 O29        -4.5480    3.1780   21.9790 O.2       1 MEY        -0.1501
     30 O30        -3.5760    3.0080   19.6750 O.2       1 MEY        -0.1501
     31 O31         2.9960   10.0480   22.9820 O.3       1 MEY        -0.3397
     32 O32         0.4060   12.1280   26.4350 O.3       1 MEY        -0.3434
     33 S33        -3.5530    3.5770   21.0000 S.o2      1 MEY         0.0703
     34 CL34       -2.2050   11.6910   25.1340 Cl        1 MEY        -0.0922
     35 H1         -3.9710    8.9012   24.6035 H         1 MEY         0.0618
     36 H2         -3.9745    6.4928   25.1965 H         1 MEY         0.0618
     37 H3         -3.4015    7.4309   18.1287 H         1 MEY         0.0618
     38 H4         -3.7833    9.5978   22.2498 H         1 MEY         0.0624
     39 H5         -3.8083    4.8004   23.4007 H         1 MEY         0.0624
     40 H6         -3.5711    9.0591   19.9618 H         1 MEY         0.0624
     41 H7         -0.8492    4.9795   23.3390 H         1 MEY         0.0401
     42 H8         -0.2940    7.3386   23.8701 H         1 MEY         0.0459
     43 H9         -3.4218    5.0129   18.6581 H         1 MEY         0.0637
     44 H10         0.1030    5.5843   19.2060 H         1 MEY         0.0403
     45 H11        -1.5231   10.1147   22.8795 H         1 MEY         0.0468
     46 H12         2.6372   11.3345   25.2519 H         1 MEY         0.0431
     47 H13        -0.0045    3.0558   21.1833 H         1 MEY         0.0610
     48 H14        -1.0855    3.6421   19.8739 H         1 MEY         0.0610
     49 H15         1.0613    8.1940   18.7241 H         1 MEY         0.2254
     50 H16        -1.9508    2.8043   22.6055 H         1 MEY         0.1696
     51 H17         3.6938   10.3686   23.5413 H         1 MEY         0.2442
     52 H18         1.2751   12.2335   26.8039 H         1 MEY         0.2441
@<TRIPOS>BOND
     1    2    1 ar 
     2    4    1 ar 
     3    5    2 ar 
     4    3    6 ar 
     5    9    3 ar 
     6   13    4 ar 
     7   14    5 ar 
     8   13    6 ar 
     9    7    8 ar 
    10   15    7 ar 
    11    8   16 ar 
    12   21    9 ar 
    13   15   10 ar 
    14   10   17 ar 
    15   18   11 ar 
    16   11   22 ar 
    17   19   12 ar 
    18   12   20 ar 
    19   14   13 ar 
    20   21   14 ar 
    21   24   15 1  
    22   17   16 ar 
    23   16   26 1  
    24   17   25 1  
    25   18   19 ar 
    26   26   18 1  
    27   19   31 1  
    28   22   20 ar 
    29   20   32 1  
    30   33   21 1  
    31   22   34 1  
    32   25   23 am 
    33   23   26 am 
    34   23   28 2  
    35   27   24 1  
    36   27   33 am 
    37   33   29 2  
    38   33   30 2  
    39    1   35 1  
    40    2   36 1  
    41    3   37 1  
    42    4   38 1  
    43    5   39 1  
    44    6   40 1  
    45    7   41 1  
    46    8   42 1  
    47    9   43 1  
    48   10   44 1  
    49   11   45 1  
    50   12   46 1  
    51   24   47 1  
    52   24   48 1  
    53   25   49 1  
    54   27   50 1  
    55   31   51 1  
    56   32   52 1  
@<TRIPOS>SUBSTRUCTURE
     1 MEY         1

