### 
### Created by X-TOOL on Mon Sep 10 21:13:03 2018
### 

@<TRIPOS>MOLECULE
3owj_ligand
   35    38     1     0     0
SMALL
GAST_HUCK


@<TRIPOS>ATOM
      1 C1         23.2250    7.5970   11.3670 C.ar      1 1EL         0.0721
      2 O1         23.3960    8.4820   10.3420 O.3       1 1EL        -0.3416
      3 C2         23.1890    6.2250   11.0990 C.ar      1 1EL        -0.0447
      4 C3         23.0130    5.2980   12.1270 C.ar      1 1EL        -0.0486
      5 C4         22.8730    5.7600   13.4340 C.ar      1 1EL         0.0523
      6 C5         22.9110    7.1200   13.6820 C.ar      1 1EL        -0.0192
      7 C6         23.0840    8.0650   12.6740 C.ar      1 1EL        -0.0435
      8 N7         22.6900    5.1540   14.6510 N.pl3     1 1EL        -0.2844
      9 C8         22.6040    6.0560   15.6850 C.ar      1 1EL         0.0555
     10 C9         22.7390    7.3130   15.1260 C.ar      1 1EL        -0.0101
     11 C10        22.4210    5.9360   17.0590 C.ar      1 1EL        -0.0320
     12 C11        22.2750    4.5600   17.6680 C.3       1 1EL        -0.0404
     13 C12        22.3800    7.0930   17.8500 C.ar      1 1EL        -0.0484
     14 C13        22.5210    8.3740   17.2730 C.ar      1 1EL         0.0334
     15 C14        22.7040    8.4920   15.8790 C.ar      1 1EL        -0.0423
     16 C15        22.8640    9.8340   15.1940 C.3       1 1EL        -0.0337
     17 C16        22.2020    6.9820   19.2320 C.2       1 1EL        -0.0576
     18 C17        22.1610    8.1280   20.0230 C.2       1 1EL         0.0437
     19 N18        22.2930    9.3410   19.4580 N.am      1 1EL        -0.2303
     20 C19        22.4700    9.4920   18.1310 C.2       1 1EL         0.2129
     21 O19        22.5930   10.7620   17.6490 O.2       1 1EL        -0.4002
     22 H1         23.3981    9.3673   10.6865 H         1 1EL         0.2441
     23 H2         23.2994    5.8767   10.0784 H         1 1EL         0.0496
     24 H3         22.9856    4.2358   11.9123 H         1 1EL         0.0512
     25 H4         23.1083    9.1256   12.8965 H         1 1EL         0.0468
     26 H5         22.6242    4.1338   14.7765 H         1 1EL         0.2115
     27 H6         22.3362    3.7998   16.8753 H         1 1EL         0.0343
     28 H7         21.3012    4.4844   18.1740 H         1 1EL         0.0343
     29 H8         23.0813    4.3945   18.3977 H         1 1EL         0.0343
     30 H9         22.9926    9.6805   14.1124 H         1 1EL         0.0394
     31 H10        23.7475   10.3493   15.5988 H         1 1EL         0.0394
     32 H11        21.9680   10.4464   15.3734 H         1 1EL         0.0394
     33 H12        22.0954    5.9999   19.6902 H         1 1EL         0.0271
     34 H13        22.0220    8.0414   21.0996 H         1 1EL         0.1097
     35 H14        22.2588   10.1540   20.0392 H         1 1EL         0.2459
@<TRIPOS>BOND
     1    1    2 1  
     2    1    3 ar 
     3    1    7 ar 
     4    3    4 ar 
     5    4    5 ar 
     6    5    6 ar 
     7    5    8 1  
     8    6    7 ar 
     9    6   10 1  
    10    8    9 1  
    11    9   10 ar 
    12    9   11 ar 
    13   10   15 ar 
    14   11   12 1  
    15   11   13 ar 
    16   13   14 ar 
    17   13   17 1  
    18   14   15 ar 
    19   14   20 1  
    20   15   16 1  
    21   17   18 2  
    22   18   19 am 
    23   19   20 am 
    24   20   21 2  
    25    2   22 1  
    26    3   23 1  
    27    4   24 1  
    28    7   25 1  
    29    8   26 1  
    30   12   27 1  
    31   12   28 1  
    32   12   29 1  
    33   16   30 1  
    34   16   31 1  
    35   16   32 1  
    36   17   33 1  
    37   18   34 1  
    38   19   35 1  
@<TRIPOS>SUBSTRUCTURE
     1 1EL         1

