### 
### Created by X-TOOL on Mon Sep 10 21:13:04 2018
### 

@<TRIPOS>MOLECULE
3owk_ligand
   31    34     1     0     0
SMALL
GAST_HUCK


@<TRIPOS>ATOM
      1 C1         23.1820    9.7780   11.0270 C.ar      1 18E         0.0855
      2 O1         23.3270   10.6800   10.0260 O.3       1 18E        -0.3333
      3 C2         23.0090   10.2040   12.3510 C.ar      1 18E        -0.0312
      4 C3         22.8670    9.2920   13.4000 C.ar      1 18E        -0.0575
      5 C4         22.8860    7.9370   13.0990 C.ar      1 18E         0.0038
      6 C5         23.0730    7.4810   11.6850 C.ar      1 18E        -0.0371
      7 C6         23.2110    8.4260   10.6850 C.ar      1 18E        -0.0339
      8 C7         22.7600    6.9370   14.0510 C.ar      1 18E         0.0768
      9 C8         22.8060    5.5330   13.6260 C.ar      1 18E        -0.0015
     10 C9         22.9750    5.1320   12.3070 C.ar      1 18E        -0.0721
     11 C10        23.1090    6.1280   11.3430 C.ar      1 18E        -0.0731
     12 N11        22.5790    6.9900   15.4000 N.pl3     1 18E        -0.2674
     13 C12        22.4960    5.7340   15.9460 C.ar      1 18E         0.0862
     14 C13        22.6340    4.7680   14.8470 C.ar      1 18E         0.0300
     15 C14        22.3140    5.1370   17.2980 C.ar      1 18E        -0.0013
     16 C15        22.1590    6.0020   18.5210 C.3       1 18E        -0.0288
     17 C16        22.2850    3.7420   17.4130 C.ar      1 18E        -0.0072
     18 N17        22.4150    2.8950   16.3640 N.ar      1 18E        -0.3106
     19 C18        22.5880    3.3070   15.0810 C.ar      1 18E         0.1011
     20 CL18       22.7420    2.1460   13.7600 Cl        1 18E        -0.0499
     21 H1         22.5558   11.2333    9.9856 H         1 18E         0.2485
     22 H2         22.9848   11.2661   12.5663 H         1 18E         0.0557
     23 H3         22.7452    9.6335   14.4216 H         1 18E         0.0614
     24 H4         23.3396    8.1213    9.6527 H         1 18E         0.0480
     25 H5         23.0016    4.0823   12.0378 H         1 18E         0.0575
     26 H6         23.2441    5.8467   10.3049 H         1 18E         0.0474
     27 H7         22.5128    7.8633   15.9421 H         1 18E         0.2223
     28 H8         22.0378    5.3637   19.4086 H         1 18E         0.0383
     29 H9         21.2725    6.6431   18.4067 H         1 18E         0.0383
     30 H10        23.0534    6.6309   18.6411 H         1 18E         0.0383
     31 H11        22.1505    3.3144   18.4000 H         1 18E         0.0656
@<TRIPOS>BOND
     1    1    2 1  
     2    1    3 ar 
     3    1    7 ar 
     4    3    4 ar 
     5    4    5 ar 
     6    5    6 ar 
     7    5    8 ar 
     8    6    7 ar 
     9    6   11 ar 
    10    8    9 ar 
    11    8   12 1  
    12    9   10 ar 
    13    9   14 1  
    14   10   11 ar 
    15   12   13 1  
    16   13   14 ar 
    17   13   15 ar 
    18   14   19 ar 
    19   15   16 1  
    20   15   17 ar 
    21   17   18 ar 
    22   18   19 ar 
    23   19   20 1  
    24    2   21 1  
    25    3   22 1  
    26    4   23 1  
    27    7   24 1  
    28   10   25 1  
    29   11   26 1  
    30   12   27 1  
    31   16   28 1  
    32   16   29 1  
    33   16   30 1  
    34   17   31 1  
@<TRIPOS>SUBSTRUCTURE
     1 18E         1

