### 
### Created by X-TOOL on Mon Sep 10 21:13:04 2018
### 

@<TRIPOS>MOLECULE
3owl_ligand
   31    34     1     0     0
SMALL
GAST_HUCK


@<TRIPOS>ATOM
      1 C1         23.4930    7.4440   10.8380 C.ar      1 19E         0.0844
      2 O1         23.7050    7.7690    9.5310 O.3       1 19E        -0.3351
      3 C2         23.3250    8.4660   11.7630 C.ar      1 19E        -0.0339
      4 C3         23.1020    8.1710   13.1000 C.ar      1 19E        -0.0361
      5 C4         23.0580    6.8340   13.5280 C.ar      1 19E        -0.0308
      6 C5         23.2310    5.8110   12.5910 C.ar      1 19E        -0.0628
      7 C6         23.4480    6.1100   11.2480 C.ar      1 19E        -0.0327
      8 C7         22.9360    9.2320   13.9950 C.ar      1 19E        -0.0636
      9 C8         22.7200    8.9730   15.3410 C.ar      1 19E        -0.0370
     10 C9         22.6750    7.6500   15.7760 C.ar      1 19E         0.0671
     11 C10        22.8420    6.5950   14.8920 C.ar      1 19E         0.0026
     12 N11        22.4790    7.0970   17.0120 N.pl3     1 19E        -0.2706
     13 C12        22.5100    5.7360   16.9940 C.ar      1 19E         0.0852
     14 C13        22.7290    5.3460   15.6830 C.ar      1 19E         0.0310
     15 C14        22.3650    4.7780   17.9910 C.ar      1 19E        -0.0013
     16 C15        22.1200    5.1740   19.4280 C.3       1 19E        -0.0288
     17 C16        22.4410    3.4390   17.6360 C.ar      1 19E        -0.0070
     18 N17        22.6570    3.0840   16.3610 N.ar      1 19E        -0.3102
     19 C18        22.8070    3.9750   15.3640 C.ar      1 19E         0.1018
     20 CL18       23.0730    3.2850   13.7560 Cl        1 19E        -0.0493
     21 H1         23.8011    6.9741    9.0198 H         1 19E         0.2472
     22 H2         23.3683    9.4994   11.4387 H         1 19E         0.0492
     23 H3         23.1960    4.7763   12.9124 H         1 19E         0.0584
     24 H4         23.5810    5.3125   10.5260 H         1 19E         0.0570
     25 H5         22.9759   10.2548   13.6383 H         1 19E         0.0571
     26 H6         22.5882    9.7878   16.0437 H         1 19E         0.0581
     27 H7         22.3243    7.6518   17.8659 H         1 19E         0.2196
     28 H8         22.0360    4.2695   20.0483 H         1 19E         0.0383
     29 H9         21.1868    5.7524   19.4950 H         1 19E         0.0383
     30 H10        22.9588    5.7883   19.7872 H         1 19E         0.0383
     31 H11        22.3249    2.6739   18.3951 H         1 19E         0.0658
@<TRIPOS>BOND
     1    1    2 1  
     2    1    3 ar 
     3    1    7 ar 
     4    3    4 ar 
     5    4    5 ar 
     6    4    8 ar 
     7    5    6 ar 
     8    5   11 ar 
     9    6    7 ar 
    10    8    9 ar 
    11    9   10 ar 
    12   10   11 ar 
    13   10   12 1  
    14   11   14 1  
    15   12   13 1  
    16   13   14 ar 
    17   13   15 ar 
    18   14   19 ar 
    19   15   16 1  
    20   15   17 ar 
    21   17   18 ar 
    22   18   19 ar 
    23   19   20 1  
    24    2   21 1  
    25    3   22 1  
    26    6   23 1  
    27    7   24 1  
    28    8   25 1  
    29    9   26 1  
    30   12   27 1  
    31   16   28 1  
    32   16   29 1  
    33   16   30 1  
    34   17   31 1  
@<TRIPOS>SUBSTRUCTURE
     1 19E         1

