### 
### Created by X-TOOL on Mon Sep 10 21:13:02 2018
### 

@<TRIPOS>MOLECULE
3oxc_ligand
  100   104     1     0     0
SMALL
GAST_HUCK


@<TRIPOS>ATOM
      1 C           6.1770   -6.4120   18.3710 C.2       1 ROC         0.2293
      2 O           6.7550   -5.9360   19.3950 O.2       1 ROC        -0.3762
      3 N1          4.9600   -8.2310   17.1490 N.ar      1 ROC        -0.2737
      4 C2          5.1600   -7.5720   18.3300 C.ar      1 ROC         0.1219
      5 C3          4.4570   -7.9930   19.4390 C.ar      1 ROC        -0.0136
      6 C4          3.4980   -9.0230   19.3430 C.ar      1 ROC        -0.0314
      7 C5          2.4130  -10.7300   18.0240 C.ar      1 ROC        -0.0444
      8 C6          2.3200  -11.4040   16.8280 C.ar      1 ROC        -0.0546
      9 C7          3.0110  -10.9320   15.7240 C.ar      1 ROC        -0.0545
     10 C8          3.9420   -9.9240   15.8020 C.ar      1 ROC        -0.0370
     11 C4A         3.3460   -9.6790   18.1210 C.ar      1 ROC         0.0097
     12 C8A         4.0940   -9.2390   17.0270 C.ar      1 ROC         0.0527
     13 N           6.4880   -5.9480   17.1620 N.am      1 ROC        -0.2600
     14 CA          7.2860   -4.7110   16.9570 C.3       1 ROC         0.1473
     15 C1          6.5450   -3.7840   15.9510 C.2       1 ROC         0.2045
     16 O1          6.5510   -3.9780   14.7190 O.2       1 ROC        -0.3943
     17 CB          8.6740   -5.0780   16.4420 C.3       1 ROC         0.0773
     18 CG          9.4610   -5.8910   17.4900 C.2       1 ROC         0.1780
     19 OD1         9.8230   -5.3730   18.5300 O.2       1 ROC        -0.3970
     20 ND2         9.6760   -7.1570   17.2010 N.am      1 ROC        -0.3007
     21 C9          5.6350   -0.3890   16.1730 C.3       1 ROC         0.1194
     22 O2          5.3610    0.0030   17.5450 O.3       1 ROC        -0.3840
     23 CA1         5.0990   -1.7890   15.8360 C.3       1 ROC         0.0823
     24 N2          5.8840   -2.7870   16.5750 N.am      1 ROC        -0.2772
     25 CB1         3.6060   -1.9610   16.0990 C.3       1 ROC         0.0066
     26 CG1         3.0680   -3.3780   16.1940 C.ar      1 ROC        -0.0408
     27 CD1         2.6420   -4.0520   15.0640 C.ar      1 ROC        -0.0603
     28 CD2         2.9570   -4.0030   17.4320 C.ar      1 ROC        -0.0603
     29 CE1         2.1460   -5.3490   15.1660 C.ar      1 ROC        -0.0686
     30 CE2         2.4840   -5.3150   17.5500 C.ar      1 ROC        -0.0686
     31 CZ          2.1210   -6.0060   16.3870 C.ar      1 ROC        -0.0687
     32 N11         5.9060    0.6920   13.9550 N.4       1 ROC         0.2562
     33 CM          5.1910    0.7120   15.2220 C.3       1 ROC        -0.0008
     34 C21         5.1690    1.2770   12.8350 C.3       1 ROC         0.0688
     35 CC          3.8210    0.6310   12.5220 C.2       1 ROC         0.2251
     36 O3          3.8210   -0.5980   12.3830 O.2       1 ROC        -0.3909
     37 C31         5.9850    1.1910   11.5490 C.3       1 ROC         0.0113
     38 C3A         7.3300    1.9030   11.6680 C.3       1 ROC        -0.0261
     39 C41         8.1840    1.8200   10.3990 C.3       1 ROC        -0.0494
     40 C51         8.5800    0.3350   10.1580 C.3       1 ROC        -0.0528
     41 C61         9.4840   -0.0220   11.3390 C.3       1 ROC        -0.0526
     42 C71         8.5130   -0.0840   12.5620 C.3       1 ROC        -0.0451
     43 C7A         8.0800    1.3620   12.8860 C.3       1 ROC         0.0024
     44 C81         7.2120    1.4010   14.1400 C.3       1 ROC        -0.0266
     45 N3          2.7730    1.4410   12.3490 N.am      1 ROC        -0.2771
     46 CD          1.3960    1.0040   12.0530 C.3       1 ROC         0.0448
     47 C11         0.5600    2.2900   11.9480 C.3       1 ROC        -0.0396
     48 C22         0.8740    0.1950   13.2370 C.3       1 ROC        -0.0396
     49 C32         1.3740    0.1330   10.7970 C.3       1 ROC        -0.0396
     50 H           4.6441   -7.5255   20.3989 H         1 ROC         0.0729
     51 H           2.8929   -9.2986   20.1991 H         1 ROC         0.0774
     52 H           1.7868  -10.9998   18.8667 H         1 ROC         0.0657
     53 H           1.7108  -12.2973   16.7503 H         1 ROC         0.0652
     54 H           2.8086  -11.3771   14.7565 H         1 ROC         0.0657
     55 H           4.5465   -9.6607   14.9416 H         1 ROC         0.0653
     56 H           6.1715   -6.4528   16.3589 H         1 ROC         0.1882
     57 H           7.3907   -4.1844   17.9170 H         1 ROC         0.0826
     58 H           9.2277   -4.1553   16.2141 H         1 ROC         0.0551
     59 H           8.5697   -5.6787   15.5264 H         1 ROC         0.0551
     60 H          10.1806   -7.7371   17.8404 H         1 ROC         0.1814
     61 H           9.3348   -7.5387   16.3420 H         1 ROC         0.1814
     62 H           6.7286   -0.4574   16.0763 H         1 ROC         0.0672
     63 H           4.4222    0.0082   17.6902 H         1 ROC         0.2101
     64 H           5.2593   -1.9555   14.7606 H         1 ROC         0.0606
     65 H           5.9299   -2.7254   17.5721 H         1 ROC         0.1857
     66 H           3.0677   -1.4587   15.2817 H         1 ROC         0.0449
     67 H           3.3793   -1.4584   17.0508 H         1 ROC         0.0449
     68 H           2.6945   -3.5687   14.0951 H         1 ROC         0.0557
     69 H           3.2435   -3.4612   18.3261 H         1 ROC         0.0557
     70 H           1.7748   -5.8514   14.2801 H         1 ROC         0.0599
     71 H           2.4003   -5.7870   18.5222 H         1 ROC         0.0599
     72 H           1.8227   -7.0468   16.4410 H         1 ROC         0.0559
     73 H           6.0928   -0.2709   13.7227 H         1 ROC         0.2057
     74 H           5.3637    1.6843   15.7065 H         1 ROC         0.0841
     75 H           4.1168    0.5886   15.0201 H         1 ROC         0.0841
     76 H           4.9924    2.3349   13.0791 H         1 ROC         0.1100
     77 H           5.4103    1.6545   10.7336 H         1 ROC         0.0348
     78 H           6.1651    0.1315   11.3144 H         1 ROC         0.0348
     79 H           7.1233    2.9686   11.8461 H         1 ROC         0.0309
     80 H           9.0915    2.4291   10.5234 H         1 ROC         0.0268
     81 H           7.6070    2.1929    9.5399 H         1 ROC         0.0268
     82 H           9.1231    0.2276    9.2075 H         1 ROC         0.0265
     83 H           7.6872   -0.3074   10.1448 H         1 ROC         0.0265
     84 H          10.2520    0.7510   11.4898 H         1 ROC         0.0265
     85 H           9.9702   -0.9954   11.1775 H         1 ROC         0.0265
     86 H           9.0281   -0.5246   13.4283 H         1 ROC         0.0270
     87 H           7.6316   -0.6924   12.3111 H         1 ROC         0.0270
     88 H           8.9743    1.9779   13.0616 H         1 ROC         0.0355
     89 H           7.7605    0.9210   14.9638 H         1 ROC         0.0818
     90 H           7.0101    2.4514   14.3968 H         1 ROC         0.0818
     91 H           2.9356    2.4246   12.4266 H         1 ROC         0.1859
     92 H          -0.4858    2.0304   11.7267 H         1 ROC         0.0254
     93 H           0.9594    2.9222   11.1413 H         1 ROC         0.0254
     94 H           0.6081    2.8375   12.9009 H         1 ROC         0.0254
     95 H          -0.1537   -0.1376   13.0292 H         1 ROC         0.0254
     96 H           0.8807    0.8218   14.1409 H         1 ROC         0.0254
     97 H           1.5186   -0.6823   13.3943 H         1 ROC         0.0254
     98 H           0.3416   -0.1848   10.5893 H         1 ROC         0.0254
     99 H           2.0059   -0.7535   10.9544 H         1 ROC         0.0254
    100 H           1.7586    0.7105    9.9435 H         1 ROC         0.0254
@<TRIPOS>BOND
     1    1    2 2  
     2    1    4 1  
     3   13    1 am 
     4    4    3 ar 
     5    3   12 ar 
     6    4    5 ar 
     7    5    6 ar 
     8    6   11 ar 
     9    7    8 ar 
    10   11    7 ar 
    11    9    8 ar 
    12   10    9 ar 
    13   12   10 ar 
    14   12   11 ar 
    15   14   13 1  
    16   15   14 1  
    17   14   17 1  
    18   15   16 2  
    19   24   15 am 
    20   17   18 1  
    21   18   19 2  
    22   18   20 am 
    23   21   22 1  
    24   23   21 1  
    25   21   33 1  
    26   23   24 1  
    27   23   25 1  
    28   25   26 1  
    29   26   27 ar 
    30   26   28 ar 
    31   27   29 ar 
    32   28   30 ar 
    33   29   31 ar 
    34   30   31 ar 
    35   33   32 1  
    36   32   34 1  
    37   32   44 1  
    38   34   35 1  
    39   34   37 1  
    40   35   36 2  
    41   35   45 am 
    42   37   38 1  
    43   38   39 1  
    44   38   43 1  
    45   39   40 1  
    46   40   41 1  
    47   41   42 1  
    48   42   43 1  
    49   43   44 1  
    50   45   46 1  
    51   46   47 1  
    52   46   48 1  
    53   46   49 1  
    54    5   50 1  
    55    6   51 1  
    56    7   52 1  
    57    8   53 1  
    58    9   54 1  
    59   10   55 1  
    60   13   56 1  
    61   14   57 1  
    62   17   58 1  
    63   17   59 1  
    64   20   60 1  
    65   20   61 1  
    66   21   62 1  
    67   22   63 1  
    68   23   64 1  
    69   24   65 1  
    70   25   66 1  
    71   25   67 1  
    72   27   68 1  
    73   28   69 1  
    74   29   70 1  
    75   30   71 1  
    76   31   72 1  
    77   32   73 1  
    78   33   74 1  
    79   33   75 1  
    80   34   76 1  
    81   37   77 1  
    82   37   78 1  
    83   38   79 1  
    84   39   80 1  
    85   39   81 1  
    86   40   82 1  
    87   40   83 1  
    88   41   84 1  
    89   41   85 1  
    90   42   86 1  
    91   42   87 1  
    92   43   88 1  
    93   44   89 1  
    94   44   90 1  
    95   45   91 1  
    96   47   92 1  
    97   47   93 1  
    98   47   94 1  
    99   48   95 1  
   100   48   96 1  
   101   48   97 1  
   102   49   98 1  
   103   49   99 1  
   104   49  100 1  
@<TRIPOS>SUBSTRUCTURE
     1 ROC         1

