### 
### Created by X-TOOL on Mon Sep 10 21:13:07 2018
### 

@<TRIPOS>MOLECULE
3oxi_ligand
   29    30     1     0     0
SMALL
GAST_HUCK


@<TRIPOS>ATOM
      1 S           1.8160   -1.6330  -29.3460 S.3       1 SYY        -0.0490
      2 C1          1.0620   -2.8060  -31.5600 C.2       1 SYY        -0.0343
      3 N1         -0.9070   -1.3110  -32.0950 N.am      1 SYY        -0.2373
      4 O1         -1.3960    0.5210  -30.0000 O.2       1 SYY        -0.3843
      5 C2          0.1590   -1.7480  -31.3770 C.2       1 SYY         0.0730
      6 O2          0.2060    1.0350  -28.5700 O.3       1 SYY        -0.2886
      7 S2         -2.6190    1.2370  -34.2240 S.3       1 SYY        -0.0419
      8 C3          0.4330   -0.9710  -30.1370 C.2       1 SYY         0.1149
      9 O3         -0.6620   -2.9490  -33.6310 O.2       1 SYY        -0.3817
     10 C5          2.0100   -2.8640  -30.5450 C.2       1 SYY        -0.0025
     11 C6         -0.3010    0.2010  -29.5950 C.2       1 SYY         0.2385
     12 C9         -0.5830    2.2240  -28.3940 C.3       1 SYY         0.0632
     13 C11        -1.2560   -1.9560  -33.2110 C.2       1 SYY         0.2161
     14 C12        -2.4540   -1.4610  -33.9770 C.3       1 SYY         0.0875
     15 C14        -3.0560   -0.2110  -33.4020 C.2       1 SYY         0.0312
     16 C15        -3.9130    0.0820  -32.3230 C.2       1 SYY        -0.0791
     17 C16        -4.1860    1.4540  -32.1980 C.2       1 SYY        -0.0924
     18 C17        -3.5620    2.2280  -33.1660 C.2       1 SYY        -0.0189
     19 H1          1.0247   -3.5000  -32.3984 H         1 SYY         0.0435
     20 H2         -1.4266   -0.5126  -31.7907 H         1 SYY         0.2247
     21 H3          2.7995   -3.6132  -30.5084 H         1 SYY         0.0817
     22 H4         -0.1493    2.8360  -27.5894 H         1 SYY         0.0573
     23 H5         -1.6130    1.9445  -28.1275 H         1 SYY         0.0573
     24 H6         -0.5903    2.8012  -29.3304 H         1 SYY         0.0573
     25 H7         -3.2202   -2.2502  -33.9737 H         1 SYY         0.0690
     26 H8         -2.1448   -1.2545  -35.0122 H         1 SYY         0.0690
     27 H9         -4.3210   -0.6758  -31.6558 H         1 SYY         0.0284
     28 H10        -4.8238    1.8690  -31.4190 H         1 SYY         0.0373
     29 H11        -3.6535    3.3100  -33.2481 H         1 SYY         0.0603
@<TRIPOS>BOND
     1    8    1 1  
     2    1   10 1  
     3    5    2 1  
     4    2   10 2  
     5    3    5 1  
     6   13    3 am 
     7   11    4 2  
     8    5    8 2  
     9   11    6 1  
    10    6   12 1  
    11   15    7 1  
    12    7   18 1  
    13    8   11 1  
    14   13    9 2  
    15   14   13 1  
    16   14   15 1  
    17   15   16 2  
    18   16   17 1  
    19   17   18 2  
    20    2   19 1  
    21    3   20 1  
    22   10   21 1  
    23   12   22 1  
    24   12   23 1  
    25   12   24 1  
    26   14   25 1  
    27   14   26 1  
    28   16   27 1  
    29   17   28 1  
    30   18   29 1  
@<TRIPOS>SUBSTRUCTURE
     1 SYY         1

