### 
### Created by X-TOOL on Mon Sep 10 21:13:05 2018
### 

@<TRIPOS>MOLECULE
3oy0_ligand
   45    45     1     0     0
SMALL
GAST_HUCK


@<TRIPOS>ATOM
      1 CAA        -0.7630    9.2030   14.8930 C.3       1 OY0        -0.0651
      2 CAB        -0.9660    6.4220   10.6070 C.3       1 OY0        -0.0577
      3 CAC        -2.4710    8.1060    9.7820 C.3       1 OY0        -0.0577
      4 CAD        -3.3330    5.8950   10.2970 C.3       1 OY0        -0.0577
      5 NAE        -5.3370   -0.4290   16.1280 N.am      1 OY0        -0.2626
      6 OAF        -4.6840    6.6930   13.0190 O.2       1 OY0        -0.3846
      7 OAG        -7.3160    1.2060   16.6320 O.2       1 OY0        -0.1524
      8 OAH        -5.3820    1.2190   18.1210 O.2       1 OY0        -0.1524
      9 CAI        -3.0910    3.2550   14.8580 C.ar      1 OY0        -0.0394
     10 CAJ        -5.1380    4.4490   14.5580 C.ar      1 OY0        -0.0394
     11 CAK        -3.7510    2.2800   15.5990 C.ar      1 OY0        -0.0490
     12 CAL        -5.8180    3.4470   15.2740 C.ar      1 OY0        -0.0490
     13 CAM        -1.6300    8.1190   14.3540 C.3       1 OY0        -0.0535
     14 CAN        -1.4350    7.7540   12.9180 C.3       1 OY0        -0.0325
     15 NAO        -2.9380    5.3070   13.6040 N.am      1 OY0        -0.2337
     16 CAP        -3.4910    6.4630   12.9350 C.2       1 OY0         0.2072
     17 CAQ        -3.7530    4.3630   14.3540 C.ar      1 OY0         0.0663
     18 CAR        -5.1150    2.3410   15.8070 C.ar      1 OY0         0.0924
     19 CAS        -2.6560    7.4230   12.1320 C.3       1 OY0         0.0594
     20 CAT        -2.3540    6.9510   10.7230 C.3       1 OY0        -0.0176
     21 SAU        -5.8580    1.0130   16.7430 S.o2      1 OY0         0.0591
     22 H1         -1.0050    9.3734   15.9524 H         1 OY0         0.0230
     23 H2         -0.9363   10.1283   14.3239 H         1 OY0         0.0230
     24 H3          0.2927    8.9081   14.8009 H         1 OY0         0.0230
     25 H4         -0.7851    6.0905    9.5739 H         1 OY0         0.0236
     26 H5         -0.8394    5.5711   11.2925 H         1 OY0         0.0236
     27 H6         -0.2487    7.2138   10.8689 H         1 OY0         0.0236
     28 H7         -3.4866    8.5246    9.8399 H         1 OY0         0.0236
     29 H8         -2.2733    7.7641    8.7554 H         1 OY0         0.0236
     30 H9         -1.7393    8.8795   10.0581 H         1 OY0         0.0236
     31 H10        -3.2630    5.0340   10.9780 H         1 OY0         0.0236
     32 H11        -3.1003    5.5714    9.2718 H         1 OY0         0.0236
     33 H12        -4.3528    6.3060   10.3292 H         1 OY0         0.0236
     34 H13        -5.5888   -0.6961   15.1978 H         1 OY0         0.1633
     35 H14        -4.7698   -1.0348   16.6859 H         1 OY0         0.1633
     36 H15        -2.0292    3.1448   14.6696 H         1 OY0         0.0503
     37 H16        -5.6887    5.2941   14.1609 H         1 OY0         0.0503
     38 H17        -3.1845    1.4576   16.0207 H         1 OY0         0.0596
     39 H18        -6.8896    3.5230   15.4185 H         1 OY0         0.0596
     40 H19        -2.6759    8.4362   14.4780 H         1 OY0         0.0264
     41 H20        -1.4470    7.2161   14.9550 H         1 OY0         0.0264
     42 H21        -0.7719    6.8769   12.8857 H         1 OY0         0.0293
     43 H22        -0.9426    8.6043   12.4235 H         1 OY0         0.0293
     44 H23        -1.9521    5.1490   13.5490 H         1 OY0         0.2257
     45 H24        -3.2386    8.3501   12.0266 H         1 OY0         0.0548
@<TRIPOS>BOND
     1   13    1 1  
     2   20    2 1  
     3   20    3 1  
     4   20    4 1  
     5   21    5 am 
     6   16    6 2  
     7   21    7 2  
     8   21    8 2  
     9    9   11 ar 
    10   17    9 ar 
    11   10   12 ar 
    12   17   10 ar 
    13   11   18 ar 
    14   12   18 ar 
    15   14   13 1  
    16   19   14 1  
    17   16   15 am 
    18   15   17 1  
    19   19   16 1  
    20   18   21 1  
    21   19   20 1  
    22    1   22 1  
    23    1   23 1  
    24    1   24 1  
    25    2   25 1  
    26    2   26 1  
    27    2   27 1  
    28    3   28 1  
    29    3   29 1  
    30    3   30 1  
    31    4   31 1  
    32    4   32 1  
    33    4   33 1  
    34    5   34 1  
    35    5   35 1  
    36    9   36 1  
    37   10   37 1  
    38   11   38 1  
    39   12   39 1  
    40   13   40 1  
    41   13   41 1  
    42   14   42 1  
    43   14   43 1  
    44   15   44 1  
    45   19   45 1  
@<TRIPOS>SUBSTRUCTURE
     1 OY0         1

