### 
### Created by X-TOOL on Mon Sep 10 21:13:08 2018
### 

@<TRIPOS>MOLECULE
3oy1_ligand
   66    71     1     0     0
SMALL
GAST_HUCK


@<TRIPOS>ATOM
      1 C1        -17.3960   11.9000  -36.4350 C.ar      1 589        -0.0595
      2 C2        -18.3760   11.6940  -35.5180 C.ar      1 589        -0.0262
      3 C3        -18.3450   12.3980  -34.2390 C.ar      1 589        -0.0314
      4 C4        -17.3080   13.2680  -33.9990 C.ar      1 589        -0.0614
      5 C5        -16.3320   13.4410  -34.9370 C.ar      1 589        -0.0664
      6 C6        -16.3880   12.7750  -36.1330 C.ar      1 589        -0.0658
      7 C7        -19.3440   12.1770  -33.3190 C.ar      1 589        -0.0312
      8 C8        -20.3880   11.3190  -33.5110 C.ar      1 589         0.0972
      9 C9        -20.3640   10.6910  -34.7470 C.ar      1 589        -0.0275
     10 C10       -19.4020   10.8450  -35.7290 C.ar      1 589        -0.0571
     11 N11       -21.3340   11.1230  -32.6040 N.am      1 589        -0.1387
     12 C12       -21.7130    9.9670  -32.0810 C.2       1 589         0.1857
     13 N13       -22.7020   10.2500  -31.2490 N.2       1 589        -0.1734
     14 N14       -22.8720   11.5740  -31.2630 N.am      1 589        -0.1426
     15 C15       -22.0140   12.0740  -32.0940 C.2       1 589         0.3550
     16 O16       -21.8700   13.2810  -32.3970 O.2       1 589        -0.3903
     17 C17       -23.9180   11.9890  -30.3460 C.3       1 589         0.0867
     18 C18       -25.1120   12.5780  -30.9870 C.3       1 589         0.0013
     19 C19       -26.1970   12.5140  -29.9740 C.3       1 589         0.0504
     20 O20       -25.8880   13.3920  -28.9400 O.3       1 589        -0.3796
     21 C21       -24.6230   13.2110  -28.3240 C.3       1 589         0.0504
     22 C22       -23.4830   12.9380  -29.2810 C.3       1 589         0.0013
     23 C23       -21.2980    8.5610  -32.2970 C.ar      1 589         0.0267
     24 C24       -20.0340    8.2450  -32.6630 C.ar      1 589        -0.0410
     25 C25       -19.6930    6.9450  -32.8320 C.ar      1 589        -0.0079
     26 N26       -20.5390    5.9800  -32.6720 N.ar      1 589        -0.2910
     27 C27       -21.7910    6.2200  -32.3010 C.ar      1 589         0.1064
     28 C28       -22.1760    7.5250  -32.1070 C.ar      1 589        -0.0104
     29 N29       -22.6050    5.1780  -32.1550 N.pl3     1 589        -0.3064
     30 C30       -23.8990    5.2040  -31.5690 C.3       1 589         0.0377
     31 C31       -24.6320    3.9500  -31.9480 C.3       1 589        -0.0302
     32 C32       -25.9780    3.8970  -31.2740 C.3       1 589        -0.0510
     33 C33       -25.8950    3.9370  -29.7770 C.3       1 589        -0.0529
     34 C34       -25.1140    5.1560  -29.3770 C.3       1 589        -0.0510
     35 C35       -23.7730    5.2590  -30.0680 C.3       1 589        -0.0302
     36 H         -17.4118   11.3790  -37.3923 H         1 589         0.0613
     37 H         -17.2653   13.8195  -33.0598 H         1 589         0.0582
     38 H         -15.5002   14.1152  -34.7328 H         1 589         0.0604
     39 H         -15.6029   12.9480  -36.8691 H         1 589         0.0578
     40 H         -19.2987   12.7222  -32.3762 H         1 589         0.0471
     41 H         -21.1847   10.0081  -34.9666 H         1 589         0.0587
     42 H         -19.4726   10.2866  -36.6624 H         1 589         0.0615
     43 H         -24.1792   11.0309  -29.8966 H         1 589         0.0651
     44 H         -25.3838   12.0321  -31.8904 H         1 589         0.0316
     45 H         -24.9250   13.6053  -31.2996 H         1 589         0.0316
     46 H         -26.2848   11.4990  -29.5865 H         1 589         0.0561
     47 H         -27.1473   12.7942  -30.4285 H         1 589         0.0561
     48 H         -24.7085   12.3379  -27.6771 H         1 589         0.0561
     49 H         -24.3866   14.1417  -27.8082 H         1 589         0.0561
     50 H         -23.1744   13.8754  -29.7438 H         1 589         0.0316
     51 H         -22.6526   12.4976  -28.7292 H         1 589         0.0316
     52 H         -19.2955    9.0311  -32.8207 H         1 589         0.0585
     53 H         -18.6680    6.7034  -33.1132 H         1 589         0.0766
     54 H         -23.1983    7.7405  -31.7963 H         1 589         0.0584
     55 H         -22.2690    4.2770  -32.4952 H         1 589         0.1800
     56 H         -24.4417    6.0802  -31.9238 H         1 589         0.0553
     57 H         -24.0445    3.0884  -31.6308 H         1 589         0.0287
     58 H         -24.7777    3.9394  -33.0282 H         1 589         0.0287
     59 H         -26.4485    2.9540  -31.5524 H         1 589         0.0266
     60 H         -26.5418    4.7726  -31.5958 H         1 589         0.0266
     61 H         -25.3998    3.0392  -29.4071 H         1 589         0.0265
     62 H         -26.8967    3.9792  -29.3492 H         1 589         0.0265
     63 H         -24.9285    5.0918  -28.3048 H         1 589         0.0266
     64 H         -25.6994    6.0306  -29.6608 H         1 589         0.0266
     65 H         -23.3267    6.2168  -29.8004 H         1 589         0.0287
     66 H         -23.1615    4.4153  -29.7483 H         1 589         0.0287
@<TRIPOS>BOND
     1    1    2 ar 
     2    1    6 ar 
     3    2    3 ar 
     4    2   10 ar 
     5    3    4 ar 
     6    3    7 ar 
     7    4    5 ar 
     8    5    6 ar 
     9    7    8 ar 
    10    8    9 ar 
    11    8   11 1  
    12    9   10 ar 
    13   11   12 1  
    14   11   15 am 
    15   12   13 2  
    16   12   23 1  
    17   13   14 1  
    18   14   15 am 
    19   14   17 1  
    20   15   16 2  
    21   17   18 1  
    22   17   22 1  
    23   18   19 1  
    24   19   20 1  
    25   20   21 1  
    26   21   22 1  
    27   23   24 ar 
    28   23   28 ar 
    29   24   25 ar 
    30   25   26 ar 
    31   26   27 ar 
    32   27   28 ar 
    33   27   29 1  
    34   29   30 1  
    35   30   31 1  
    36   30   35 1  
    37   31   32 1  
    38   32   33 1  
    39   33   34 1  
    40   34   35 1  
    41    1   36 1  
    42    4   37 1  
    43    5   38 1  
    44    6   39 1  
    45    7   40 1  
    46    9   41 1  
    47   10   42 1  
    48   17   43 1  
    49   18   44 1  
    50   18   45 1  
    51   19   46 1  
    52   19   47 1  
    53   21   48 1  
    54   21   49 1  
    55   22   50 1  
    56   22   51 1  
    57   24   52 1  
    58   25   53 1  
    59   28   54 1  
    60   29   55 1  
    61   30   56 1  
    62   31   57 1  
    63   31   58 1  
    64   32   59 1  
    65   32   60 1  
    66   33   61 1  
    67   33   62 1  
    68   34   63 1  
    69   34   64 1  
    70   35   65 1  
    71   35   66 1  
@<TRIPOS>SUBSTRUCTURE
     1 589         1

