### 
### Created by X-TOOL on Mon Sep 10 21:13:04 2018
### 

@<TRIPOS>MOLECULE
3oy3_ligand
   74    77     1     0     0
SMALL
GAST_HUCK


@<TRIPOS>ATOM
      1 N1         24.8300    9.5410    3.7640 N.2       1 XY3        -0.3011
      2 N3          9.2620    4.9440    5.3110 N.4       1 XY3         0.2588
      3 C4         20.3560    9.8190    2.3720 C.1       1 XY3        -0.0666
      4 C5         18.9550   10.0990    2.2990 C.ar      1 XY3         0.0311
      5 C6         18.4510   11.2980    1.6760 C.ar      1 XY3        -0.0253
      6 C7         17.0520   11.5210    1.6480 C.ar      1 XY3        -0.0535
      7 C8         16.1480   10.5620    2.2220 C.ar      1 XY3        -0.0483
      8 C10        18.0830    9.1540    2.8590 C.ar      1 XY3        -0.0327
      9 C13        13.4560    7.6850    4.0430 C.ar      1 XY3         0.0879
     10 C15        11.0810    7.0100    4.2800 C.ar      1 XY3        -0.0316
     11 C17        12.7320    6.2390    5.9830 C.ar      1 XY3         0.0386
     12 C20        10.2130    5.5360    6.2040 C.3       1 XY3         0.0130
     13 C21         9.8130    3.9040    4.3850 C.3       1 XY3         0.0114
     14 C22         8.7300    3.5040    3.3360 C.3       1 XY3         0.0096
     15 C24         8.0450    4.4480    6.0100 C.3       1 XY3         0.0114
     16 C26        23.4610    8.4620    0.5800 C.3       1 XY3         0.0483
     17 C81        26.2290    8.4960    1.9470 C.2       1 XY3         0.2504
     18 O2         26.2580    8.1960    0.6080 O.2       1 XY3        -0.3759
     19 N82        23.7740    9.0310    1.8000 N.pl3     1 XY3        -0.2272
     20 C84        25.0210    9.0120    2.5520 C.2       1 XY3         0.2139
     21 C1         23.4850    9.7220    3.8910 C.2       1 XY3         0.0074
     22 C2         22.8630    9.4620    2.7170 C.2       1 XY3         0.1295
     23 C3         21.5140    9.6270    2.5040 C.1       1 XY3        -0.0402
     24 C9         16.6700    9.3530    2.8380 C.ar      1 XY3         0.0495
     25 C11        19.3940   12.3320    1.0510 C.3       1 XY3        -0.0272
     26 C12        15.8070    8.2880    3.4620 C.2       1 XY3         0.2265
     27 O1         16.3510    7.3650    4.1180 O.2       1 XY3        -0.3767
     28 N2         14.4590    8.3940    3.2930 N.am      1 XY3        -0.2315
     29 C14        12.1160    7.7070    3.5720 C.ar      1 XY3        -0.0148
     30 C16        11.3770    6.2720    5.4910 C.ar      1 XY3         0.0246
     31 C18        13.7530    6.9410    5.2560 C.ar      1 XY3        -0.0202
     32 C19        13.1210    5.4700    7.2590 C.3       1 XY3         0.3645
     33 F1         13.0280    4.1700    7.0270 F         1 XY3        -0.2292
     34 F2         14.3550    5.6860    7.6580 F         1 XY3        -0.2292
     35 F3         12.3230    5.8250    8.2610 F         1 XY3        -0.2292
     36 C23         6.9510    4.0860    4.9680 C.3       1 XY3         0.0096
     37 C25         6.4400    2.6170    2.9750 C.3       1 XY3        -0.0078
     38 N4          7.4550    3.0520    3.9930 N.4       1 XY3         0.2443
     39 N5         27.1300    8.3730    2.5860 N.am      1 XY3        -0.2955
     40 C27         5.3990    2.3950    3.4020 C.3       1 XY3         0.0841
     41 O3          5.3430    0.9830    4.0450 O.3       1 XY3        -0.3898
     42 H1          8.9535    5.6975    4.7168 H         1 XY3         0.2058
     43 H2         16.6603   12.4220    1.1900 H         1 XY3         0.0568
     44 H3         15.0790   10.7400    2.1956 H         1 XY3         0.0648
     45 H4         18.4888    8.2582    3.3150 H         1 XY3         0.0660
     46 H5         10.0646    7.0359    3.9040 H         1 XY3         0.0616
     47 H6         10.6403    4.7398    6.8312 H         1 XY3         0.1043
     48 H7          9.6845    6.2607    6.8408 H         1 XY3         0.1043
     49 H8         10.1050    3.0162    4.9651 H         1 XY3         0.0868
     50 H9         10.6939    4.3081    3.8646 H         1 XY3         0.0868
     51 H10         9.1209    2.6839    2.7159 H         1 XY3         0.0868
     52 H11         8.5130    4.3741    2.6990 H         1 XY3         0.0868
     53 H12         7.6646    5.2317    6.6817 H         1 XY3         0.0868
     54 H13         8.3001    3.5537    6.5974 H         1 XY3         0.0868
     55 H14        24.3881    8.2093    0.0447 H         1 XY3         0.0583
     56 H15        22.8753    9.1757   -0.0180 H         1 XY3         0.0583
     57 H16        22.8706    7.5482    0.7423 H         1 XY3         0.0583
     58 H17        22.9825   10.0316    4.8062 H         1 XY3         0.0538
     59 H18        20.4349   11.9950    1.1649 H         1 XY3         0.0406
     60 H19        19.2645   13.2998    1.5575 H         1 XY3         0.0406
     61 H20        19.1595   12.4433   -0.0179 H         1 XY3         0.0406
     62 H21        14.1376    9.0212    2.5836 H         1 XY3         0.2238
     63 H22        11.8732    8.2556    2.6691 H         1 XY3         0.0763
     64 H23        14.7730    6.9152    5.6221 H         1 XY3         0.0655
     65 H24         6.6665    4.9933    4.4150 H         1 XY3         0.0868
     66 H25         6.0715    3.6861    5.4938 H         1 XY3         0.0868
     67 H26         6.8126    1.7038    2.4879 H         1 XY3         0.0837
     68 H27         6.3401    3.4171    2.2268 H         1 XY3         0.0837
     69 H28         7.6789    2.2337    4.5372 H         1 XY3         0.2038
     70 H29        27.0870    8.5975    3.5595 H         1 XY3         0.1811
     71 H30        27.9837    8.0378    2.1874 H         1 XY3         0.1811
     72 H31         4.6594    2.4484    2.5895 H         1 XY3         0.0610
     73 H32         5.1577    3.1472    4.1675 H         1 XY3         0.0610
     74 H33         5.9770    0.9322    4.7506 H         1 XY3         0.2096
@<TRIPOS>BOND
     1    1   20 2  
     2   21    1 1  
     3   12    2 1  
     4    2   13 1  
     5    2   15 1  
     6    4    3 1  
     7    3   23 3  
     8    4    5 ar 
     9    8    4 ar 
    10    6    5 ar 
    11    5   25 1  
    12    7    6 ar 
    13   24    7 ar 
    14   24    8 ar 
    15   28    9 1  
    16    9   29 ar 
    17    9   31 ar 
    18   29   10 ar 
    19   10   30 ar 
    20   11   30 ar 
    21   31   11 ar 
    22   11   32 1  
    23   30   12 1  
    24   13   14 1  
    25   14   38 1  
    26   15   36 1  
    27   19   16 1  
    28   17   18 2  
    29   20   17 1  
    30   17   39 am 
    31   19   20 1  
    32   22   19 1  
    33   22   21 2  
    34   23   22 1  
    35   26   24 1  
    36   26   27 2  
    37   26   28 am 
    38   32   33 1  
    39   32   34 1  
    40   32   35 1  
    41   36   38 1  
    42   38   37 1  
    43   37   40 1  
    44   40   41 1  
    45    2   42 1  
    46    6   43 1  
    47    7   44 1  
    48    8   45 1  
    49   10   46 1  
    50   12   47 1  
    51   12   48 1  
    52   13   49 1  
    53   13   50 1  
    54   14   51 1  
    55   14   52 1  
    56   15   53 1  
    57   15   54 1  
    58   16   55 1  
    59   16   56 1  
    60   16   57 1  
    61   21   58 1  
    62   25   59 1  
    63   25   60 1  
    64   25   61 1  
    65   28   62 1  
    66   29   63 1  
    67   31   64 1  
    68   36   65 1  
    69   36   66 1  
    70   37   67 1  
    71   37   68 1  
    72   38   69 1  
    73   39   70 1  
    74   39   71 1  
    75   40   72 1  
    76   40   73 1  
    77   41   74 1  
@<TRIPOS>SUBSTRUCTURE
     1 XY3         1

