### 
### Created by X-TOOL on Mon Sep 10 21:13:02 2018
### 

@<TRIPOS>MOLECULE
3oy8_ligand
   45    45     1     0     0
SMALL
GAST_HUCK


@<TRIPOS>ATOM
      1 C1         23.3490    0.1910   17.9290 C.3       1 GAL         0.1884
      2 C2         23.9110    1.4600   17.2830 C.3       1 GAL         0.1341
      3 C3         23.1930    2.6990   17.8260 C.3       1 GAL         0.1141
      4 C4         21.6770    2.5290   17.7030 C.3       1 GAL         0.1119
      5 C5         21.2560    1.2360   18.4100 C.3       1 GAL         0.1130
      6 C6         19.7530    1.0050   18.3310 C.3       1 GAL         0.0730
      7 O2         25.2960    1.5570   17.5260 O.3       1 GAL        -0.3841
      8 O3         23.6200    3.8570   17.1440 O.3       1 GAL        -0.3864
      9 O4         21.3080    2.4860   16.3340 O.3       1 GAL        -0.3865
     10 O5         21.9300    0.1400   17.8240 O.3       1 GAL        -0.3405
     11 O6         19.4270   -0.1960   18.9850 O.3       1 GAL        -0.3924
     12 C1         23.2520   -5.6550   16.3750 C.2       1 GCO         0.0660
     13 C2         23.4320   -4.6380   17.4670 C.3       1 GCO         0.1355
     14 C3         23.6630   -3.2390   16.8770 C.3       1 GCO         0.1213
     15 C4         23.9880   -2.1900   17.9510 C.3       1 GCO         0.1195
     16 C5         25.3480   -2.4370   18.6270 C.3       1 GCO         0.1070
     17 C6         26.5430   -2.0210   17.7670 C.3       1 GCO         0.0727
     18 O11        22.2350   -6.3810   16.4100 O.co2     1 GCO        -0.5663
     19 O12        24.1120   -5.7400   15.4680 O.co2     1 GCO        -0.5663
     20 O2         22.2740   -4.6320   18.3100 O.3       1 GCO        -0.3750
     21 O3         22.5140   -2.8330   16.1230 O.3       1 GCO        -0.3848
     22 O4         23.9340   -0.8740   17.3790 O.3       1 GCO        -0.3400
     23 O5         25.3960   -1.7370   19.8780 O.3       1 GCO        -0.3869
     24 O6         27.7520   -2.2400   18.5040 O.3       1 GCO        -0.3924
     25 H1         23.6040    0.2066   18.9989 H         1 GAL         0.0938
     26 H2         23.7460    1.4049   16.1968 H         1 GAL         0.0671
     27 H3         23.4459    2.8100   18.8908 H         1 GAL         0.0648
     28 H4         21.1758    3.3825   18.1830 H         1 GAL         0.0647
     29 H5         21.5427    1.3084   19.4695 H         1 GAL         0.0647
     30 H6         19.4468    0.9426   17.2763 H         1 GAL         0.0584
     31 H7         19.2278    1.8407   18.8165 H         1 GAL         0.0584
     32 H8         25.7310    0.7841   17.1855 H         1 GAL         0.2101
     33 H9         23.3917    3.7840   16.2247 H         1 GAL         0.2100
     34 H10        20.3657    2.3870   16.2641 H         1 GAL         0.2100
     35 H11        19.8808   -0.9172   18.5651 H         1 GAL         0.2095
     36 H12        24.3099   -4.9157   18.0687 H         1 GAL         0.0791
     37 H13        24.5229   -3.2986   16.1936 H         1 GAL         0.0665
     38 H14        23.2137   -2.2563   18.7295 H         1 GAL         0.0652
     39 H15        25.4343   -3.5157   18.8243 H         1 GAL         0.0643
     40 H16        26.4574   -0.9552   17.5088 H         1 GAL         0.0584
     41 H17        26.5600   -2.6213   16.8454 H         1 GAL         0.0584
     42 H18        21.5136   -4.3789   17.7999 H         1 GAL         0.2125
     43 H19        21.7696   -2.7425   16.7063 H         1 GAL         0.2102
     44 H20        26.2034   -1.9529   20.3296 H         1 GAL         0.2100
     45 H21        27.7349   -1.7213   19.2996 H         1 GAL         0.2095
@<TRIPOS>BOND
     1    1    2 1  
     2    1   10 1  
     3   22    1 1  
     4    2    3 1  
     5    2    7 1  
     6    3    4 1  
     7    3    8 1  
     8    5    4 1  
     9    4    9 1  
    10    5    6 1  
    11   10    5 1  
    12    6   11 1  
    13   13   12 1  
    14   12   18 ar 
    15   12   19 ar 
    16   14   13 1  
    17   13   20 1  
    18   15   14 1  
    19   14   21 1  
    20   15   16 1  
    21   15   22 1  
    22   16   17 1  
    23   16   23 1  
    24   17   24 1  
    25    1   25 1  
    26    2   26 1  
    27    3   27 1  
    28    4   28 1  
    29    5   29 1  
    30    6   30 1  
    31    6   31 1  
    32    7   32 1  
    33    8   33 1  
    34    9   34 1  
    35   11   35 1  
    36   13   36 1  
    37   14   37 1  
    38   15   38 1  
    39   16   39 1  
    40   17   40 1  
    41   17   41 1  
    42   20   42 1  
    43   21   43 1  
    44   23   44 1  
    45   24   45 1  
@<TRIPOS>SUBSTRUCTURE
     1 GAL         1

