### 
### Created by X-TOOL on Mon Sep 10 21:13:03 2018
### 

@<TRIPOS>MOLECULE
3oyl_ligand
   53    56     1     0     0
SMALL
GAST_HUCK


@<TRIPOS>ATOM
      1 CAA       -37.4750   25.8350  -19.2040 C.3       1 ZZX        -0.0448
      2 CAB       -39.5630   31.5660  -25.5030 C.3       1 ZZX         0.0188
      3 CAC       -37.8110   28.8740  -21.8570 C.3       1 ZZX        -0.0334
      4 OAD       -40.4400   31.3380  -22.8720 O.2       1 ZZX        -0.3893
      5 OAE       -37.0620   28.9420  -17.4880 O.2       1 ZZX        -0.4017
      6 OAF       -36.8060   34.5820  -19.0190 O.2       1 ZZX        -0.4072
      7 OAG       -36.7970   31.9980  -17.5200 O.3       1 ZZX        -0.3471
      8 FAH       -42.1640   38.9480  -21.6640 F         1 ZZX        -0.1884
      9 CLAI      -41.2420   38.5860  -19.0300 Cl        1 ZZX        -0.0739
     10 CAJ       -40.4760   37.7330  -22.8330 C.ar      1 ZZX        -0.0342
     11 CAK       -39.3080   36.9760  -22.7430 C.ar      1 ZZX        -0.0590
     12 CAL       -39.3150   37.2330  -20.3220 C.ar      1 ZZX        -0.0453
     13 CAM       -38.5090   26.6820  -18.4540 C.3       1 ZZX         0.0296
     14 CAN       -37.4770   35.9480  -21.3300 C.3       1 ZZX         0.1143
     15 CAO       -39.5020   28.3300  -20.1170 C.3       1 ZZX         0.0616
     16 NAP       -38.3090   33.8870  -21.9940 N.2       1 ZZX        -0.1376
     17 NAQ       -38.8560   32.1300  -24.3240 N.am      1 ZZX        -0.2899
     18 CAR       -39.3590   31.9060  -23.0940 C.2       1 ZZX         0.2163
     19 CAS       -37.8630   29.1550  -18.4080 C.2       1 ZZX         0.2079
     20 CAT       -41.0450   38.2150  -21.6640 C.ar      1 ZZX         0.1390
     21 CAU       -38.7510   36.7320  -21.4900 C.ar      1 ZZX        -0.0133
     22 CAV       -40.4740   37.9670  -20.4330 C.ar      1 ZZX         0.0669
     23 CAW       -37.4000   31.6730  -18.7000 C.2       1 ZZX         0.1100
     24 CAX       -38.6100   32.5710  -21.9070 C.2       1 ZZX         0.1751
     25 CAY       -37.8920   30.4120  -19.0340 C.2       1 ZZX         0.1514
     26 CAZ       -37.3640   33.9300  -19.8990 C.2       1 ZZX         0.2282
     27 CBA       -37.6420   32.5750  -19.7250 C.2       1 ZZX         0.0901
     28 CBB       -38.2790   31.8820  -20.7420 C.2       1 ZZX         0.1083
     29 CBC       -38.9900   29.4120  -21.0430 C.3       1 ZZX         0.0788
     30 NBD       -38.5630   28.0730  -19.0050 N.am      1 ZZX        -0.2740
     31 NBE       -37.7410   34.5350  -21.1030 N.am      1 ZZX        -0.1311
     32 NBF       -38.4330   30.5560  -20.3270 N.pl3     1 ZZX        -0.2577
     33 H         -37.7452   25.7840  -20.2588 H         1 ZZX         0.0249
     34 H         -36.4903   26.2911  -19.1015 H         1 ZZX         0.0249
     35 H         -37.4567   24.8296  -18.7833 H         1 ZZX         0.0249
     36 H         -39.6030   30.4802  -25.4159 H         1 ZZX         0.0483
     37 H         -40.5761   31.9662  -25.5432 H         1 ZZX         0.0483
     38 H         -39.0267   31.8394  -26.4117 H         1 ZZX         0.0483
     39 H         -37.0134   28.5679  -21.1801 H         1 ZZX         0.0259
     40 H         -38.1385   28.0171  -22.4457 H         1 ZZX         0.0259
     41 H         -37.4443   29.6552  -22.5229 H         1 ZZX         0.0259
     42 H         -36.5482   32.9251  -17.5338 H         1 ZZX         0.2414
     43 H         -40.9315   37.9411  -23.8011 H         1 ZZX         0.0587
     44 H         -38.8367   36.5801  -23.6426 H         1 ZZX         0.0550
     45 H         -38.8547   37.0506  -19.3510 H         1 ZZX         0.0553
     46 H         -38.2242   26.7326  -17.4031 H         1 ZZX         0.0517
     47 H         -39.4899   26.2211  -18.5704 H         1 ZZX         0.0517
     48 H         -36.9379   36.3400  -20.4676 H         1 ZZX         0.0806
     49 H         -36.8953   36.0463  -22.2465 H         1 ZZX         0.0806
     50 H         -39.6137   27.4106  -20.6917 H         1 ZZX         0.0550
     51 H         -40.4516   28.6597  -19.6955 H         1 ZZX         0.0550
     52 H         -38.0039   32.6777  -24.4437 H         1 ZZX         0.1837
     53 H         -39.8484   29.7105  -21.6448 H         1 ZZX         0.0658
@<TRIPOS>BOND
     1   13    1 1  
     2   17    2 1  
     3   29    3 1  
     4   18    4 2  
     5   19    5 2  
     6   26    6 2  
     7   23    7 1  
     8   20    8 1  
     9   22    9 1  
    10   11   10 ar 
    11   10   20 ar 
    12   21   11 ar 
    13   21   12 ar 
    14   12   22 ar 
    15   30   13 1  
    16   14   21 1  
    17   31   14 1  
    18   15   29 1  
    19   30   15 1  
    20   16   24 2  
    21   31   16 1  
    22   18   17 am 
    23   24   18 1  
    24   25   19 1  
    25   19   30 am 
    26   22   20 ar 
    27   23   25 2  
    28   27   23 1  
    29   24   28 1  
    30   25   32 1  
    31   26   27 1  
    32   26   31 am 
    33   27   28 2  
    34   28   32 1  
    35   29   32 1  
    36    1   33 1  
    37    1   34 1  
    38    1   35 1  
    39    2   36 1  
    40    2   37 1  
    41    2   38 1  
    42    3   39 1  
    43    3   40 1  
    44    3   41 1  
    45    7   42 1  
    46   10   43 1  
    47   11   44 1  
    48   12   45 1  
    49   13   46 1  
    50   13   47 1  
    51   14   48 1  
    52   14   49 1  
    53   15   50 1  
    54   15   51 1  
    55   17   52 1  
    56   29   53 1  
@<TRIPOS>SUBSTRUCTURE
     1 ZZX         1

