### 
### Created by X-TOOL on Mon Sep 10 21:13:04 2018
### 

@<TRIPOS>MOLECULE
3oyn_ligand
   53    56     1     0     0
SMALL
GAST_HUCK


@<TRIPOS>ATOM
      1 CAA       -38.0170   26.2650  -19.2350 C.3       1 ZZX        -0.0448
      2 CAB       -40.0170   31.8150  -25.3950 C.3       1 ZZX         0.0188
      3 CAC       -38.2740   29.2170  -21.7880 C.3       1 ZZX        -0.0334
      4 OAD       -40.7590   31.7220  -22.7680 O.2       1 ZZX        -0.3893
      5 OAE       -37.5360   29.4100  -17.3540 O.2       1 ZZX        -0.4017
      6 OAF       -37.1280   34.9100  -18.9660 O.2       1 ZZX        -0.4072
      7 OAG       -37.2160   32.3940  -17.4180 O.3       1 ZZX        -0.3471
      8 FAH       -42.3340   39.3920  -21.5090 F         1 ZZX        -0.1884
      9 CLAI      -41.2820   38.9450  -18.9520 Cl        1 ZZX        -0.0739
     10 CAJ       -40.7550   38.1430  -22.7760 C.ar      1 ZZX        -0.0342
     11 CAK       -39.5980   37.3630  -22.7290 C.ar      1 ZZX        -0.0590
     12 CAL       -39.4820   37.5820  -20.3130 C.ar      1 ZZX        -0.0453
     13 CAM       -38.8740   27.1540  -18.3250 C.3       1 ZZX         0.0296
     14 CAN       -37.7420   36.2640  -21.3910 C.3       1 ZZX         0.1143
     15 CAO       -39.8960   28.7090  -20.0420 C.3       1 ZZX         0.0616
     16 NAP       -38.6110   34.2350  -21.9900 N.2       1 ZZX        -0.1376
     17 NAQ       -39.2490   32.4250  -24.2830 N.am      1 ZZX        -0.2899
     18 CAR       -39.6840   32.2520  -23.0330 C.2       1 ZZX         0.2163
     19 CAS       -38.3240   29.6000  -18.2930 C.2       1 ZZX         0.2079
     20 CAT       -41.2500   38.6200  -21.5770 C.ar      1 ZZX         0.1390
     21 CAU       -38.9840   37.0820  -21.5060 C.ar      1 ZZX        -0.0133
     22 CAV       -40.6290   38.3360  -20.3890 C.ar      1 ZZX         0.0669
     23 CAW       -37.8080   32.0710  -18.6170 C.2       1 ZZX         0.1100
     24 CAX       -38.9240   32.9320  -21.8830 C.2       1 ZZX         0.1751
     25 CAY       -38.3300   30.8230  -18.9440 C.2       1 ZZX         0.1514
     26 CAZ       -37.6890   34.2860  -19.8670 C.2       1 ZZX         0.2282
     27 CBA       -37.9960   32.9510  -19.6730 C.2       1 ZZX         0.0901
     28 CBB       -38.6300   32.2570  -20.6930 C.2       1 ZZX         0.1083
     29 CBC       -39.4240   29.7940  -20.9660 C.3       1 ZZX         0.0788
     30 NBD       -38.9770   28.5100  -18.9000 N.am      1 ZZX        -0.2740
     31 NBE       -38.0440   34.8760  -21.0990 N.am      1 ZZX        -0.1311
     32 NBF       -38.8410   30.9330  -20.2510 N.pl3     1 ZZX        -0.2577
     33 H         -38.4785   26.2042  -20.2206 H         1 ZZX         0.0249
     34 H         -37.0193   26.6946  -19.3255 H         1 ZZX         0.0249
     35 H         -37.9463   25.2666  -18.8033 H         1 ZZX         0.0249
     36 H         -40.0515   30.7338  -25.2608 H         1 ZZX         0.0483
     37 H         -41.0310   32.2148  -25.3967 H         1 ZZX         0.0483
     38 H         -39.5310   32.0495  -26.3421 H         1 ZZX         0.0483
     39 H         -37.4715   28.9056  -21.1193 H         1 ZZX         0.0259
     40 H         -38.6302   28.3571  -22.3552 H         1 ZZX         0.0259
     41 H         -37.9021   29.9778  -22.4743 H         1 ZZX         0.0259
     42 H         -36.9381   33.3127  -17.4368 H         1 ZZX         0.2414
     43 H         -41.2487   38.3671  -23.7216 H         1 ZZX         0.0587
     44 H         -39.1712   36.9709  -23.6521 H         1 ZZX         0.0550
     45 H         -38.9883   37.3869  -19.3610 H         1 ZZX         0.0553
     46 H         -38.4093   27.2151  -17.3409 H         1 ZZX         0.0517
     47 H         -39.8716   26.7236  -18.2379 H         1 ZZX         0.0517
     48 H         -37.1392   36.6647  -20.5760 H         1 ZZX         0.0806
     49 H         -37.2102   36.3088  -22.3414 H         1 ZZX         0.0806
     50 H         -39.9419   27.7780  -20.6070 H         1 ZZX         0.0550
     51 H         -40.8699   28.9988  -19.6475 H         1 ZZX         0.0550
     52 H         -38.4048   32.9662  -24.4696 H         1 ZZX         0.1837
     53 H         -40.2842   30.1267  -21.5469 H         1 ZZX         0.0658
@<TRIPOS>BOND
     1   13    1 1  
     2   17    2 1  
     3   29    3 1  
     4   18    4 2  
     5   19    5 2  
     6   26    6 2  
     7   23    7 1  
     8   20    8 1  
     9   22    9 1  
    10   11   10 ar 
    11   10   20 ar 
    12   21   11 ar 
    13   21   12 ar 
    14   12   22 ar 
    15   30   13 1  
    16   14   21 1  
    17   31   14 1  
    18   15   29 1  
    19   30   15 1  
    20   16   24 2  
    21   31   16 1  
    22   18   17 am 
    23   24   18 1  
    24   25   19 1  
    25   19   30 am 
    26   22   20 ar 
    27   23   25 2  
    28   27   23 1  
    29   24   28 1  
    30   25   32 1  
    31   26   27 1  
    32   26   31 am 
    33   27   28 2  
    34   28   32 1  
    35   29   32 1  
    36    1   33 1  
    37    1   34 1  
    38    1   35 1  
    39    2   36 1  
    40    2   37 1  
    41    2   38 1  
    42    3   39 1  
    43    3   40 1  
    44    3   41 1  
    45    7   42 1  
    46   10   43 1  
    47   11   44 1  
    48   12   45 1  
    49   13   46 1  
    50   13   47 1  
    51   14   48 1  
    52   14   49 1  
    53   15   50 1  
    54   15   51 1  
    55   17   52 1  
    56   29   53 1  
@<TRIPOS>SUBSTRUCTURE
     1 ZZX         1

