### 
### Created by X-TOOL on Mon Sep 10 21:13:04 2018
### 

@<TRIPOS>MOLECULE
3oyp_ligand
   77    81     1     0     0
SMALL
GAST_HUCK


@<TRIPOS>ATOM
      1 C1         15.1570  -30.7430   -3.6010 C.ar      1 0Y8        -0.0086
      2 N2         14.5860  -31.0600   -4.8260 N.ar      1 0Y8        -0.2776
      3 C3         15.2720  -31.7180   -2.6220 C.ar      1 0Y8        -0.0455
      4 C4         14.1320  -32.3460   -5.0810 C.ar      1 0Y8         0.1802
      5 C5         14.8210  -33.0040   -2.8730 C.ar      1 0Y8        -0.0092
      6 C6         14.2490  -33.3260   -4.1020 C.ar      1 0Y8         0.0479
      7 C7         13.9330  -35.5860   -3.3340 C.ar      1 0Y8         0.0169
      8 C8         13.8050  -34.6240   -4.3290 C.ar      1 0Y8        -0.0342
      9 C9         14.5030  -35.2670   -2.1120 C.ar      1 0Y8        -0.0501
     10 C10        14.9490  -33.9730   -1.8840 C.ar      1 0Y8        -0.0500
     11 BR11       13.3350  -37.3390   -3.6410 Br        1 0Y8        -0.0500
     12 O12        13.5730  -32.6560   -6.2890 O.3       1 0Y8        -0.2850
     13 C13        13.1930  -31.7620   -7.3310 C.3       1 0Y8         0.1128
     14 C14        11.7740  -31.2630   -7.1690 C.3       1 0Y8         0.0216
     15 C15        11.0130  -32.5430   -7.4880 C.3       1 0Y8         0.1364
     16 N16        11.8430  -33.3410   -8.4510 N.am      1 0Y8        -0.2468
     17 C17        13.1290  -32.6250   -8.5850 C.3       1 0Y8         0.0686
     18 C18         9.6300  -32.3930   -8.1000 C.2       1 0Y8         0.2014
     19 O19         9.5210  -32.0720   -9.2660 O.2       1 0Y8        -0.3947
     20 N20         8.4980  -32.6670   -7.3420 N.am      1 0Y9        -0.2717
     21 C21         7.1290  -32.7000   -7.8930 C.3       1 0Y9         0.1495
     22 C22         6.8660  -33.6580   -9.0710 C.3       1 0Y9         0.0219
     23 C23         6.2040  -33.9080   -7.7130 C.3       1 0Y9        -0.0026
     24 C24         6.0860  -33.2430  -10.2800 C.2       1 0Y9        -0.0848
     25 C25         6.6610  -33.4360  -11.4630 C.2       1 0Y9        -0.1173
     26 C26         6.5990  -31.2880   -7.8350 C.2       1 0Y9         0.2469
     27 O27         5.4420  -31.1120   -8.1460 O.2       1 0Y9        -0.3401
     28 N28         7.3200  -30.1840   -7.4370 N.am      1 0YA        -0.1550
     29 S29         6.7070  -28.6600   -7.3720 S.o2      1 0YA         0.0645
     30 O30         6.5210  -28.1330   -8.7000 O.2       1 0YA        -0.1503
     31 O31         5.4270  -28.6960   -6.7150 O.2       1 0YA        -0.1503
     32 C32         7.8130  -27.6210   -6.4010 C.3       1 0YA         0.1004
     33 C33         7.5630  -27.4520   -4.8840 C.3       1 0YA        -0.0268
     34 C34         7.3990  -26.2950   -5.8210 C.3       1 0YA        -0.0268
     35 C35        11.4450  -34.5260   -9.0940 C.2       1 DAL         0.2062
     36 O36        10.3400  -34.9660   -8.8690 O.2       1 DAL        -0.3942
     37 C37        12.3190  -35.3140  -10.0860 C.3       1 DAL         0.1283
     38 N38        11.5600  -35.7740  -11.2630 N.am      1 DAL        -0.2659
     39 C39        12.9560  -36.5220   -9.3860 C.3       1 DAL        -0.0244
     40 C40        11.1980  -34.9210  -12.2920 C.2       1 PPI         0.1779
     41 O41        11.4970  -33.7480  -12.2310 O.2       1 PPI        -0.3969
     42 C42        10.4400  -35.3950  -13.5050 C.3       1 PPI         0.0345
     43 C43         9.7290  -36.7340  -13.3050 C.3       1 PPI        -0.0482
     44 H          15.5137  -29.7310   -3.4095 H         1 0Y8         0.0737
     45 H          15.7162  -31.4735   -1.6571 H         1 0Y8         0.0585
     46 H          13.3567  -34.8870   -5.2871 H         1 0Y8         0.0702
     47 H          14.6002  -36.0264   -1.3361 H         1 0Y8         0.0665
     48 H          15.4012  -33.7152   -0.9263 H         1 0Y8         0.0623
     49 H          13.8868  -30.9214   -7.3461 H         1 0Y8         0.0686
     50 H          11.5175  -30.4138   -7.8024 H         1 0Y8         0.0343
     51 H          11.5528  -30.8365   -6.1906 H         1 0Y8         0.0343
     52 H          10.8476  -33.0157   -6.5198 H         1 0Y8         0.0803
     53 H          13.9773  -33.3047   -8.6662 H         1 0Y8         0.0555
     54 H          13.1834  -32.0347   -9.4997 H         1 0Y8         0.0555
     55 H           8.6202  -32.8563   -6.3472 H         1 0Y9         0.1841
     56 H           7.4905  -34.2450   -9.7445 H         1 0Y9         0.0489
     57 H           5.2105  -34.1211   -7.3184 H         1 0Y9         0.0307
     58 H           6.0682  -34.7323   -7.0129 H         1 0Y9         0.0307
     59 H           5.0925  -32.8029  -10.1941 H         1 0Y9         0.0674
     60 H           7.6557  -33.8782  -11.5199 H         1 0Y9         0.0290
     61 H           6.1378  -33.1521  -12.3761 H         1 0Y9         0.0290
     62 H           8.2938  -30.3203   -7.1660 H         1 0YA         0.2148
     63 H           8.6312  -27.9430   -7.0452 H         1 0YA         0.0559
     64 H           8.0524  -27.6827   -3.9378 H         1 0YA         0.0285
     65 H           7.0168  -27.9441   -4.0793 H         1 0YA         0.0285
     66 H           6.6499  -25.5302   -6.0257 H         1 0YA         0.0285
     67 H           7.7290  -25.2577   -5.8782 H         1 0YA         0.0285
     68 H          13.0939  -34.6324  -10.4368 H         1 DAL         0.0797
     69 H          11.2917  -36.7563  -11.3216 H         1 DAL         0.1882
     70 H          13.5764  -36.1758   -8.5594 H         1 DAL         0.0277
     71 H          12.1709  -37.1747   -9.0042 H         1 DAL         0.0277
     72 H          13.5715  -37.0705  -10.0990 H         1 DAL         0.0277
     73 H          11.1641  -35.5286  -14.3087 H         1 PPI         0.0500
     74 H           9.6744  -34.6499  -13.7213 H         1 PPI         0.0500
     75 H          10.4639  -37.5014  -13.0619 H         1 PPI         0.0254
     76 H           9.0116  -36.6447  -12.4892 H         1 PPI         0.0254
     77 H           9.2064  -37.0069  -14.2218 H         1 PPI         0.0254
@<TRIPOS>BOND
     1    1    2 ar 
     2    1    3 ar 
     3    2    4 ar 
     4    3    5 ar 
     5    4    6 ar 
     6    4   12 1  
     7    5    6 ar 
     8    5   10 ar 
     9    6    8 ar 
    10    8    7 ar 
    11    7    9 ar 
    12    7   11 1  
    13    9   10 ar 
    14   12   13 1  
    15   13   14 1  
    16   13   17 1  
    17   14   15 1  
    18   15   16 1  
    19   15   18 1  
    20   16   17 1  
    21   16   35 am 
    22   18   19 2  
    23   18   20 am 
    24   20   21 1  
    25   21   22 1  
    26   21   23 1  
    27   21   26 1  
    28   22   23 1  
    29   22   24 1  
    30   24   25 2  
    31   26   27 2  
    32   26   28 am 
    33   28   29 am 
    34   29   30 2  
    35   29   31 2  
    36   29   32 1  
    37   32   33 1  
    38   32   34 1  
    39   33   34 1  
    40   35   36 2  
    41   35   37 1  
    42   37   38 1  
    43   37   39 1  
    44   38   40 am 
    45   40   41 2  
    46   40   42 1  
    47   42   43 1  
    48    1   44 1  
    49    3   45 1  
    50    8   46 1  
    51    9   47 1  
    52   10   48 1  
    53   13   49 1  
    54   14   50 1  
    55   14   51 1  
    56   15   52 1  
    57   17   53 1  
    58   17   54 1  
    59   20   55 1  
    60   22   56 1  
    61   23   57 1  
    62   23   58 1  
    63   24   59 1  
    64   25   60 1  
    65   25   61 1  
    66   28   62 1  
    67   32   63 1  
    68   33   64 1  
    69   33   65 1  
    70   34   66 1  
    71   34   67 1  
    72   37   68 1  
    73   38   69 1  
    74   39   70 1  
    75   39   71 1  
    76   39   72 1  
    77   42   73 1  
    78   42   74 1  
    79   43   75 1  
    80   43   76 1  
    81   43   77 1  
@<TRIPOS>SUBSTRUCTURE
     1 0Y8         1

