### 
### Created by X-TOOL on Mon Sep 10 21:13:05 2018
### 

@<TRIPOS>MOLECULE
3oyq_ligand
   39    39     1     0     0
SMALL
GAST_HUCK


@<TRIPOS>ATOM
      1 CAA        -0.2910   10.2450   14.9080 C.3       1 OYQ        -0.0650
      2 CAB         0.3270    8.1210   13.1670 C.3       1 OYQ        -0.0623
      3 NAC        -5.3460   -0.4520   16.0600 N.am      1 OYQ        -0.2626
      4 OAD        -4.7630    6.7140   13.0320 O.2       1 OYQ        -0.3849
      5 OAE        -5.3770    1.2400   18.0450 O.2       1 OYQ        -0.1524
      6 OAF        -7.3160    1.1810   16.5400 O.2       1 OYQ        -0.1524
      7 CAG        -5.1920    4.4030   14.5200 C.ar      1 OYQ        -0.0394
      8 CAH        -3.1020    3.2280   14.7680 C.ar      1 OYQ        -0.0394
      9 CAI        -5.8370    3.3890   15.2430 C.ar      1 OYQ        -0.0490
     10 CAJ        -3.7260    2.2440   15.4980 C.ar      1 OYQ        -0.0490
     11 CAK        -0.9520    8.9190   15.0920 C.3       1 OYQ        -0.0532
     12 CAL        -2.6310    7.3190   12.2220 C.3       1 OYQ         0.0434
     13 CAM        -2.0520    8.4300   13.0060 C.3       1 OYQ        -0.0330
     14 NAN        -3.0400    5.2590   13.5640 N.am      1 OYQ        -0.2339
     15 CAO        -3.5750    6.4350   12.9590 C.2       1 OYQ         0.2036
     16 CAP        -3.8170    4.3070   14.2930 C.ar      1 OYQ         0.0663
     17 CAQ        -5.0920    2.2980   15.7430 C.ar      1 OYQ         0.0924
     18 CAR        -0.9620    8.0160   13.9160 C.3       1 OYQ        -0.0420
     19 SAS        -5.8440    0.9830   16.6910 S.o2      1 OYQ         0.0591
     20 H1         -0.3497   10.8172   15.8456 H         1 OYQ         0.0230
     21 H2         -0.8004   10.8006   14.1069 H         1 OYQ         0.0230
     22 H3          0.7641   10.0942   14.6360 H         1 OYQ         0.0230
     23 H4          1.1573    7.8181   13.8219 H         1 OYQ         0.0232
     24 H5          0.4779    9.1606   12.8407 H         1 OYQ         0.0232
     25 H6          0.2947    7.4615   12.2872 H         1 OYQ         0.0232
     26 H7         -4.3795   -0.7061   16.0973 H         1 OYQ         0.1633
     27 H8         -6.0097   -1.0704   15.6391 H         1 OYQ         0.1633
     28 H9         -5.7531    5.2501   14.1423 H         1 OYQ         0.0503
     29 H10        -2.0398    3.1549   14.5644 H         1 OYQ         0.0503
     30 H11        -6.9055    3.4424   15.4178 H         1 OYQ         0.0596
     31 H12        -3.1446    1.4159   15.8871 H         1 OYQ         0.0596
     32 H13        -1.9973    9.1038   15.3803 H         1 OYQ         0.0265
     33 H14        -0.4328    8.3973   15.9095 H         1 OYQ         0.0265
     34 H15        -1.8021    6.6966   11.8539 H         1 OYQ         0.0508
     35 H16        -3.1710    7.7531   11.3677 H         1 OYQ         0.0508
     36 H17        -2.8530    8.8832   13.6085 H         1 OYQ         0.0292
     37 H18        -1.6528    9.1777   12.3049 H         1 OYQ         0.0292
     38 H19        -2.0586    5.0902   13.4720 H         1 OYQ         0.2257
     39 H20        -1.1180    6.9787   14.2472 H         1 OYQ         0.0299
@<TRIPOS>BOND
     1   11    1 1  
     2   18    2 1  
     3   19    3 am 
     4   15    4 2  
     5   19    5 2  
     6   19    6 2  
     7    9    7 ar 
     8    7   16 ar 
     9   10    8 ar 
    10    8   16 ar 
    11   17    9 ar 
    12   17   10 ar 
    13   18   11 1  
    14   12   13 1  
    15   15   12 1  
    16   13   18 1  
    17   14   15 am 
    18   16   14 1  
    19   17   19 1  
    20    1   20 1  
    21    1   21 1  
    22    1   22 1  
    23    2   23 1  
    24    2   24 1  
    25    2   25 1  
    26    3   26 1  
    27    3   27 1  
    28    7   28 1  
    29    8   29 1  
    30    9   30 1  
    31   10   31 1  
    32   11   32 1  
    33   11   33 1  
    34   12   34 1  
    35   12   35 1  
    36   13   36 1  
    37   13   37 1  
    38   14   38 1  
    39   18   39 1  
@<TRIPOS>SUBSTRUCTURE
     1 OYQ         1

