### 
### Created by X-TOOL on Mon Sep 10 21:13:05 2018
### 

@<TRIPOS>MOLECULE
3oys_ligand
   34    35     1     0     0
SMALL
GAST_HUCK


@<TRIPOS>ATOM
      1 NAA        -5.3280   -0.4210   16.1140 N.am      1 OYS        -0.2626
      2 OAB        -4.6990    6.6580   12.9200 O.2       1 OYS        -0.3819
      3 OAC        -7.2340    1.2280   16.5590 O.2       1 OYS        -0.1524
      4 OAD        -5.3090    1.1810   18.0700 O.2       1 OYS        -0.1524
      5 CAE        -1.3100   10.6070   14.3680 C.ar      1 OYS        -0.0684
      6 CAF        -1.9380   10.7840   13.1400 C.ar      1 OYS        -0.0681
      7 CAG        -1.0770    9.3270   14.9110 C.ar      1 OYS        -0.0681
      8 CAH        -2.3170    9.6520   12.4220 C.ar      1 OYS        -0.0579
      9 CAI        -1.4820    8.2050   14.1740 C.ar      1 OYS        -0.0579
     10 CAJ        -3.0610    3.1890   14.7390 C.ar      1 OYS        -0.0394
     11 CAK        -5.1640    4.3450   14.4710 C.ar      1 OYS        -0.0394
     12 CAL        -3.6880    2.1960   15.4730 C.ar      1 OYS        -0.0490
     13 CAM        -5.7890    3.3400   15.2160 C.ar      1 OYS        -0.0490
     14 CAN        -2.4880    7.1780   12.1710 C.3       1 OYS         0.0763
     15 NAO        -3.0180    5.2010   13.5170 N.am      1 OYS        -0.2323
     16 CAP        -3.5140    6.3590   12.8850 C.2       1 OYS         0.2151
     17 CAQ        -2.0550    8.3730   12.9390 C.ar      1 OYS        -0.0238
     18 CAR        -3.7840    4.2610   14.2440 C.ar      1 OYS         0.0665
     19 CAS        -5.0580    2.2690   15.7380 C.ar      1 OYS         0.0924
     20 SAT        -5.8120    0.9960   16.7060 S.o2      1 OYS         0.0591
     21 H1         -5.5923   -0.6929   15.1887 H         1 OYS         0.1633
     22 H2         -4.7631   -1.0292   16.6717 H         1 OYS         0.1633
     23 H3         -0.9897   11.4801   14.9249 H         1 OYS         0.0561
     24 H4         -2.1279   11.7779   12.7512 H         1 OYS         0.0600
     25 H5         -0.5960    9.2129   15.8757 H         1 OYS         0.0600
     26 H6         -2.8140    9.7584   11.4645 H         1 OYS         0.0561
     27 H7         -1.3429    7.2090   14.5785 H         1 OYS         0.0561
     28 H8         -1.9954    3.1264   14.5505 H         1 OYS         0.0503
     29 H9         -5.7378    5.1754   14.0756 H         1 OYS         0.0503
     30 H10        -3.1119    1.3563   15.8445 H         1 OYS         0.0596
     31 H11        -6.8574    3.3924   15.3915 H         1 OYS         0.0596
     32 H12        -2.9128    7.5131   11.2133 H         1 OYS         0.0664
     33 H13        -1.6074    6.5469   11.9808 H         1 OYS         0.0664
     34 H14        -2.0356    5.0287   13.4447 H         1 OYS         0.2258
@<TRIPOS>BOND
     1   20    1 am 
     2   16    2 2  
     3   20    3 2  
     4   20    4 2  
     5    6    5 ar 
     6    7    5 ar 
     7    8    6 ar 
     8    9    7 ar 
     9   17    8 ar 
    10   17    9 ar 
    11   12   10 ar 
    12   10   18 ar 
    13   13   11 ar 
    14   11   18 ar 
    15   19   12 ar 
    16   19   13 ar 
    17   16   14 1  
    18   14   17 1  
    19   15   16 am 
    20   18   15 1  
    21   19   20 1  
    22    1   21 1  
    23    1   22 1  
    24    5   23 1  
    25    6   24 1  
    26    7   25 1  
    27    8   26 1  
    28    9   27 1  
    29   10   28 1  
    30   11   29 1  
    31   12   30 1  
    32   13   31 1  
    33   14   32 1  
    34   14   33 1  
    35   15   34 1  
@<TRIPOS>SUBSTRUCTURE
     1 OYS         1

