### 
### Created by X-TOOL on Mon Sep 10 21:13:02 2018
### 

@<TRIPOS>MOLECULE
3oyw_ligand
   45    46     1     0     0
SMALL
GAST_HUCK


@<TRIPOS>ATOM
      1 C1         23.3850    0.3650   17.8970 C.3       1 TDG         0.1353
      2 S1         24.2870   -0.9310   17.0980 S.3       1 TDG        -0.0931
      3 C2         23.7660    1.7360   17.3280 C.3       1 TDG         0.1189
      4 O2         25.1250    2.0480   17.6380 O.3       1 TDG        -0.3857
      5 C3         22.8600    2.8230   17.9150 C.3       1 TDG         0.1126
      6 O3         23.1370    4.1010   17.3370 O.3       1 TDG        -0.3865
      7 C4         21.3920    2.4600   17.7130 C.3       1 TDG         0.1118
      8 O4         21.0960    2.3730   16.3080 O.3       1 TDG        -0.3865
      9 C5         21.1440    1.1140   18.3860 C.3       1 TDG         0.1115
     10 O5         21.9720    0.1300   17.7440 O.3       1 TDG        -0.3552
     11 C6         19.6770    0.7020   18.3270 C.3       1 TDG         0.0730
     12 O6         19.4940   -0.5220   19.0620 O.3       1 TDG        -0.3924
     13 C1'        23.5920   -2.3020   17.9770 C.3       1 TDG         0.1353
     14 C2'        23.2320   -3.4670   17.0420 C.3       1 TDG         0.1189
     15 O2'        22.2210   -3.0770   16.1020 O.3       1 TDG        -0.3857
     16 C3'        22.7020   -4.6520   17.8640 C.3       1 TDG         0.1126
     17 O3'        22.5190   -5.8040   17.0360 O.3       1 TDG        -0.3865
     18 C4'        23.6100   -4.9960   19.0480 C.3       1 TDG         0.1118
     19 O4'        24.8390   -5.5500   18.5670 O.3       1 TDG        -0.3865
     20 C5'        23.8910   -3.7310   19.8650 C.3       1 TDG         0.1115
     21 O5'        24.4950   -2.7500   19.0040 O.3       1 TDG        -0.3552
     22 C6'        24.7180   -4.0130   21.1260 C.3       1 TDG         0.0730
     23 O6'        26.0670   -3.5470   20.9940 O.3       1 TDG        -0.3924
     24 H1         23.6307    0.3540   18.9691 H         1 TDG         0.0740
     25 H2         23.6421    1.7140   16.2352 H         1 TDG         0.0655
     26 H3         25.3432    2.8997   17.2782 H         1 TDG         0.2100
     27 H4         23.0560    2.8853   18.9956 H         1 TDG         0.0647
     28 H5         22.9922    4.0612   16.3990 H         1 TDG         0.2100
     29 H6         20.7526    3.2280   18.1726 H         1 TDG         0.0647
     30 H7         20.1806    2.1467   16.1918 H         1 TDG         0.2100
     31 H8         21.4360    1.1911   19.4437 H         1 TDG         0.0646
     32 H9         19.3809    0.5483   17.2788 H         1 TDG         0.0584
     33 H10        19.0554    1.4933   18.7714 H         1 TDG         0.0584
     34 H11        20.0314   -1.2044   18.6773 H         1 TDG         0.2095
     35 H12        22.6655   -1.9579   18.4599 H         1 TDG         0.0740
     36 H13        24.1344   -3.7767   16.4945 H         1 TDG         0.0655
     37 H14        21.4397   -2.8096   16.5717 H         1 TDG         0.2100
     38 H15        21.7204   -4.3632   18.2678 H         1 TDG         0.0647
     39 H16        23.3506   -6.0483   16.6469 H         1 TDG         0.2100
     40 H17        23.1065   -5.7353   19.6883 H         1 TDG         0.0647
     41 H18        24.6564   -6.3384   18.0695 H         1 TDG         0.2100
     42 H19        22.9241   -3.3286   20.2013 H         1 TDG         0.0646
     43 H20        24.7324   -5.0979   21.3070 H         1 TDG         0.0584
     44 H21        24.2480   -3.5048   21.9809 H         1 TDG         0.0584
     45 H22        26.0635   -2.6091   20.8428 H         1 TDG         0.2095
@<TRIPOS>BOND
     1    1    2 1  
     2    1    3 1  
     3    1   10 1  
     4    2   13 1  
     5    3    4 1  
     6    3    5 1  
     7    5    6 1  
     8    5    7 1  
     9    7    8 1  
    10    7    9 1  
    11    9   10 1  
    12    9   11 1  
    13   11   12 1  
    14   13   14 1  
    15   13   21 1  
    16   14   15 1  
    17   14   16 1  
    18   16   17 1  
    19   16   18 1  
    20   18   19 1  
    21   18   20 1  
    22   20   21 1  
    23   20   22 1  
    24   22   23 1  
    25    1   24 1  
    26    3   25 1  
    27    4   26 1  
    28    5   27 1  
    29    6   28 1  
    30    7   29 1  
    31    8   30 1  
    32    9   31 1  
    33   11   32 1  
    34   11   33 1  
    35   12   34 1  
    36   13   35 1  
    37   14   36 1  
    38   15   37 1  
    39   16   38 1  
    40   17   39 1  
    41   18   40 1  
    42   19   41 1  
    43   20   42 1  
    44   22   43 1  
    45   22   44 1  
    46   23   45 1  
@<TRIPOS>SUBSTRUCTURE
     1 TDG         1

