### 
### Created by X-TOOL on Mon Sep 10 21:13:03 2018
### 

@<TRIPOS>MOLECULE
3oz1_ligand
   94    98     1     0     0
SMALL
GAST_HUCK


@<TRIPOS>ATOM
      1 C         -16.8850  -30.0740   -9.4590 C.2       1 BMB         0.2268
      2 N         -14.7320  -29.0990   -9.9240 N.4       1 BMB         0.2439
      3 O         -17.0450  -29.8990   -8.2450 O.2       1 BMB        -0.3907
      4 CA        -15.5080  -30.3450  -10.0310 C.3       1 BMB         0.0663
      5 CB        -14.8390  -31.5230   -9.2880 C.3       1 BMB         0.0051
      6 CAA       -15.7880  -32.7150   -9.1350 C.3       1 BMB        -0.0580
      7 CAB       -14.3400  -28.7890   -8.5300 C.3       1 BMB        -0.0428
      8 OAD       -22.6810  -31.8650  -11.5930 O.2       1 BMB        -0.3942
      9 OAE       -19.5850  -32.1690  -10.5790 O.2       1 BMB        -0.3942
     10 CAF       -14.7170  -23.7300   -8.5040 C.ar      1 BMB        -0.0687
     11 CAG       -22.4880  -38.3340  -13.6650 C.ar      1 BMB        -0.0685
     12 CAH       -27.7380  -33.1430  -12.3770 C.ar      1 BMB        -0.0685
     13 CAI       -14.4090  -23.3610   -9.8170 C.ar      1 BMB        -0.0684
     14 CAJ       -15.7670  -24.6210   -8.2620 C.ar      1 BMB        -0.0684
     15 CAK       -21.5240  -37.3920  -13.3160 C.ar      1 BMB        -0.0681
     16 CAL       -23.8290  -37.9940  -13.6010 C.ar      1 BMB        -0.0681
     17 CAM       -26.7730  -32.3650  -13.0240 C.ar      1 BMB        -0.0681
     18 CAN       -27.3740  -34.3230  -11.7170 C.ar      1 BMB        -0.0681
     19 CAO       -15.1710  -23.8670  -10.8760 C.ar      1 BMB        -0.0553
     20 CAP       -16.5200  -25.1320   -9.3260 C.ar      1 BMB        -0.0553
     21 CAQ       -21.9080  -36.1200  -12.9070 C.ar      1 BMB        -0.0561
     22 CAR       -24.2130  -36.7240  -13.1760 C.ar      1 BMB        -0.0561
     23 CAS       -25.4500  -32.8020  -13.0230 C.ar      1 BMB        -0.0561
     24 CAT       -26.0390  -34.7380  -11.6870 C.ar      1 BMB        -0.0561
     25 CAV       -18.8630  -26.8580  -12.0260 C.3       1 BMB        -0.0318
     26 CAW       -19.3140  -28.3260  -11.9950 C.3       1 BMB        -0.0055
     27 CAX       -21.4690  -28.8680  -10.6950 C.3       1 BMB        -0.0437
     28 CAY       -22.1110  -28.9470   -9.2950 C.3       1 BMB        -0.0290
     29 CAZ       -23.3620  -30.9290   -8.4770 C.3       1 BMB        -0.0253
     30 CBA       -23.0600  -32.4200   -8.3580 C.3       1 BMB        -0.0101
     31 CBB       -17.0260  -25.3160  -11.8390 C.3       1 BMB         0.0001
     32 NBD       -17.4410  -26.7240  -11.6580 N.4       1 BMB         0.2391
     33 NBE       -17.8630  -30.0840  -10.3510 N.am      1 BMB        -0.2607
     34 NBF       -23.0110  -34.0360  -11.0570 N.am      1 BMB        -0.2600
     35 CBH       -22.6040  -32.7950  -10.7910 C.2       1 BMB         0.2057
     36 CBI       -20.0500  -31.1930   -9.9770 C.2       1 BMB         0.2069
     37 CBJ       -16.2080  -24.7770  -10.6440 C.ar      1 BMB         0.0013
     38 CBK       -23.2540  -35.7850  -12.8170 C.ar      1 BMB        -0.0067
     39 CBL       -25.0850  -33.9880  -12.3720 C.ar      1 BMB        -0.0067
     40 CBM       -19.9380  -28.6880  -10.6190 C.3       1 BMB         0.0043
     41 CBO       -21.9790  -30.3160   -8.5970 C.3       1 BMB         0.0481
     42 CBP       -21.9760  -32.6000   -9.4130 C.3       1 BMB         0.1342
     43 CBQ       -19.2520  -29.8770   -9.9210 C.3       1 BMB         0.1343
     44 CBR       -23.6090  -34.3670  -12.3590 C.3       1 BMB         0.1087
     45 NBS       -21.2340  -31.3260   -9.3810 N.am      1 BMB        -0.2468
     46 H1        -15.2914  -28.3390  -10.2784 H         1 BMB         0.2032
     47 H2        -13.8970  -29.1900  -10.4813 H         1 BMB         0.2032
     48 H3        -15.6023  -30.6154  -11.0931 H         1 BMB         0.1099
     49 H4        -14.5305  -31.1836   -8.2882 H         1 BMB         0.0343
     50 H5        -13.9533  -31.8444   -9.8556 H         1 BMB         0.0343
     51 H6        -15.2727  -33.5279   -8.6025 H         1 BMB         0.0233
     52 H7        -16.0979  -33.0671  -10.1300 H         1 BMB         0.0233
     53 H8        -16.6751  -32.4063   -8.5626 H         1 BMB         0.0233
     54 H9        -13.7650  -27.8514   -8.5107 H         1 BMB         0.0777
     55 H10       -13.7211  -29.6069   -8.1326 H         1 BMB         0.0777
     56 H11       -15.2427  -28.6783   -7.9112 H         1 BMB         0.0777
     57 H12       -14.1439  -23.3269   -7.6769 H         1 BMB         0.0559
     58 H13       -22.1911  -39.3264  -13.9845 H         1 BMB         0.0561
     59 H14       -28.7759  -32.8302  -12.3864 H         1 BMB         0.0561
     60 H15       -13.5838  -22.6861  -10.0137 H         1 BMB         0.0599
     61 H16       -15.9992  -24.9176   -7.2456 H         1 BMB         0.0599
     62 H17       -20.4724  -37.6508  -13.3633 H         1 BMB         0.0600
     63 H18       -24.5835  -38.7195  -13.8829 H         1 BMB         0.0600
     64 H19       -27.0489  -31.4398  -13.5168 H         1 BMB         0.0600
     65 H20       -28.1335  -34.9199  -11.2251 H         1 BMB         0.0600
     66 H21       -14.9549  -23.5496  -11.8897 H         1 BMB         0.0558
     67 H22       -17.3470  -25.8045   -9.1288 H         1 BMB         0.0558
     68 H23       -21.1524  -35.3842  -12.6565 H         1 BMB         0.0561
     69 H24       -25.2649  -36.4673  -13.1252 H         1 BMB         0.0561
     70 H25       -24.6931  -32.2168  -13.5325 H         1 BMB         0.0561
     71 H26       -25.7510  -35.6284  -11.1399 H         1 BMB         0.0561
     72 H27       -19.4726  -26.2812  -11.3148 H         1 BMB         0.0814
     73 H28       -19.0090  -26.4601  -13.0411 H         1 BMB         0.0814
     74 H29       -18.4436  -28.9736  -12.1767 H         1 BMB         0.0322
     75 H30       -20.0633  -28.4888  -12.7837 H         1 BMB         0.0322
     76 H31       -21.9007  -28.0131  -11.2361 H         1 BMB         0.0271
     77 H32       -21.6908  -29.7971  -11.2405 H         1 BMB         0.0271
     78 H33       -23.1819  -28.7170   -9.3965 H         1 BMB         0.0288
     79 H34       -21.6323  -28.1901   -8.6562 H         1 BMB         0.0288
     80 H35       -23.8840  -30.5576   -7.5828 H         1 BMB         0.0290
     81 H36       -23.9683  -30.7173   -9.3700 H         1 BMB         0.0290
     82 H37       -23.9473  -33.0285   -8.5868 H         1 BMB         0.0313
     83 H38       -22.6892  -32.6753   -7.3544 H         1 BMB         0.0313
     84 H39       -17.9269  -24.6960  -11.9569 H         1 BMB         0.0980
     85 H40       -16.4102  -25.2447  -12.7477 H         1 BMB         0.0980
     86 H41       -16.8817  -27.3195  -12.2485 H         1 BMB         0.2028
     87 H42       -17.3148  -26.9921  -10.6945 H         1 BMB         0.2028
     88 H43       -17.6560  -30.2326  -11.3180 H         1 BMB         0.1885
     89 H44       -22.9086  -34.7495  -10.3639 H         1 BMB         0.1907
     90 H45       -19.7635  -27.8161   -9.9714 H         1 BMB         0.0350
     91 H46       -21.5120  -30.1773   -7.6108 H         1 BMB         0.0560
     92 H47       -21.3222  -33.4510   -9.1716 H         1 BMB         0.0802
     93 H48       -19.2024  -29.6013   -8.8573 H         1 BMB         0.0803
     94 H49       -23.1316  -33.7032  -13.0949 H         1 BMB         0.0880
@<TRIPOS>BOND
     1    1    3 2  
     2    1    4 1  
     3   33    1 am 
     4    4    2 1  
     5    2    7 1  
     6    4    5 1  
     7    5    6 1  
     8   35    8 2  
     9   36    9 2  
    10   13   10 ar 
    11   14   10 ar 
    12   15   11 ar 
    13   16   11 ar 
    14   17   12 ar 
    15   18   12 ar 
    16   19   13 ar 
    17   20   14 ar 
    18   21   15 ar 
    19   22   16 ar 
    20   23   17 ar 
    21   24   18 ar 
    22   37   19 ar 
    23   37   20 ar 
    24   38   21 ar 
    25   38   22 ar 
    26   39   23 ar 
    27   39   24 ar 
    28   26   25 1  
    29   25   32 1  
    30   40   26 1  
    31   27   28 1  
    32   40   27 1  
    33   28   41 1  
    34   29   30 1  
    35   41   29 1  
    36   30   42 1  
    37   32   31 1  
    38   31   37 1  
    39   43   33 1  
    40   35   34 am 
    41   34   44 1  
    42   42   35 1  
    43   43   36 1  
    44   36   45 am 
    45   44   38 1  
    46   44   39 1  
    47   40   43 1  
    48   41   45 1  
    49   42   45 1  
    50    2   46 1  
    51    2   47 1  
    52    4   48 1  
    53    5   49 1  
    54    5   50 1  
    55    6   51 1  
    56    6   52 1  
    57    6   53 1  
    58    7   54 1  
    59    7   55 1  
    60    7   56 1  
    61   10   57 1  
    62   11   58 1  
    63   12   59 1  
    64   13   60 1  
    65   14   61 1  
    66   15   62 1  
    67   16   63 1  
    68   17   64 1  
    69   18   65 1  
    70   19   66 1  
    71   20   67 1  
    72   21   68 1  
    73   22   69 1  
    74   23   70 1  
    75   24   71 1  
    76   25   72 1  
    77   25   73 1  
    78   26   74 1  
    79   26   75 1  
    80   27   76 1  
    81   27   77 1  
    82   28   78 1  
    83   28   79 1  
    84   29   80 1  
    85   29   81 1  
    86   30   82 1  
    87   30   83 1  
    88   31   84 1  
    89   31   85 1  
    90   32   86 1  
    91   32   87 1  
    92   33   88 1  
    93   34   89 1  
    94   40   90 1  
    95   41   91 1  
    96   42   92 1  
    97   43   93 1  
    98   44   94 1  
@<TRIPOS>SUBSTRUCTURE
     1 BMB         1

