### 
### Created by X-TOOL on Mon Sep 10 21:13:08 2018
### 

@<TRIPOS>MOLECULE
3ozj_ligand
   42    44     1     0     0
SMALL
GAST_HUCK


@<TRIPOS>ATOM
      1 CAA        13.0420   16.0390   17.3800 C.2       1 BGV        -0.0872
      2 CAB        15.4340   15.4700   21.9040 C.3       1 BGV         0.0372
      3 CAC        18.4990   13.1170   16.0970 C.3       1 BGV        -0.0596
      4 CAD        15.6190   11.7880   18.2830 C.3       1 BGV        -0.0495
      5 OAE        13.3210   15.0710   21.0410 O.2       1 BGV        -0.3707
      6 OAF        16.3490   12.4080   20.9100 O.2       1 BGV        -0.3452
      7 OAG        12.4140   15.0020   14.7100 O.2       1 BGV        -0.3551
      8 CAH        18.0280   13.3010   19.8720 C.2       1 BGV        -0.0168
      9 CAI        18.2330   13.8740   18.7290 C.2       1 BGV        -0.0563
     10 CAJ        16.0410   13.2610   15.6990 C.3       1 BGV        -0.0147
     11 OAK        14.9550   15.1080   19.6130 O.3       1 BGV        -0.2716
     12 OAL        14.0950   13.6230   15.1190 O.3       1 BGV        -0.2714
     13 CAM        14.4900   15.1610   20.8200 C.2       1 BGV         0.2309
     14 CAN        13.6460   15.0340   16.6800 C.2       1 BGV         0.0444
     15 CAO        16.7900   12.9760   19.9620 C.2       1 BGV         0.1344
     16 CAP        13.2920   14.5870   15.4350 C.2       1 BGV         0.2645
     17 CAQ        17.1310   12.9530   16.6890 C.3       1 BGV        -0.0250
     18 CAR        14.6950   13.1470   16.2630 C.3       1 BGV         0.1022
     19 CAS        16.9690   13.8290   17.8730 C.3       1 BGV         0.0132
     20 CAT        14.7780   14.0080   18.7290 C.3       1 BGV         0.1158
     21 CAU        14.8210   14.2920   17.1850 C.3       1 BGV         0.0630
     22 CAV        16.0050   13.1740   18.7460 C.3       1 BGV         0.0765
     23 H1         12.1784   16.5525   16.9599 H         1 BGV         0.0464
     24 H2         13.4239   16.3269   18.3584 H         1 BGV         0.0464
     25 H3         14.8984   15.4804   22.8647 H         1 BGV         0.0483
     26 H4         15.8867   16.4566   21.7259 H         1 BGV         0.0483
     27 H5         16.2231   14.7042   21.9325 H         1 BGV         0.0483
     28 H6         18.6004   12.4600   15.2206 H         1 BGV         0.0235
     29 H7         19.2577   12.8480   16.8467 H         1 BGV         0.0235
     30 H8         18.6424   14.1633   15.7893 H         1 BGV         0.0235
     31 H9         16.5082   11.1404   18.2833 H         1 BGV         0.0224
     32 H10        15.2060   11.8432   17.2650 H         1 BGV         0.0224
     33 H11        14.8619   11.3716   18.9637 H         1 BGV         0.0224
     34 H12        18.7849   13.1234   20.6346 H         1 BGV         0.0471
     35 H13        19.1752   14.3250   18.4211 H         1 BGV         0.0862
     36 H14        16.1266   12.5592   14.8563 H         1 BGV         0.0300
     37 H15        16.1807   14.2896   15.3352 H         1 BGV         0.0300
     38 H16        17.0219   11.9061   17.0084 H         1 BGV         0.0332
     39 H17        14.3385   12.1932   16.6790 H         1 BGV         0.0675
     40 H18        16.6501   14.8377   17.5717 H         1 BGV         0.0523
     41 H19        13.8683   13.4598   19.0152 H         1 BGV         0.0670
     42 H20        15.7534   14.8405   16.9858 H         1 BGV         0.0527
@<TRIPOS>BOND
     1   14    1 2  
     2   13    2 1  
     3   17    3 1  
     4   22    4 1  
     5   13    5 2  
     6   15    6 2  
     7   16    7 2  
     8    9    8 2  
     9   15    8 1  
    10   19    9 1  
    11   10   17 1  
    12   18   10 1  
    13   11   13 1  
    14   20   11 1  
    15   12   16 1  
    16   18   12 1  
    17   14   16 1  
    18   21   14 1  
    19   22   15 1  
    20   17   19 1  
    21   21   18 1  
    22   19   22 1  
    23   20   21 1  
    24   20   22 1  
    25    1   23 1  
    26    1   24 1  
    27    2   25 1  
    28    2   26 1  
    29    2   27 1  
    30    3   28 1  
    31    3   29 1  
    32    3   30 1  
    33    4   31 1  
    34    4   32 1  
    35    4   33 1  
    36    8   34 1  
    37    9   35 1  
    38   10   36 1  
    39   10   37 1  
    40   17   38 1  
    41   18   39 1  
    42   19   40 1  
    43   20   41 1  
    44   21   42 1  
@<TRIPOS>SUBSTRUCTURE
     1 BGV         1

