### 
### Created by X-TOOL on Mon Sep 10 21:13:07 2018
### 

@<TRIPOS>MOLECULE
3ozp_ligand
   44    45     1     0     0
SMALL
GAST_HUCK


@<TRIPOS>ATOM
      1 CAH        38.3340  -56.1750   38.8300 C.3       1 OAN         0.0258
      2 CAG        37.2970  -56.7690   39.7830 C.2       1 OAN         0.1755
      3 OAN        37.4520  -56.6830   41.0000 O.2       1 OAN        -0.3972
      4 NAI        36.2550  -57.3850   39.1810 N.am      1 OAN        -0.2641
      5 CAB        35.1190  -57.9990   39.9070 C.3       1 OAN         0.1483
      6 CAC        34.1790  -56.8470   40.3410 C.3       1 OAN         0.1223
      7 OAJ        33.2280  -56.5890   39.3060 O.3       1 OAN        -0.3842
      8 CAD        33.4700  -57.1930   41.6300 C.3       1 OAN         0.1187
      9 OAK        32.5850  -56.1280   41.9950 O.3       1 OAN        -0.3859
     10 CAE        34.5520  -57.3820   42.6700 C.3       1 OAN         0.1375
     11 CAF        33.9400  -57.6470   44.0420 C.3       1 OAN         0.0780
     12 OAM        34.9760  -57.8040   45.0140 O.3       1 OAN        -0.3919
     13 OAL        35.3700  -58.5190   42.2990 O.3       1 OAN        -0.2871
     14 CAA        35.5690  -58.8370   40.9700 C.2       1 OAN         0.1893
     15 NAY        36.2050  -59.9600   40.6350 N.2       1 OAN        -0.1541
     16 OAQ        36.7030  -60.7930   41.7570 O.3       1 OAN        -0.1506
     17 CAP        36.3650  -62.1170   41.7330 C.2       1 OAN         0.3788
     18 OAR        36.5270  -62.7930   40.7140 O.2       1 OAN        -0.3643
     19 NAO        35.8950  -62.6550   42.8740 N.am      1 OAN        -0.2057
     20 CAS        35.5520  -63.9420   42.9990 C.ar      1 OAN         0.0683
     21 CAT        36.5310  -64.9180   43.2090 C.ar      1 OAN        -0.0414
     22 CAU        36.1600  -66.2550   43.3710 C.ar      1 OAN        -0.0756
     23 CAV        34.8100  -66.6140   43.3370 C.ar      1 OAN        -0.0773
     24 CAW        33.8290  -65.6410   43.1430 C.ar      1 OAN        -0.0756
     25 CAX        34.2010  -64.3040   42.9820 C.ar      1 OAN        -0.0414
     26 H1         38.0205  -56.3519   37.7906 H         1 OAN         0.0467
     27 H2         39.3092  -56.6528   39.0052 H         1 OAN         0.0467
     28 H3         38.4186  -55.0929   39.0084 H         1 OAN         0.0467
     29 H4         36.2508  -57.4290   38.1820 H         1 OAN         0.1888
     30 H5         34.5637  -58.6401   39.2066 H         1 OAN         0.0821
     31 H6         34.7814  -55.9411   40.5038 H         1 OAN         0.0672
     32 H7         33.6859  -56.3413   38.5113 H         1 OAN         0.2103
     33 H8         32.8936  -58.1224   41.5120 H         1 OAN         0.0653
     34 H9         32.1417  -56.3498   42.8054 H         1 OAN         0.2100
     35 H10        35.1745  -56.4763   42.7165 H         1 OAN         0.0708
     36 H11        33.3361  -58.5655   44.0009 H         1 OAN         0.0588
     37 H12        33.2991  -56.7991   44.3256 H         1 OAN         0.0588
     38 H13        34.5877  -57.9686   45.8652 H         1 OAN         0.2095
     39 H14        35.7969  -62.0601   43.6718 H         1 OAN         0.2276
     40 H15        37.5774  -64.6373   43.2461 H         1 OAN         0.0501
     41 H16        36.9191  -67.0137   43.5230 H         1 OAN         0.0577
     42 H17        34.5239  -67.6521   43.4618 H         1 OAN         0.0487
     43 H18        32.7822  -65.9214   43.1173 H         1 OAN         0.0577
     44 H19        33.4400  -63.5445   42.8434 H         1 OAN         0.0501
@<TRIPOS>BOND
     1    1    2 1  
     2    2    3 2  
     3    2    4 am 
     4    4    5 1  
     5    5    6 1  
     6    5   14 1  
     7    6    7 1  
     8    6    8 1  
     9    8    9 1  
    10    8   10 1  
    11   10   11 1  
    12   10   13 1  
    13   11   12 1  
    14   13   14 1  
    15   14   15 2  
    16   15   16 1  
    17   16   17 1  
    18   17   18 2  
    19   17   19 am 
    20   19   20 1  
    21   20   21 ar 
    22   20   25 ar 
    23   21   22 ar 
    24   22   23 ar 
    25   23   24 ar 
    26   24   25 ar 
    27    1   26 1  
    28    1   27 1  
    29    1   28 1  
    30    4   29 1  
    31    5   30 1  
    32    6   31 1  
    33    7   32 1  
    34    8   33 1  
    35    9   34 1  
    36   10   35 1  
    37   11   36 1  
    38   11   37 1  
    39   12   38 1  
    40   19   39 1  
    41   21   40 1  
    42   22   41 1  
    43   23   42 1  
    44   24   43 1  
    45   25   44 1  
@<TRIPOS>SUBSTRUCTURE
     1 OAN         1

