### 
### Created by X-TOOL on Mon Sep 10 21:13:06 2018
### 

@<TRIPOS>MOLECULE
3ozr_ligand
   40    41     1     0     0
SMALL
GAST_HUCK


@<TRIPOS>ATOM
      1 C1        -20.1710   30.3130   13.4170 C.3       1 OZR         0.1157
      2 C2        -21.0150   31.1480   14.4280 C.3       1 OZR         0.1085
      3 C3        -21.8940   31.9600   13.4600 C.3       1 OZR         0.0790
      4 O4        -21.0800   32.2130   12.2910 O.3       1 OZR        -0.3624
      5 C5        -19.8870   31.3840   12.3220 C.3       1 OZR         0.1046
      6 C6        -19.6090   30.7010   11.0200 C.2       1 OZR        -0.0659
      7 O7        -18.9300   29.7130   13.8080 O.3       1 OZR        -0.3848
      8 O8        -20.1550   32.0210   15.1370 O.3       1 OZR        -0.3867
      9 C9        -20.5300   30.5300   10.0710 C.2       1 OZR        -0.0744
     10 C10       -20.2220   29.8380    8.7920 C.3       1 OZR         0.0473
     11 N11       -21.3330   29.0860    8.2730 N.am      1 OZR        -0.2765
     12 C12       -22.1520   29.6430    7.3490 C.2       1 OZR         0.2411
     13 C13       -23.2590   28.8550    6.7400 C.ar      1 OZR         0.2482
     14 C14       -23.3120   27.4510    6.9250 C.ar      1 OZR         0.3921
     15 C15       -24.3720   26.7350    6.3650 C.ar      1 OZR         0.3797
     16 C16       -25.3630   27.3590    5.6000 C.ar      1 OZR         0.1691
     17 C17       -25.2830   28.7600    5.4370 C.ar      1 OZR         0.2168
     18 C18       -24.2620   29.4990    6.0050 C.ar      1 OZR         0.1162
     19 N19       -26.2750   29.5410    4.6820 N.2       1 OZR        -0.1404
     20 O20       -22.3800   26.7390    7.6040 O.3       1 OZR        -0.1763
     21 O21       -24.4630   25.3680    6.5000 O.3       1 OZR        -0.1825
     22 O22       -22.0050   30.8400    7.0220 O.2       1 OZR        -0.3823
     23 O23       -27.1140   29.0050    3.9920 O.2       1 OZR        -0.4541
     24 O24       -26.1780   30.7300    4.8010 O.2       1 OZR        -0.4541
     25 H1        -20.8047   29.5054   13.0218 H         1 OZR         0.0666
     26 H2        -21.6024   30.5230   15.1167 H         1 OZR         0.0645
     27 H3        -22.1978   32.9091   13.9257 H         1 OZR         0.0589
     28 H4        -22.7894   31.3840   13.1836 H         1 OZR         0.0589
     29 H5        -19.0154   31.9961   12.5967 H         1 OZR         0.0748
     30 H6        -18.6035   30.3245   10.8382 H         1 OZR         0.0477
     31 H7        -19.0930   29.0577   14.4762 H         1 OZR         0.2102
     32 H8        -19.6144   31.5161   15.7331 H         1 OZR         0.2100
     33 H9        -21.5374   30.9084   10.2379 H         1 OZR         0.0470
     34 H10       -19.3817   29.1486    8.9610 H         1 OZR         0.0643
     35 H11       -19.9325   30.5934    8.0466 H         1 OZR         0.0643
     36 H12       -21.5004   28.1537    8.5938 H         1 OZR         0.1867
     37 H13       -26.1650   26.7870    5.1476 H         1 OZR         0.1086
     38 H14       -24.2379   30.5757    5.8816 H         1 OZR         0.1563
     39 H15       -21.9806   26.1046    7.0204 H         1 OZR         0.3540
     40 H16       -23.7433   25.0552    7.0354 H         1 OZR         0.3497
@<TRIPOS>BOND
     1    1    2 1  
     2    1    5 1  
     3    1    7 1  
     4    2    3 1  
     5    2    8 1  
     6    3    4 1  
     7    4    5 1  
     8    5    6 1  
     9    6    9 2  
    10    9   10 1  
    11   10   11 1  
    12   11   12 am 
    13   12   13 1  
    14   12   22 2  
    15   13   14 ar 
    16   13   18 ar 
    17   14   15 ar 
    18   14   20 1  
    19   15   16 ar 
    20   15   21 1  
    21   16   17 ar 
    22   17   18 ar 
    23   17   19 1  
    24   19   23 2  
    25   19   24 2  
    26    1   25 1  
    27    2   26 1  
    28    3   27 1  
    29    3   28 1  
    30    5   29 1  
    31    6   30 1  
    32    7   31 1  
    33    8   32 1  
    34    9   33 1  
    35   10   34 1  
    36   10   35 1  
    37   11   36 1  
    38   16   37 1  
    39   18   38 1  
    40   20   39 1  
    41   21   40 1  
@<TRIPOS>SUBSTRUCTURE
     1 OZR         1

