### 
### Created by X-TOOL on Mon Sep 10 21:13:06 2018
### 

@<TRIPOS>MOLECULE
3ozt_ligand
   50    52     1     0     0
SMALL
GAST_HUCK


@<TRIPOS>ATOM
      1 C1         36.8190   -2.2420  -13.3020 C.3       1 OZZ         0.1189
      2 C2         36.7250   -0.7310  -13.5000 C.3       1 OZZ         0.1403
      3 C3         35.1870   -0.4930  -13.5340 C.3       1 OZZ         0.2027
      4 O4         34.7770   -1.2840  -12.3810 O.3       1 OZZ        -0.3296
      5 C5         35.6820   -2.3770  -12.1960 C.3       1 OZZ         0.1082
      6 C6         36.3030   -2.3040  -10.8470 C.2       1 OZZ        -0.0658
      7 N7         34.6790    0.8250  -13.3680 N.pl3     1 OZZ        -0.2105
      8 O8         36.4140   -2.9260  -14.4950 O.3       1 OZZ        -0.3846
      9 O9         37.3070   -0.1890  -14.7150 O.3       1 OZZ        -0.3834
     10 C10        35.9550   -3.0940   -9.8530 C.2       1 OZZ        -0.0744
     11 C11        36.5670   -3.0270   -8.4940 C.3       1 OZZ         0.0473
     12 N12        36.3410   -4.2770   -7.8230 N.am      1 OZZ        -0.2765
     13 C13        37.1230   -4.7350   -6.8520 C.2       1 OZZ         0.2411
     14 C14        36.9050   -6.0700   -6.2720 C.ar      1 OZZ         0.2482
     15 C15        35.7090   -6.8370   -6.5060 C.ar      1 OZZ         0.3921
     16 C16        35.6640   -8.1190   -5.9170 C.ar      1 OZZ         0.3797
     17 C17        36.6610   -8.7020   -5.1410 C.ar      1 OZZ         0.1691
     18 C18        37.8530   -7.9000   -4.9910 C.ar      1 OZZ         0.2168
     19 C19        37.9060   -6.6190   -5.5530 C.ar      1 OZZ         0.1162
     20 N20        38.9150   -8.4600   -4.1780 N.2       1 OZZ        -0.1404
     21 O21        34.7110   -6.3380   -7.1770 O.3       1 OZZ        -0.1763
     22 O22        34.4800   -8.8300   -6.1310 O.3       1 OZZ        -0.1825
     23 O23        38.0800   -3.9910   -6.4330 O.2       1 OZZ        -0.3823
     24 O24        38.7400   -9.4520   -3.5530 O.2       1 OZZ        -0.4541
     25 O25        39.9890   -7.8820   -4.1620 O.2       1 OZZ        -0.4541
     26 C26        35.2910    1.6810  -12.3950 C.2       1 OZZ         0.0592
     27 C27        34.8290    2.9540  -12.1770 C.2       1 OZZ        -0.0116
     28 C28        33.7380    3.4990  -12.9630 C.2       1 OZZ         0.0683
     29 C29        33.5930    1.3290  -14.0550 C.2       1 OZZ         0.0592
     30 C30        33.1080    2.5660  -13.9250 C.2       1 OZZ        -0.0116
     31 O31        33.4060    4.6720  -12.8580 O.2       1 OZZ        -0.4519
     32 H1         37.8091   -2.5820  -12.9644 H         1 OZZ         0.0667
     33 H2         37.1860   -0.2210  -12.6413 H         1 OZZ         0.0678
     34 H3         34.7772   -0.8967  -14.4716 H         1 OZZ         0.0999
     35 H4         35.1497   -3.3329  -12.3094 H         1 OZZ         0.0749
     36 H5         37.0817   -1.5628  -10.6732 H         1 OZZ         0.0477
     37 H6         35.6087   -2.5417  -14.8211 H         1 OZZ         0.2102
     38 H7         36.9288   -0.6267  -15.4685 H         1 OZZ         0.2101
     39 H8         35.1787   -3.8363  -10.0324 H         1 OZZ         0.0470
     40 H9         36.1047   -2.2104   -7.9201 H         1 OZZ         0.0643
     41 H10        37.6482   -2.8457   -8.5838 H         1 OZZ         0.0643
     42 H11        35.5555   -4.8300   -8.1009 H         1 OZZ         0.1867
     43 H12        36.5519   -9.6796   -4.6856 H         1 OZZ         0.1086
     44 H13        38.8052   -6.0330   -5.4014 H         1 OZZ         0.1563
     45 H14        33.9488   -6.2805   -6.6129 H         1 OZZ         0.3540
     46 H15        33.8957   -8.3139   -6.6738 H         1 OZZ         0.3497
     47 H16        36.1385    1.3140  -11.8180 H         1 OZZ         0.1185
     48 H17        35.2884    3.5653  -11.4016 H         1 OZZ         0.0387
     49 H18        33.0924    0.6653  -14.7585 H         1 OZZ         0.1185
     50 H19        32.2554    2.8865  -14.5220 H         1 OZZ         0.0387
@<TRIPOS>BOND
     1    1    2 1  
     2    1    5 1  
     3    1    8 1  
     4    2    3 1  
     5    2    9 1  
     6    3    4 1  
     7    3    7 1  
     8    4    5 1  
     9    5    6 1  
    10    6   10 2  
    11    7   26 1  
    12    7   29 1  
    13   10   11 1  
    14   11   12 1  
    15   12   13 am 
    16   13   14 1  
    17   13   23 2  
    18   14   15 ar 
    19   14   19 ar 
    20   15   16 ar 
    21   15   21 1  
    22   16   17 ar 
    23   16   22 1  
    24   17   18 ar 
    25   18   19 ar 
    26   18   20 1  
    27   20   24 2  
    28   20   25 2  
    29   26   27 2  
    30   27   28 1  
    31   28   30 1  
    32   28   31 2  
    33   29   30 2  
    34    1   32 1  
    35    2   33 1  
    36    3   34 1  
    37    5   35 1  
    38    6   36 1  
    39    8   37 1  
    40    9   38 1  
    41   10   39 1  
    42   11   40 1  
    43   11   41 1  
    44   12   42 1  
    45   17   43 1  
    46   19   44 1  
    47   21   45 1  
    48   22   46 1  
    49   26   47 1  
    50   27   48 1  
    51   29   49 1  
    52   30   50 1  
@<TRIPOS>SUBSTRUCTURE
     1 OZZ         1

