### 
### Created by X-TOOL on Mon Sep 10 21:13:08 2018
### 

@<TRIPOS>MOLECULE
3p0g_ligand
   54    56     1     0     0
SMALL
GAST_HUCK


@<TRIPOS>ATOM
      1 CAA        68.5800   13.3090   13.1130 C.3       1 P0G        -0.0336
      2 CAB        65.7800   15.2150   11.6920 C.3       1 P0G        -0.0173
      3 CAC        65.5580   16.3910   13.8960 C.3       1 P0G        -0.0173
      4 OAD        64.6780   22.5890   10.6300 O.2       1 P0G        -0.3849
      5 OAE        60.6980   20.8760    8.3790 O.3       1 P0G        -0.3468
      6 OAF        60.9380   15.9480   12.3620 O.3       1 P0G        -0.3779
      7 CAG        68.6650   14.1260   16.8250 C.ar      1 P0G        -0.0755
      8 CAH        67.3130   14.3750   17.0890 C.ar      1 P0G        -0.0755
      9 CAI        69.0380   13.7860   15.5280 C.ar      1 P0G        -0.0671
     10 CAJ        66.3430   14.2740   16.0840 C.ar      1 P0G        -0.0667
     11 CAK        60.1820   18.8670    9.5560 C.ar      1 P0G        -0.0630
     12 CAL        60.5050   17.9100   10.5090 C.ar      1 P0G        -0.0892
     13 CAM        64.0910   20.7810   11.9370 C.3       1 P0G         0.1582
     14 CAN        63.2650   16.2380   11.9470 C.3       1 P0G         0.0001
     15 CAO        65.5390   13.8230   13.7580 C.3       1 P0G         0.0239
     16 NAP        63.6610   15.2020   12.9280 N.4       1 P0G         0.2352
     17 NAQ        62.9230   21.2980    9.9190 N.am      1 P0G        -0.2398
     18 OAR        63.5640   19.4090   11.9340 O.3       1 P0G        -0.3107
     19 CAS        63.9400   21.6170   10.8220 C.2       1 P0G         0.2277
     20 CAT        68.0710   13.6780   14.5140 C.ar      1 P0G        -0.0439
     21 CAU        60.9950   19.9760    9.3530 C.ar      1 P0G         0.0943
     22 CAV        66.7010   13.9250   14.7770 C.ar      1 P0G        -0.0357
     23 CAW        61.6370   18.0610   11.3050 C.ar      1 P0G        -0.0035
     24 CAX        62.1130   20.1650   10.1520 C.ar      1 P0G         0.1196
     25 CAY        62.4430   19.2160   11.1440 C.ar      1 P0G         0.1117
     26 CAZ        61.9630   16.9460   12.3430 C.3       1 P0G         0.1189
     27 CBA        65.1330   15.1550   13.0800 C.3       1 P0G        -0.0089
     28 H          69.2842   14.0679   12.7721 H         1 P0G         0.0376
     29 H          69.0785   12.3405   13.1524 H         1 P0G         0.0376
     30 H          67.7373   13.2576   12.4235 H         1 P0G         0.0376
     31 H          66.8640   15.1661   11.7954 H         1 P0G         0.0289
     32 H          65.4325   14.3727   11.0938 H         1 P0G         0.0289
     33 H          65.5021   16.1487   11.2031 H         1 P0G         0.0289
     34 H          65.0848   16.3572   14.8773 H         1 P0G         0.0289
     35 H          66.6416   16.3921   14.0136 H         1 P0G         0.0289
     36 H          65.2472   17.2950   13.3723 H         1 P0G         0.0289
     37 H          61.3579   21.5733    8.3771 H         1 P0G         0.2406
     38 H          60.8604   15.5540   11.4901 H         1 P0G         0.2125
     39 H          69.4094   14.1969   17.6180 H         1 P0G         0.0541
     40 H          67.0089   14.6534   18.0980 H         1 P0G         0.0541
     41 H          70.0873   13.6022   15.2971 H         1 P0G         0.0537
     42 H          65.2975   14.4694   16.3225 H         1 P0G         0.0537
     43 H          59.2782   18.7468    8.9587 H         1 P0G         0.0395
     44 H          59.8678   17.0346   10.6346 H         1 P0G         0.0380
     45 H          65.1695   20.6488   12.0231 H         1 P0G         0.0853
     46 H          63.5207   21.2806   12.7201 H         1 P0G         0.0853
     47 H          63.1061   15.7504   10.9852 H         1 P0G         0.0858
     48 H          64.0575   16.9852   11.9053 H         1 P0G         0.0858
     49 H          64.6670   13.4773   14.3132 H         1 P0G         0.0469
     50 H          65.8790   13.1595   12.9629 H         1 P0G         0.0469
     51 H          63.3360   14.2940   12.5959 H         1 P0G         0.2023
     52 H          63.2447   15.4287   13.8311 H         1 P0G         0.2023
     53 H          62.7664   21.8801    9.0962 H         1 P0G         0.2183
     54 H          62.0455   17.4215   13.3203 H         1 P0G         0.0764
@<TRIPOS>BOND
     1   20    1 1  
     2   27    2 1  
     3   27    3 1  
     4   19    4 2  
     5   21    5 1  
     6   26    6 1  
     7    8    7 ar 
     8    9    7 ar 
     9   10    8 ar 
    10   20    9 ar 
    11   22   10 ar 
    12   12   11 ar 
    13   11   21 ar 
    14   23   12 ar 
    15   18   13 1  
    16   13   19 1  
    17   14   16 1  
    18   26   14 1  
    19   15   22 1  
    20   27   15 1  
    21   16   27 1  
    22   19   17 am 
    23   24   17 1  
    24   25   18 1  
    25   22   20 ar 
    26   21   24 ar 
    27   23   25 ar 
    28   23   26 1  
    29   24   25 ar 
    30    1   28 1  
    31    1   29 1  
    32    1   30 1  
    33    2   31 1  
    34    2   32 1  
    35    2   33 1  
    36    3   34 1  
    37    3   35 1  
    38    3   36 1  
    39    5   37 1  
    40    6   38 1  
    41    7   39 1  
    42    8   40 1  
    43    9   41 1  
    44   10   42 1  
    45   11   43 1  
    46   12   44 1  
    47   13   45 1  
    48   13   46 1  
    49   14   47 1  
    50   14   48 1  
    51   15   49 1  
    52   15   50 1  
    53   16   51 1  
    54   16   52 1  
    55   17   53 1  
    56   26   54 1  
@<TRIPOS>SUBSTRUCTURE
     1 P0G         1

