### 
### Created by X-TOOL on Mon Sep 10 21:13:05 2018
### 

@<TRIPOS>MOLECULE
3p17_ligand
   51    53     1     0     0
SMALL
GAST_HUCK


@<TRIPOS>ATOM
      1 N4         16.3850  -15.3010   23.0820 N.4       1 99P         0.2394
      2 C3         17.6990  -14.5780   23.1540 C.3       1 99P         0.0746
      3 C5         17.4730  -13.1790   22.5570 C.2       1 99P         0.2313
      4 O7         16.5570  -12.4680   23.0010 O.2       1 99P        -0.3903
      5 C2         18.1780  -14.5050   24.6150 C.3       1 99P         0.0416
      6 C1         19.6110  -13.9940   24.6830 C.ar      1 99P        -0.0353
      7 C8         20.6710  -14.6660   24.0630 C.ar      1 99P        -0.0600
      8 C12        19.8780  -12.8100   25.3900 C.ar      1 99P        -0.0600
      9 C9         21.9580  -14.1600   24.1540 C.ar      1 99P        -0.0686
     10 C11        21.1620  -12.3040   25.4820 C.ar      1 99P        -0.0686
     11 C10        22.2090  -12.9810   24.8600 C.ar      1 99P        -0.0687
     12 N6         18.3390  -12.7830   21.5650 N.am      1 99P        -0.2470
     13 C13        18.2050  -11.4320   20.9920 C.3       1 99P         0.1339
     14 C14        16.7460  -11.3110   20.4680 C.2       1 99P         0.2038
     15 O15        16.2600  -12.1930   19.7200 O.2       1 99P        -0.3944
     16 C19        19.1940  -11.4200   19.8060 C.3       1 99P        -0.0104
     17 C20        20.2390  -12.4020   20.2720 C.3       1 99P        -0.0281
     18 C21        19.4570  -13.5360   20.9490 C.3       1 99P         0.0371
     19 N16        16.0870  -10.1430   20.7160 N.am      1 99P        -0.2725
     20 C17        14.7610   -9.8760   20.1810 C.3       1 99P         0.0706
     21 C18        13.7180  -10.4350   21.0910 C.ar      1 99P         0.0070
     22 C22        12.9340   -9.6220   21.8870 C.ar      1 99P         0.0145
     23 N23        11.9730  -10.0820   22.7300 N.ar      1 99P        -0.3043
     24 C24        11.7790  -11.4190   22.7850 C.ar      1 99P         0.0042
     25 C25        12.5170  -12.2990   22.0250 C.ar      1 99P        -0.0404
     26 C26        13.4900  -11.7940   21.1770 C.ar      1 99P        -0.0385
     27 H1         16.4898  -16.2273   23.4654 H         1 99P         0.2017
     28 H2         16.0899  -15.3668   22.1204 H         1 99P         0.2017
     29 H3         15.6932  -14.7944   23.6119 H         1 99P         0.2017
     30 H4         18.4531  -15.1134   22.5585 H         1 99P         0.1123
     31 H5         18.1304  -15.5090   25.0619 H         1 99P         0.0507
     32 H6         17.5235  -13.8222   25.1766 H         1 99P         0.0507
     33 H7         20.4854  -15.5811   23.5124 H         1 99P         0.0557
     34 H8         19.0627  -12.2831   25.8724 H         1 99P         0.0557
     35 H9         22.7766  -14.6834   23.6734 H         1 99P         0.0599
     36 H10        21.3519  -11.3897   26.0326 H         1 99P         0.0599
     37 H11        23.2190  -12.5926   24.9240 H         1 99P         0.0559
     38 H12        18.4340  -10.6417   21.7220 H         1 99P         0.0802
     39 H13        19.6240  -10.4193   19.6521 H         1 99P         0.0313
     40 H14        18.7112  -11.7584   18.8774 H         1 99P         0.0313
     41 H15        20.9235  -11.9249   20.9888 H         1 99P         0.0287
     42 H16        20.8137  -12.7875   19.4170 H         1 99P         0.0287
     43 H17        19.0932  -14.2697   20.2147 H         1 99P         0.0524
     44 H18        20.0656  -14.0483   21.7087 H         1 99P         0.0524
     45 H19        16.5292   -9.4484   21.2834 H         1 99P         0.1880
     46 H20        14.6676  -10.3440   19.1899 H         1 99P         0.0699
     47 H21        14.6182   -8.7893   20.0883 H         1 99P         0.0699
     48 H22        13.0956   -8.5513   21.8357 H         1 99P         0.0766
     49 H23        11.0174  -11.8112   23.4493 H         1 99P         0.0767
     50 H24        12.3402  -13.3666   22.0888 H         1 99P         0.0693
     51 H25        14.0795  -12.4747   20.5736 H         1 99P         0.0679
@<TRIPOS>BOND
     1    1    2 1  
     2    2    3 1  
     3    2    5 1  
     4    3    4 2  
     5    3   12 am 
     6    5    6 1  
     7    6    7 ar 
     8    6    8 ar 
     9    7    9 ar 
    10    8   10 ar 
    11    9   11 ar 
    12   10   11 ar 
    13   12   13 1  
    14   12   18 1  
    15   13   14 1  
    16   13   16 1  
    17   14   15 2  
    18   14   19 am 
    19   16   17 1  
    20   17   18 1  
    21   19   20 1  
    22   20   21 1  
    23   21   22 ar 
    24   21   26 ar 
    25   22   23 ar 
    26   23   24 ar 
    27   24   25 ar 
    28   25   26 ar 
    29    1   27 1  
    30    1   28 1  
    31    1   29 1  
    32    2   30 1  
    33    5   31 1  
    34    5   32 1  
    35    7   33 1  
    36    8   34 1  
    37    9   35 1  
    38   10   36 1  
    39   11   37 1  
    40   13   38 1  
    41   16   39 1  
    42   16   40 1  
    43   17   41 1  
    44   17   42 1  
    45   18   43 1  
    46   18   44 1  
    47   19   45 1  
    48   20   46 1  
    49   20   47 1  
    50   22   48 1  
    51   24   49 1  
    52   25   50 1  
    53   26   51 1  
@<TRIPOS>SUBSTRUCTURE
     1 99P         1

