### 
### Created by X-TOOL on Mon Sep 10 21:13:02 2018
### 

@<TRIPOS>MOLECULE
3p1d_ligand
   16    16     1     0     0
SMALL
GAST_HUCK


@<TRIPOS>ATOM
      1 CAA       -19.6060   25.2500   -2.0040 C.3       1 MB3         0.0226
      2 OAB       -21.1240   27.0230   -0.1990 O.2       1 MB3        -0.3969
      3 CAC       -17.6390   27.7430    0.0850 C.3       1 MB3        -0.0156
      4 CAD       -19.0480   27.9300    0.6150 C.3       1 MB3         0.0392
      5 CAE       -17.7060   26.5340   -0.8160 C.3       1 MB3         0.0356
      6 CAF       -19.8920   27.0000   -0.2290 C.2       1 MB3         0.1783
      7 NAG       -19.1250   26.2710   -1.0420 N.am      1 MB3        -0.2761
      8 H1        -18.7474   24.8140   -2.5357 H         1 MB3         0.0486
      9 H2        -20.2857   25.7210   -2.7294 H         1 MB3         0.0486
     10 H3        -20.1416   24.4577   -1.4606 H         1 MB3         0.0486
     11 H4        -16.9366   27.5672    0.9131 H         1 MB3         0.0309
     12 H5        -17.3210   28.6293   -0.4836 H         1 MB3         0.0309
     13 H6        -19.3754   28.9729    0.4917 H         1 MB3         0.0503
     14 H7        -19.1048   27.6510    1.6775 H         1 MB3         0.0503
     15 H8        -17.2309   25.6693   -0.3296 H         1 MB3         0.0524
     16 H9        -17.2001   26.7415   -1.7705 H         1 MB3         0.0524
@<TRIPOS>BOND
     1    7    1 1  
     2    6    2 2  
     3    3    4 1  
     4    5    3 1  
     5    4    6 1  
     6    5    7 1  
     7    6    7 am 
     8    1    8 1  
     9    1    9 1  
    10    1   10 1  
    11    3   11 1  
    12    3   12 1  
    13    4   13 1  
    14    4   14 1  
    15    5   15 1  
    16    5   16 1  
@<TRIPOS>SUBSTRUCTURE
     1 MB3         1

