### 
### Created by X-TOOL on Mon Sep 10 21:13:03 2018
### 

@<TRIPOS>MOLECULE
3p2e_ligand
   46    48     1     0     0
SMALL
GAST_HUCK


@<TRIPOS>ATOM
      1 N          10.3760    8.8670    2.8770 N.4       1 SAH         0.2327
      2 CA         11.4310    9.6150    2.4340 C.3       1 SAH         0.0291
      3 CB         10.9290   10.7780    1.5740 C.3       1 SAH         0.0114
      4 CG         11.8990   11.4510    0.6490 C.3       1 SAH         0.0005
      5 SD         11.2960   12.7830   -0.3350 S.3       1 SAH        -0.1578
      6 C          12.3280   10.0360    3.6780 C.2       1 SAH         0.0844
      7 O          13.4040   10.1580    3.2680 O.co2     1 SAH        -0.5643
      8 OXT        11.9490   10.1940    4.7500 O.co2     1 SAH        -0.5643
      9 C5'         9.7410   12.3670   -1.1350 C.3       1 SAH         0.0226
     10 C4'         9.9310   10.9770   -1.9020 C.3       1 SAH         0.0995
     11 O4'         8.5970   10.7010   -2.3490 O.3       1 SAH        -0.3383
     12 C3'        10.8320   11.0260   -3.1190 C.3       1 SAH         0.1132
     13 O3'        11.8980   10.0300   -3.0150 O.3       1 SAH        -0.3864
     14 C2'         9.8550   10.8250   -4.3350 C.3       1 SAH         0.1385
     15 O2'        10.3830   10.1440   -5.4520 O.3       1 SAH        -0.3836
     16 C1'         8.6730   10.0850   -3.6730 C.3       1 SAH         0.2009
     17 N9          7.3490   10.2710   -4.3890 N.pl3     1 SAH        -0.1919
     18 C8          6.7920   11.4800   -4.8290 C.2       1 SAH         0.1123
     19 N7          5.6510   11.3120   -5.4730 N.2       1 SAH        -0.2958
     20 C5          5.4880    9.8870   -5.4260 C.ar      1 SAH         0.1045
     21 C6          4.3980    9.1340   -5.9840 C.ar      1 SAH         0.1298
     22 N6          3.3710    9.7240   -6.6400 N.pl3     1 SAH        -0.3152
     23 N1          4.4980    7.7670   -5.7900 N.ar      1 SAH        -0.2698
     24 C2          5.5640    7.1660   -5.1090 C.ar      1 SAH         0.0533
     25 N3          6.6140    7.9060   -4.5730 N.ar      1 SAH        -0.2714
     26 C4          6.4880    9.2570   -4.7830 C.ar      1 SAH         0.1613
     27 H1          9.8031    8.5967    2.0929 H         1 SAH         0.2010
     28 H2          9.8261    9.4112    3.5232 H         1 SAH         0.2010
     29 H3         10.7209    8.0415    3.3415 H         1 SAH         0.2010
     30 H4         12.0526    8.9806    1.7850 H         1 SAH         0.1024
     31 H5         10.5458   11.5480    2.2597 H         1 SAH         0.0347
     32 H6         10.1039   10.3935    0.9564 H         1 SAH         0.0347
     33 H7         12.2862   10.6836   -0.0374 H         1 SAH         0.0379
     34 H8         12.7229   11.8425    1.2638 H         1 SAH         0.0379
     35 H9          9.4691   13.1546   -1.8532 H         1 SAH         0.0402
     36 H10         8.9475   12.2700   -0.3794 H         1 SAH         0.0402
     37 H11        10.2998   10.2055   -1.2101 H         1 SAH         0.0632
     38 H12        11.3033   12.0169   -3.1968 H         1 SAH         0.0647
     39 H13        11.5148    9.1631   -2.9513 H         1 SAH         0.2100
     40 H14         9.5203   11.8102   -4.6919 H         1 SAH         0.0676
     41 H15        10.6585    9.2736   -5.1896 H         1 SAH         0.2101
     42 H16         8.8919    9.0095   -3.5991 H         1 SAH         0.0996
     43 H17         7.2506   12.4528   -4.6582 H         1 SAH         0.1349
     44 H18         2.6082    9.1493   -7.0257 H         1 SAH         0.1820
     45 H19         3.3525   10.7476   -6.7534 H         1 SAH         0.1820
     46 H20         5.5716    6.0880   -4.9955 H         1 SAH         0.0996
@<TRIPOS>BOND
     1    1    2 1  
     2    2    3 1  
     3    2    6 1  
     4    3    4 1  
     5    4    5 1  
     6    5    9 1  
     7    6    7 ar 
     8    6    8 ar 
     9    9   10 1  
    10   10   11 1  
    11   10   12 1  
    12   11   16 1  
    13   12   13 1  
    14   12   14 1  
    15   14   15 1  
    16   14   16 1  
    17   16   17 1  
    18   17   18 1  
    19   17   26 1  
    20   18   19 2  
    21   19   20 1  
    22   20   21 ar 
    23   20   26 ar 
    24   21   22 1  
    25   21   23 ar 
    26   23   24 ar 
    27   24   25 ar 
    28   25   26 ar 
    29    1   27 1  
    30    1   28 1  
    31    1   29 1  
    32    2   30 1  
    33    3   31 1  
    34    3   32 1  
    35    4   33 1  
    36    4   34 1  
    37    9   35 1  
    38    9   36 1  
    39   10   37 1  
    40   12   38 1  
    41   13   39 1  
    42   14   40 1  
    43   15   41 1  
    44   16   42 1  
    45   18   43 1  
    46   22   44 1  
    47   22   45 1  
    48   24   46 1  
@<TRIPOS>SUBSTRUCTURE
     1 SAH         1

