### 
### Created by X-TOOL on Mon Sep 10 21:13:07 2018
### 

@<TRIPOS>MOLECULE
3p2h_ligand
   40    40     1     0     0
SMALL
GAST_HUCK


@<TRIPOS>ATOM
      1 C1          0.2140   82.0400   52.3690 C.2       1 NOO         0.0693
      2 O1         -0.2360   83.1280   52.7140 O.2       1 NOO        -0.4238
      3 C2         -0.6390   80.7780   52.3340 C.2       1 NOO        -0.0250
      4 C3         -0.0970   79.5050   52.5560 C.2       1 NOO         0.0661
      5 C4          1.4400   79.3900   52.6220 C.3       1 NOO         0.0186
      6 C5          2.2210   80.4590   51.7590 C.3       1 NOO        -0.0225
      7 C6          1.7210   81.9200   51.9800 C.3       1 NOO         0.0103
      8 N7         -0.8660   78.2790   52.7410 N.am      1 NOO        -0.2162
      9 C8         -0.7680   76.9490   52.2540 C.2       1 NOO         0.2159
     10 O8          0.2460   76.2600   52.3080 O.2       1 NOO        -0.3786
     11 C9         -2.0010   76.2790   51.6080 C.3       1 NOO         0.0458
     12 C10        -3.4030   76.9270   51.7470 C.3       1 NOO        -0.0353
     13 C11        -4.4940   75.8230   51.6910 C.3       1 NOO        -0.0510
     14 C12        -5.7450   76.2630   50.9100 C.3       1 NOO        -0.0529
     15 C13        -6.8520   75.1890   50.9850 C.3       1 NOO        -0.0533
     16 C14        -8.2570   75.8190   50.9430 C.3       1 NOO        -0.0559
     17 C15        -9.3480   74.7560   50.7810 C.3       1 NOO        -0.0653
     18 H          -1.7058   80.8684   52.1296 H         1 NOO         0.0085
     19 H           1.7018   78.4094   52.2245 H         1 NOO         0.0524
     20 H           1.7255   79.5520   53.6614 H         1 NOO         0.0524
     21 H           2.0619   80.2129   50.7091 H         1 NOO         0.0319
     22 H           3.2682   80.4215   52.0592 H         1 NOO         0.0319
     23 H           2.2970   82.3311   52.8090 H         1 NOO         0.0467
     24 H           1.8479   82.4460   51.0338 H         1 NOO         0.0467
     25 H          -1.6607   78.4076   53.3673 H         1 NOO         0.2423
     26 H          -2.0918   75.3234   52.1245 H         1 NOO         0.0510
     27 H          -1.7947   76.3064   50.5380 H         1 NOO         0.0510
     28 H          -3.5589   77.6324   50.9308 H         1 NOO         0.0290
     29 H          -3.4669   77.4518   52.7002 H         1 NOO         0.0290
     30 H          -4.7988   75.6016   52.7138 H         1 NOO         0.0267
     31 H          -4.0689   74.9580   51.1820 H         1 NOO         0.0267
     32 H          -5.4708   76.4096   49.8653 H         1 NOO         0.0265
     33 H          -6.1238   77.1862   51.3486 H         1 NOO         0.0265
     34 H          -6.7447   74.6490   51.9257 H         1 NOO         0.0265
     35 H          -6.7465   74.5251   50.1269 H         1 NOO         0.0265
     36 H          -8.3056   76.4948   50.0892 H         1 NOO         0.0263
     37 H          -8.4263   76.3454   51.8824 H         1 NOO         0.0263
     38 H          -9.1871   74.2109   49.8509 H         1 NOO         0.0230
     39 H          -9.3062   74.0633   51.6215 H         1 NOO         0.0230
     40 H         -10.3243   75.2401   50.7557 H         1 NOO         0.0230
@<TRIPOS>BOND
     1    1    2 2  
     2    1    3 1  
     3    1    7 1  
     4    3    4 2  
     5    4    5 1  
     6    4    8 1  
     7    5    6 1  
     8    6    7 1  
     9    8    9 am 
    10    9   10 2  
    11    9   11 1  
    12   11   12 1  
    13   12   13 1  
    14   13   14 1  
    15   14   15 1  
    16   15   16 1  
    17   16   17 1  
    18    3   18 1  
    19    5   19 1  
    20    5   20 1  
    21    6   21 1  
    22    6   22 1  
    23    7   23 1  
    24    7   24 1  
    25    8   25 1  
    26   11   26 1  
    27   11   27 1  
    28   12   28 1  
    29   12   29 1  
    30   13   30 1  
    31   13   31 1  
    32   14   32 1  
    33   14   33 1  
    34   15   34 1  
    35   15   35 1  
    36   16   36 1  
    37   16   37 1  
    38   17   38 1  
    39   17   39 1  
    40   17   40 1  
@<TRIPOS>SUBSTRUCTURE
     1 NOO         1

