### 
### Created by X-TOOL on Mon Sep 10 21:13:04 2018
### 

@<TRIPOS>MOLECULE
3p2k_ligand
   50    52     1     0     0
SMALL
GAST_HUCK


@<TRIPOS>ATOM
      1 N           9.6750   -5.6230    2.9260 N.4       1 SAM         0.2328
      2 CA          9.6010   -4.8190    1.6890 C.3       1 SAM         0.0327
      3 C          10.9750   -4.4130    1.2720 C.2       1 SAM         0.0846
      4 O          11.9340   -4.6880    2.0130 O.co2     1 SAM        -0.5643
      5 OXT        11.1170   -3.7580    0.2320 O.co2     1 SAM        -0.5643
      6 CB          9.0650   -3.4510    1.9950 C.3       1 SAM         0.0473
      7 CG          8.2430   -3.2970    3.2430 C.3       1 SAM         0.1163
      8 SD          7.4900   -1.6460    3.1610 S.3       1 SAM        -0.0103
      9 CE          8.8630   -0.6120    3.7110 C.3       1 SAM         0.0995
     10 C5'         6.7190   -1.8550    4.7660 C.3       1 SAM         0.1381
     11 C4'         5.8630   -3.0910    4.6040 C.3       1 SAM         0.1350
     12 O4'         5.6730   -3.6010    5.8940 O.3       1 SAM        -0.3344
     13 C3'         4.4910   -2.7280    4.0330 C.3       1 SAM         0.1168
     14 O3'         4.1530   -3.5090    2.9020 O.3       1 SAM        -0.3863
     15 C2'         3.5100   -3.0430    5.1370 C.3       1 SAM         0.1386
     16 O2'         2.4540   -3.7810    4.5880 O.3       1 SAM        -0.3836
     17 C1'         4.3210   -3.9890    5.9750 C.3       1 SAM         0.2011
     18 N9          3.8530   -4.0820    7.3460 N.pl3     1 SAM        -0.1919
     19 C8          3.8330   -3.1450    8.3340 C.2       1 SAM         0.1123
     20 N7          3.2990   -3.7260    9.4600 N.2       1 SAM        -0.2958
     21 C5          2.9980   -5.0240    9.1770 C.ar      1 SAM         0.1045
     22 C6          2.4620   -6.0640    9.9240 C.ar      1 SAM         0.1298
     23 N6          2.1240   -5.8990   11.2020 N.pl3     1 SAM        -0.3152
     24 N1          2.2770   -7.2950    9.3420 N.ar      1 SAM        -0.2698
     25 C2          2.6320   -7.4950    8.0240 C.ar      1 SAM         0.0533
     26 N3          3.1700   -6.4640    7.2750 N.ar      1 SAM        -0.2714
     27 C4          3.3540   -5.2530    7.8530 C.ar      1 SAM         0.1613
     28 H          10.0402   -6.5497    2.7064 H         1 SAM         0.2010
     29 H          10.2934   -5.1619    3.5933 H         1 SAM         0.2010
     30 H           8.7423   -5.7106    3.3294 H         1 SAM         0.2010
     31 H           9.0286   -5.4153    0.9785 H         1 SAM         0.1026
     32 H           8.3975   -3.2039    1.1694 H         1 SAM         0.0385
     33 H           9.9396   -2.8162    2.1373 H         1 SAM         0.0385
     34 H           8.8620   -3.4007    4.1342 H         1 SAM         0.0843
     35 H           7.4795   -4.0723    3.3065 H         1 SAM         0.0843
     36 H           9.1572   -0.9066    4.7184 H         1 SAM         0.0803
     37 H           9.7067   -0.7396    3.0328 H         1 SAM         0.0803
     38 H           8.5515    0.4325    3.7129 H         1 SAM         0.0803
     39 H           6.1339   -0.9834    5.0594 H         1 SAM         0.0867
     40 H           7.4523   -1.9628    5.5652 H         1 SAM         0.0867
     41 H           6.3427   -3.8009    3.9302 H         1 SAM         0.0671
     42 H           4.4822   -1.6857    3.7141 H         1 SAM         0.0649
     43 H           4.1359   -4.4367    3.1486 H         1 SAM         0.2100
     44 H           3.1099   -2.1720    5.6560 H         1 SAM         0.0676
     45 H           2.7963   -4.5938    4.2087 H         1 SAM         0.2101
     46 H           4.2045   -4.9984    5.5804 H         1 SAM         0.0996
     47 H           4.1795   -2.1152    8.2474 H         1 SAM         0.1349
     48 H           2.2574   -4.9934   11.6520 H         1 SAM         0.1820
     49 H           1.7318   -6.6783   11.7305 H         1 SAM         0.1820
     50 H           2.4872   -8.4746    7.5686 H         1 SAM         0.0996
@<TRIPOS>BOND
     1    1    2 1  
     2    2    3 1  
     3    2    6 1  
     4    3    4 ar 
     5    3    5 ar 
     6    6    7 1  
     7    7    8 1  
     8    8    9 1  
     9    8   10 1  
    10   10   11 1  
    11   11   12 1  
    12   11   13 1  
    13   12   17 1  
    14   13   14 1  
    15   13   15 1  
    16   15   16 1  
    17   15   17 1  
    18   17   18 1  
    19   18   19 1  
    20   18   27 1  
    21   19   20 2  
    22   20   21 1  
    23   21   22 ar 
    24   21   27 ar 
    25   22   23 1  
    26   22   24 ar 
    27   24   25 ar 
    28   25   26 ar 
    29   26   27 ar 
    30    1   28 1  
    31    1   29 1  
    32    1   30 1  
    33    2   31 1  
    34    6   32 1  
    35    6   33 1  
    36    7   34 1  
    37    7   35 1  
    38    9   36 1  
    39    9   37 1  
    40    9   38 1  
    41   10   39 1  
    42   10   40 1  
    43   11   41 1  
    44   13   42 1  
    45   14   43 1  
    46   15   44 1  
    47   16   45 1  
    48   17   46 1  
    49   19   47 1  
    50   23   48 1  
    51   23   49 1  
    52   25   50 1  
@<TRIPOS>SUBSTRUCTURE
     1 SAM         1

