### 
### Created by X-TOOL on Mon Sep 10 21:13:05 2018
### 

@<TRIPOS>MOLECULE
3p3g_ligand
   43    44     1     0     0
SMALL
GAST_HUCK


@<TRIPOS>ATOM
      1 O01        30.1570  -12.8490  -10.7240 O.2       1 3P3        -0.3255
      2 C02        31.1870  -12.3410  -10.2330 C.2       1 3P3         0.3150
      3 N03        32.1100  -13.2220   -9.6370 N.2       1 3P3         0.0375
      4 O04        31.8090  -14.5040   -9.7010 O.2       1 3P3        -0.1732
      5 C05        31.3730  -10.8460  -10.1770 C.3       1 3P3         0.1701
      6 N06        31.3310  -10.3110  -11.5140 N.am      1 3P3        -0.2620
      7 C07        32.4590   -9.6180  -12.0740 C.2       1 3P3         0.2067
      8 O08        33.4340   -9.3370  -11.3860 O.2       1 3P3        -0.3850
      9 C09        32.2040   -9.0570  -13.4420 C.ar      1 3P3         0.0494
     10 C10        31.3640   -9.8000  -14.3140 C.ar      1 3P3        -0.0413
     11 C11        30.9820   -9.2700  -15.6290 C.ar      1 3P3        -0.0412
     12 C12        31.4940   -8.0260  -16.0290 C.ar      1 3P3         0.0297
     13 C13        32.3490   -7.2720  -15.1470 C.ar      1 3P3        -0.0412
     14 C14        32.7300   -7.7930  -13.8390 C.ar      1 3P3        -0.0413
     15 C15        31.1420   -7.4350  -17.2680 C.1       1 3P3        -0.0493
     16 C16        30.8350   -6.9150  -18.2900 C.1       1 3P3        -0.0071
     17 C17        30.4650   -6.2660  -19.4350 C.1       1 3P3        -0.0079
     18 C18        30.1350   -5.6610  -20.4080 C.1       1 3P3        -0.0515
     19 C19        29.7330   -4.9140  -21.5470 C.ar      1 3P3         0.0264
     20 C20        28.4080   -4.8610  -21.9970 C.ar      1 3P3        -0.0461
     21 C21        28.0880   -4.0980  -23.1220 C.ar      1 3P3        -0.0605
     22 C22        29.0730   -3.3610  -23.7840 C.ar      1 3P3        -0.0616
     23 C23        30.3840   -3.4060  -23.3320 C.ar      1 3P3        -0.0605
     24 C24        30.7060   -4.1730  -22.2150 C.ar      1 3P3        -0.0461
     25 C25        30.5100  -10.0670   -9.1780 C.3       1 3P3         0.0932
     26 C26        29.0330  -10.1260   -9.6170 C.3       1 3P3        -0.0345
     27 O27        30.6750  -10.6640   -7.8870 O.3       1 3P3        -0.3873
     28 H1         32.4037  -10.6962   -9.8233 H         1 3P3         0.0836
     29 H2         30.5023  -10.4238  -12.0622 H         1 3P3         0.1877
     30 H3         30.9996  -10.7727  -14.0040 H         1 3P3         0.0667
     31 H4         30.3175   -9.8287  -16.2782 H         1 3P3         0.0639
     32 H5         32.7151   -6.3012  -15.4611 H         1 3P3         0.0639
     33 H6         33.3936   -7.2354  -13.1880 H         1 3P3         0.0667
     34 H7         27.6335   -5.4103  -21.4740 H         1 3P3         0.0631
     35 H8         27.0667   -4.0774  -23.4847 H         1 3P3         0.0618
     36 H9         28.8144   -2.7571  -24.6463 H         1 3P3         0.0618
     37 H10        31.1558   -2.8455  -23.8470 H         1 3P3         0.0618
     38 H11        31.7298   -4.1939  -21.8595 H         1 3P3         0.0631
     39 H12        30.8370   -9.0173   -9.1430 H         1 3P3         0.0640
     40 H13        28.4146   -9.5667   -8.8995 H         1 3P3         0.0257
     41 H14        28.7012  -11.1743   -9.6479 H         1 3P3         0.0257
     42 H15        28.9295   -9.6790  -10.6167 H         1 3P3         0.0257
     43 H16        31.5893  -10.6189   -7.6330 H         1 3P3         0.2101
@<TRIPOS>BOND
     1    1    2 2  
     2    2    3 1  
     3    2    5 1  
     4    3    4 2  
     5    5    6 1  
     6    5   25 1  
     7    6    7 am 
     8    7    8 2  
     9    7    9 1  
    10    9   10 ar 
    11    9   14 ar 
    12   10   11 ar 
    13   11   12 ar 
    14   12   13 ar 
    15   12   15 1  
    16   13   14 ar 
    17   15   16 3  
    18   16   17 1  
    19   17   18 3  
    20   18   19 1  
    21   19   20 ar 
    22   19   24 ar 
    23   20   21 ar 
    24   21   22 ar 
    25   22   23 ar 
    26   23   24 ar 
    27   25   26 1  
    28   25   27 1  
    29    5   28 1  
    30    6   29 1  
    31   10   30 1  
    32   11   31 1  
    33   13   32 1  
    34   14   33 1  
    35   20   34 1  
    36   21   35 1  
    37   22   36 1  
    38   23   37 1  
    39   24   38 1  
    40   25   39 1  
    41   26   40 1  
    42   26   41 1  
    43   26   42 1  
    44   27   43 1  
@<TRIPOS>SUBSTRUCTURE
     1 3P3         1

