### 
### Created by X-TOOL on Mon Sep 10 21:13:05 2018
### 

@<TRIPOS>MOLECULE
3p3r_ligand
   28    29     1     0     0
SMALL
GAST_HUCK


@<TRIPOS>ATOM
      1 OAA        -1.2280    1.4440   -8.0960 O.2       1 3M1        -0.3230
      2 OAB        -1.8900    1.6250   -2.6190 O.2       1 3M1        -0.4884
      3 OAC         1.7500   -1.6200   -3.8200 O.3       1 3M1        -0.1819
      4 OAD         0.0430    0.0010   -2.2860 O.3       1 3M1        -0.1743
      5 OAE        -2.5760    2.1570   -4.7620 O.2       1 3M1        -0.4884
      6 FAF         0.2550    1.0800  -10.3730 F         1 3M1        -0.1772
      7 CAG         0.4790   -2.5440  -10.6670 C.ar      1 3M1        -0.0592
      8 CAH        -0.0420   -2.8650   -9.4430 C.ar      1 3M1        -0.0600
      9 CAI         0.5520   -1.1990  -10.9790 C.ar      1 3M1        -0.0221
     10 CAJ        -0.3910   -1.9290   -8.4910 C.ar      1 3M1        -0.0438
     11 CAK         0.7340   -0.7320   -5.8370 C.ar      1 3M1         0.1554
     12 CAL        -0.9750    0.8440   -5.6470 C.ar      1 3M1         0.1157
     13 CAM        -0.6120    0.4150   -7.7900 C.2       1 3M1         0.2339
     14 CAN         0.8540   -0.8080   -4.4170 C.ar      1 3M1         0.3811
     15 CAO         0.1660   -0.2040  -10.0550 C.ar      1 3M1         0.1533
     16 CAP         0.0260   -0.0210   -3.6480 C.ar      1 3M1         0.4072
     17 CAQ        -0.2190    0.1260   -6.3760 C.ar      1 3M1         0.1695
     18 CAR        -0.2700   -0.5900   -8.7930 C.ar      1 3M1         0.0832
     19 CAS        -0.8520    0.7840   -4.3220 C.ar      1 3M1         0.2832
     20 NAT        -1.7180    1.5600   -3.8730 N.2       1 3M1        -0.1848
     21 H1          1.6778   -1.5304   -2.8770 H         1 3M1         0.3501
     22 H2         -0.6110    0.6145   -1.9721 H         1 3M1         0.3547
     23 H3          0.8180   -3.3071  -11.3583 H         1 3M1         0.0644
     24 H4         -0.1887   -3.9130   -9.2082 H         1 3M1         0.0595
     25 H5          0.9143   -0.9015  -11.9564 H         1 3M1         0.0616
     26 H6         -0.7552   -2.2426   -7.5194 H         1 3M1         0.0659
     27 H7          1.3704   -1.3288   -6.4803 H         1 3M1         0.1075
     28 H8         -1.7117    1.4979   -6.0995 H         1 3M1         0.1567
@<TRIPOS>BOND
     1   13    1 2  
     2   20    2 2  
     3   14    3 1  
     4   16    4 1  
     5   20    5 2  
     6   15    6 1  
     7    8    7 ar 
     8    9    7 ar 
     9   10    8 ar 
    10   15    9 ar 
    11   18   10 ar 
    12   14   11 ar 
    13   17   11 ar 
    14   12   17 ar 
    15   19   12 ar 
    16   17   13 1  
    17   13   18 1  
    18   16   14 ar 
    19   18   15 ar 
    20   19   16 ar 
    21   19   20 1  
    22    3   21 1  
    23    4   22 1  
    24    7   23 1  
    25    8   24 1  
    26    9   25 1  
    27   10   26 1  
    28   11   27 1  
    29   12   28 1  
@<TRIPOS>SUBSTRUCTURE
     1 3M1         1

