### 
### Created by X-TOOL on Mon Sep 10 21:13:07 2018
### 

@<TRIPOS>MOLECULE
3p3s_ligand
   28    29     1     0     0
SMALL
GAST_HUCK


@<TRIPOS>ATOM
      1 CAA        -0.4820    2.1060   -7.9920 C.3       1 3M2         0.0500
      2 NAB        -0.4760    2.6010  -10.8100 N.pl3     1 3M2        -0.3340
      3 OAC         0.3300   -1.9800  -10.2550 O.2       1 3M2        -0.3452
      4 OAD         0.0650    0.1860   -2.2540 O.3       1 3M2        -0.2958
      5 BRAE       -1.9390    2.0000   -3.4480 Br        1 3M2        -0.0396
      6 BRAF        2.0060   -2.0010   -3.2830 Br        1 3M2        -0.0396
      7 CAG         0.0640   -0.8590   -7.6860 C.2       1 3M2         0.0761
      8 CAH        -0.8860    0.5230   -5.7780 C.ar      1 3M2        -0.0026
      9 CAI         0.7810   -1.1490   -5.5450 C.ar      1 3M2        -0.0026
     10 NAJ        -0.0500    0.1890  -11.0050 N.am      1 3M2        -0.2426
     11 CAK         0.0010    0.0030   -3.5950 C.ar      1 3M2         0.1582
     12 CAL        -0.0390   -0.4380   -6.3650 C.ar      1 3M2         0.0486
     13 CAM        -0.8480    0.7420   -4.3810 C.ar      1 3M2         0.0877
     14 CAN         0.7970   -0.9210   -4.2060 C.ar      1 3M2         0.0877
     15 CAO        -0.2770    1.3470  -10.3450 C.cat     1 3M2         0.1997
     16 CAP         0.1070   -0.7600  -10.0740 C.2       1 3M2         0.2941
     17 CAQ        -0.0420   -0.1460   -8.8370 C.2       1 3M2         0.2360
     18 NAR        -0.2670    1.1140   -9.0480 N.pl3     1 3M2        -0.2093
     19 H1         -0.6495    3.0940   -8.4457 H         1 3M2         0.0587
     20 H2          0.4040    2.1468   -7.3413 H         1 3M2         0.0587
     21 H3         -1.3619    1.8223   -7.3960 H         1 3M2         0.0587
     22 H4         -0.4831    2.7790  -11.8245 H         1 3M2         0.1766
     23 H5         -0.6205    3.3782  -10.1497 H         1 3M2         0.1766
     24 H6          0.7042   -0.4117   -1.8841 H         1 3M2         0.2727
     25 H7          0.2594   -1.9222   -7.8178 H         1 3M2         0.1118
     26 H8         -1.5673    1.0950   -6.3975 H         1 3M2         0.0882
     27 H9          1.4306   -1.9079   -5.9658 H         1 3M2         0.0882
     28 H10        -0.0076    0.0654  -11.9964 H         1 3M2         0.1830
@<TRIPOS>BOND
     1   18    1 1  
     2   15    2 ar 
     3   16    3 2  
     4   11    4 1  
     5   13    5 1  
     6   14    6 1  
     7    7   12 1  
     8   17    7 2  
     9   12    8 ar 
    10    8   13 ar 
    11   12    9 ar 
    12    9   14 ar 
    13   10   15 ar 
    14   16   10 am 
    15   13   11 ar 
    16   14   11 ar 
    17   15   18 ar 
    18   16   17 1  
    19   17   18 1  
    20    1   19 1  
    21    1   20 1  
    22    1   21 1  
    23    2   22 1  
    24    2   23 1  
    25    4   24 1  
    26    7   25 1  
    27    8   26 1  
    28    9   27 1  
    29   10   28 1  
@<TRIPOS>SUBSTRUCTURE
     1 3M2         1

