### 
### Created by X-TOOL on Mon Sep 10 21:13:05 2018
### 

@<TRIPOS>MOLECULE
3p3t_ligand
   35    36     1     0     0
SMALL
GAST_HUCK


@<TRIPOS>ATOM
      1 CAA         0.1120   -2.5970   -9.5630 C.3       1 3M3        -0.0320
      2 CAB        -0.5150    2.4550   -9.7240 C.3       1 3M3        -0.0087
      3 FAC         3.1440   -2.2510   -4.7390 F         1 3M3        -0.1902
      4 CAD         2.4880   -1.3430   -1.3160 C.ar      1 3M3        -0.0748
      5 CAE         1.2840   -0.6650   -1.4300 C.ar      1 3M3        -0.0747
      6 CAF         3.1170   -1.8890   -2.4040 C.ar      1 3M3        -0.0368
      7 CAG         0.6770   -0.5050   -2.6830 C.ar      1 3M3        -0.0346
      8 CAH         0.5670    0.3180   -6.8340 C.3       1 3M3        -0.0226
      9 CAI         0.2760    0.2750   -5.3270 C.3       1 3M3         0.0704
     10 CAJ        -0.6480   -0.0780   -7.7020 C.3       1 3M3        -0.0368
     11 NAK         0.2570   -0.6860  -11.2590 N.2       1 3M3        -0.2491
     12 NAL         0.1060    0.5650  -11.2950 N.pl3     1 3M3        -0.2367
     13 OAM         0.8430   -0.9940   -5.0320 O.3       1 3M3        -0.3177
     14 CAN         2.5320   -1.7610   -3.6340 C.ar      1 3M3         0.1595
     15 CAO         0.0240   -1.1410  -10.0150 C.2       1 3M3        -0.0055
     16 CAP        -0.2280    0.9930  -10.0720 C.2       1 3M3         0.0547
     17 CAQ         1.3410   -1.0610   -3.7660 C.ar      1 3M3         0.1246
     18 CAR        -0.2950   -0.0800   -9.1930 C.2       1 3M3        -0.0319
     19 H1         -0.1319   -2.6639   -8.4925 H         1 3M3         0.0367
     20 H2          1.1324   -2.9720   -9.7307 H         1 3M3         0.0367
     21 H3         -0.6011   -3.2039  -10.1402 H         1 3M3         0.0367
     22 H4         -0.7647    2.5354   -8.6557 H         1 3M3         0.0412
     23 H5         -1.3615    2.8160  -10.3266 H         1 3M3         0.0412
     24 H6          0.3749    3.0647   -9.9394 H         1 3M3         0.0412
     25 H7          2.9448   -1.4440   -0.3382 H         1 3M3         0.0513
     26 H8          0.8096   -0.2564   -0.5451 H         1 3M3         0.0555
     27 H9          4.0598   -2.4122   -2.2923 H         1 3M3         0.0574
     28 H10        -0.2614    0.0250   -2.7994 H         1 3M3         0.0530
     29 H11         1.3920   -0.3767   -7.0504 H         1 3M3         0.0302
     30 H12         0.8692    1.3411   -7.1023 H         1 3M3         0.0302
     31 H13        -0.8026    0.3054   -5.1133 H         1 3M3         0.0613
     32 H14         0.7802    1.0889   -4.7853 H         1 3M3         0.0613
     33 H15        -1.4615    0.6417   -7.5281 H         1 3M3         0.0323
     34 H16        -0.9814   -1.0854   -7.4122 H         1 3M3         0.0323
     35 H17         0.2208    1.1595  -12.1282 H         1 3M3         0.2446
@<TRIPOS>BOND
     1   15    1 1  
     2   16    2 1  
     3   14    3 1  
     4    5    4 ar 
     5    6    4 ar 
     6    7    5 ar 
     7   14    6 ar 
     8   17    7 ar 
     9    8    9 1  
    10   10    8 1  
    11    9   13 1  
    12   18   10 1  
    13   11   12 1  
    14   15   11 2  
    15   12   16 1  
    16   13   17 1  
    17   17   14 ar 
    18   15   18 1  
    19   16   18 2  
    20    1   19 1  
    21    1   20 1  
    22    1   21 1  
    23    2   22 1  
    24    2   23 1  
    25    2   24 1  
    26    4   25 1  
    27    5   26 1  
    28    6   27 1  
    29    7   28 1  
    30    8   29 1  
    31    8   30 1  
    32    9   31 1  
    33    9   32 1  
    34   10   33 1  
    35   10   34 1  
    36   12   35 1  
@<TRIPOS>SUBSTRUCTURE
     1 3M3         1

