### 
### Created by X-TOOL on Mon Sep 10 21:13:05 2018
### 

@<TRIPOS>MOLECULE
3p3u_ligand
   33    35     1     0     0
SMALL
GAST_HUCK


@<TRIPOS>ATOM
      1 CAA         3.1670   -2.3870   -3.0100 C.3       1 3M4        -0.0368
      2 CAB        -1.0650    1.0220   -1.1220 C.ar      1 3M4        -0.0662
      3 CAC        -1.7560    1.6100   -2.1770 C.ar      1 3M4        -0.0673
      4 CAD        -0.1800    2.9570   -9.7420 C.ar      1 3M4         0.0098
      5 CAE        -1.2610    1.0740  -10.2090 C.ar      1 3M4         0.0098
      6 CAF        -0.0530    0.1100   -1.3570 C.ar      1 3M4        -0.0265
      7 CAG        -1.3610    1.2390   -3.4590 C.ar      1 3M4        -0.0506
      8 CAH         0.1510    2.3180   -8.5460 C.ar      1 3M4        -0.0259
      9 CAI        -0.9470    0.3080   -9.0840 C.ar      1 3M4        -0.0259
     10 CAJ         2.0950   -1.5740   -3.8100 C.3       1 3M4         0.0698
     11 NAK        -0.8650    2.3020  -10.5790 N.ar      1 3M4        -0.2994
     12 NAL         0.4290   -0.9010   -6.8500 N.2       1 3M4        -0.1065
     13 NAM        -0.3490    0.9240   -5.9370 N.2       1 3M4        -0.2644
     14 OAN         1.3380   -1.1360   -2.7130 O.3       1 3M4        -0.3118
     15 OAO         0.3940   -1.1020   -5.4940 O.3       1 3M4        -0.1312
     16 CAP        -0.2070    1.0210   -8.2150 C.ar      1 3M4         0.0223
     17 CAQ         0.3410   -0.2360   -2.6300 C.ar      1 3M4         0.1136
     18 CAR         0.0210    0.3560   -7.0490 C.2       1 3M4         0.1297
     19 CAS        -0.3360    0.3440   -3.6750 C.ar      1 3M4         0.0809
     20 CAT        -0.0810    0.0720   -4.9860 C.2       1 3M4         0.2362
     21 H1          3.8880   -2.8323   -3.7113 H         1 3M4         0.0256
     22 H2          2.6706   -3.1851   -2.4385 H         1 3M4         0.0256
     23 H3          3.6958   -1.7150   -2.3181 H         1 3M4         0.0256
     24 H4         -1.3237    1.2826   -0.1021 H         1 3M4         0.0623
     25 H5         -2.5588    2.3189   -2.0094 H         1 3M4         0.0538
     26 H6          0.1373    3.9735   -9.9450 H         1 3M4         0.0818
     27 H7         -1.9418    0.5941  -10.9028 H         1 3M4         0.0818
     28 H8          0.4468   -0.3478   -0.5110 H         1 3M4         0.0554
     29 H9         -1.8748    1.6667   -4.3124 H         1 3M4         0.0634
     30 H10         0.7315    2.8783   -7.8220 H         1 3M4         0.0711
     31 H11        -1.2568   -0.7196   -8.9318 H         1 3M4         0.0711
     32 H12         1.5124   -2.2092   -4.4934 H         1 3M4         0.0616
     33 H13         2.5375   -0.7390   -4.3730 H         1 3M4         0.0616
@<TRIPOS>BOND
     1   10    1 1  
     2    3    2 ar 
     3    6    2 ar 
     4    7    3 ar 
     5    8    4 ar 
     6    4   11 ar 
     7    9    5 ar 
     8    5   11 ar 
     9   17    6 ar 
    10   19    7 ar 
    11   16    8 ar 
    12   16    9 ar 
    13   14   10 1  
    14   15   12 1  
    15   12   18 2  
    16   13   18 1  
    17   20   13 2  
    18   17   14 1  
    19   20   15 1  
    20   18   16 1  
    21   19   17 ar 
    22   19   20 1  
    23    1   21 1  
    24    1   22 1  
    25    1   23 1  
    26    2   24 1  
    27    3   25 1  
    28    4   26 1  
    29    5   27 1  
    30    6   28 1  
    31    7   29 1  
    32    8   30 1  
    33    9   31 1  
    34   10   32 1  
    35   10   33 1  
@<TRIPOS>SUBSTRUCTURE
     1 3M4         1

