### 
### Created by X-TOOL on Mon Sep 10 21:13:04 2018
### 

@<TRIPOS>MOLECULE
3p4q_ligand
   11    10     1     0     0
SMALL
GAST_HUCK


@<TRIPOS>ATOM
      1 O1         15.6760   36.8710  -13.6930 O.co2     1 OAA        -0.5660
      2 O2         16.9950   35.3040  -12.6510 O.co2     1 OAA        -0.5660
      3 O4         18.3400   36.8380  -18.0120 O.co2     1 OAA        -0.5464
      4 O5         17.2100   38.5390  -16.9820 O.co2     1 OAA        -0.5464
      5 O3         15.7400   35.7070  -16.3680 O.2       1 OAA        -0.3553
      6 C1         16.7150   36.0640  -13.6820 C.2       1 OAA         0.0534
      7 C2         17.6430   35.9930  -14.8640 C.3       1 OAA         0.0832
      8 C3         16.8880   36.2850  -16.1300 C.2       1 OAA         0.1844
      9 C4         17.5130   37.2710  -17.0900 C.2       1 OAA         0.1266
     10 H          18.0700   34.9920  -14.9245 H         1 OAA         0.0662
     11 H          18.4360   36.7308  -14.7416 H         1 OAA         0.0662
@<TRIPOS>BOND
     1    6    1 ar 
     2    6    2 ar 
     3    9    3 ar 
     4    9    4 ar 
     5    8    5 2  
     6    7    6 1  
     7    8    7 1  
     8    8    9 1  
     9    7   10 1  
    10    7   11 1  
@<TRIPOS>SUBSTRUCTURE
     1 OAA         1

