### 
### Created by X-TOOL on Mon Sep 10 21:13:04 2018
### 

@<TRIPOS>MOLECULE
3p4r_ligand
   15    14     1     0     0
SMALL
GAST_HUCK


@<TRIPOS>ATOM
      1 C1         15.4350   34.9710  -13.4320 C.2       1 GUA         0.0349
      2 C2         15.8310   36.4410  -13.3820 C.3       1 GUA         0.0017
      3 C3         15.5340   37.1830  -14.6770 C.3       1 GUA        -0.0298
      4 C4         16.2550   36.5290  -15.8530 C.3       1 GUA         0.0017
      5 C5         16.4400   37.5170  -16.9830 C.2       1 GUA         0.0349
      6 O1         14.3030   34.6430  -13.8810 O.co2     1 GUA        -0.5690
      7 O2         16.2580   34.1310  -12.9850 O.co2     1 GUA        -0.5690
      8 O3         16.1770   38.7230  -16.8140 O.co2     1 GUA        -0.5690
      9 O4         16.8570   37.0960  -18.0780 O.co2     1 GUA        -0.5690
     10 H          16.9066   36.4889  -13.2118 H         1 GUA         0.0431
     11 H          15.2515   36.9135  -12.5889 H         1 GUA         0.0431
     12 H          15.8803   38.2120  -14.5802 H         1 GUA         0.0300
     13 H          14.4602   37.1524  -14.8617 H         1 GUA         0.0300
     14 H          15.6565   35.6916  -16.2116 H         1 GUA         0.0431
     15 H          17.2349   36.1874  -15.5196 H         1 GUA         0.0431
@<TRIPOS>BOND
     1    1    2 1  
     2    1    6 ar 
     3    1    7 ar 
     4    2    3 1  
     5    3    4 1  
     6    4    5 1  
     7    5    8 ar 
     8    5    9 ar 
     9    2   10 1  
    10    2   11 1  
    11    3   12 1  
    12    3   13 1  
    13    4   14 1  
    14    4   15 1  
@<TRIPOS>SUBSTRUCTURE
     1 GUA         1

