### 
### Created by X-TOOL on Mon Sep 10 21:13:05 2018
### 

@<TRIPOS>MOLECULE
3p4v_ligand
   35    35     1     0     0
SMALL
GAST_HUCK


@<TRIPOS>ATOM
      1 C          17.2030    5.8910   10.7410 C.2       1 PMX         0.0618
      2 N          17.7600    5.8990   13.1530 N.am      1 PMX        -0.2684
      3 O          17.1860    4.6670   10.7390 O.co2     1 PMX        -0.5665
      4 CL         18.8440   12.5130   12.2970 Cl        1 PMX        -0.0805
      5 CA         17.7150    6.6690   11.9200 C.3       1 PMX         0.1020
      6 CB         19.0160    7.4160   11.6430 C.3       1 PMX         0.0108
      7 CG         19.3270    8.6310   12.5030 C.ar      1 PMX        -0.0493
      8 OAA        15.5140    6.1210   13.6470 O.2       1 PMX        -0.3806
      9 CAC        20.3140    9.6950   14.6370 C.ar      1 PMX        -0.0390
     10 CAD        15.5870    4.3200   15.5060 C.2       1 PMX         0.0452
     11 CAE        16.6530    4.6740   14.9560 C.2       1 PMX         0.0347
     12 CAF        16.5790    5.5950   13.9220 C.2       1 PMX         0.2088
     13 CAK        19.9200   11.0340   14.1140 C.ar      1 PMX         0.0949
     14 OAL        20.1980   12.1780   14.8460 O.3       1 PMX        -0.3367
     15 OAM        16.7660    2.9910   17.1030 O.2       1 PMX        -0.3530
     16 CAN        15.6490    3.3560   16.6560 C.2       1 PMX         0.2645
     17 CAS        19.2470   11.1610   12.8130 C.ar      1 PMX         0.0613
     18 OAU        14.5670    2.8620   17.1050 O.3       1 PMX        -0.2805
     19 CAV        14.5490    2.1570   18.3050 C.3       1 PMX         0.0645
     20 CD1        18.9550    9.9270   12.0080 C.ar      1 PMX        -0.0546
     21 CD2        20.0260    8.4970   13.8490 C.ar      1 PMX        -0.0683
     22 OXT        16.6770    6.5580    9.6600 O.co2     1 PMX        -0.5665
     23 H1         18.6449    5.5674   13.4802 H         1 PMX         0.1869
     24 H2         16.9628    7.4523   12.0948 H         1 PMX         0.0746
     25 H3         18.9857    7.7528   10.5963 H         1 PMX         0.0446
     26 H4         19.8409    6.7002   11.7742 H         1 PMX         0.0446
     27 H5         20.8114    9.6096   15.5964 H         1 PMX         0.0525
     28 H6         14.6298    4.7044   15.1569 H         1 PMX         0.0837
     29 H7         17.6114    4.2707   15.2797 H         1 PMX         0.0834
     30 H8         19.8826   12.9394   14.3735 H         1 PMX         0.2462
     31 H9         13.5245    1.8154   18.5142 H         1 PMX         0.0574
     32 H10        14.8908    2.8118   19.1201 H         1 PMX         0.0574
     33 H11        15.2173    1.2866   18.2290 H         1 PMX         0.0574
     34 H12        18.4604   10.0151   11.0474 H         1 PMX         0.0535
     35 H13        20.3087    7.5189   14.2212 H         1 PMX         0.0532
@<TRIPOS>BOND
     1    1    3 ar 
     2    5    1 1  
     3    1   22 ar 
     4    5    2 1  
     5    2   12 am 
     6   17    4 1  
     7    6    5 1  
     8    7    6 1  
     9    7   20 ar 
    10   21    7 ar 
    11   12    8 2  
    12   13    9 ar 
    13    9   21 ar 
    14   11   10 2  
    15   10   16 1  
    16   12   11 1  
    17   13   14 1  
    18   13   17 ar 
    19   16   15 2  
    20   16   18 1  
    21   17   20 ar 
    22   18   19 1  
    23    2   23 1  
    24    5   24 1  
    25    6   25 1  
    26    6   26 1  
    27    9   27 1  
    28   10   28 1  
    29   11   29 1  
    30   14   30 1  
    31   19   31 1  
    32   19   32 1  
    33   19   33 1  
    34   20   34 1  
    35   21   35 1  
@<TRIPOS>SUBSTRUCTURE
     1 PMX         1

