### 
### Created by X-TOOL on Mon Sep 10 21:13:06 2018
### 

@<TRIPOS>MOLECULE
3p4w_ligand
   12    11     1     0     0
SMALL
GAST_HUCK


@<TRIPOS>ATOM
      1 FAA        47.9420   -6.1330   45.6450 F         1 DSF        -0.1782
      2 FAB        47.7900   -7.4350   47.2700 F         1 DSF        -0.1782
      3 FAC        46.6950   -9.6200   46.6550 F         1 DSF        -0.2047
      4 FAD        47.5090  -10.8990   44.2870 F         1 DSF        -0.1654
      5 FAE        45.4140  -10.6000   44.7540 F         1 DSF        -0.1654
      6 FAF        46.3760   -9.4190   43.2650 F         1 DSF        -0.1654
      7 OAG        46.3560   -7.7050   45.4630 O.3       1 DSF        -0.2800
      8 CAH        47.0320   -6.8040   46.3540 C.3       1 DSF         0.3491
      9 CAI        46.9960   -8.9940   45.5070 C.3       1 DSF         0.2999
     10 CAJ        46.5600  -10.0040   44.4340 C.3       1 DSF         0.4461
     11 H          46.2529   -6.2070   46.8280 H         1 DSF         0.1361
     12 H          48.0472   -8.7418   45.3671 H         1 DSF         0.1061
@<TRIPOS>BOND
     1    8    1 1  
     2    8    2 1  
     3    9    3 1  
     4   10    4 1  
     5   10    5 1  
     6   10    6 1  
     7    7    8 1  
     8    9    7 1  
     9    9   10 1  
    10    8   11 1  
    11    9   12 1  
@<TRIPOS>SUBSTRUCTURE
     1 DSF         1

