### 
### Created by X-TOOL on Mon Sep 10 21:13:06 2018
### 

@<TRIPOS>MOLECULE
3p50_ligand
   31    31     1     0     0
SMALL
GAST_HUCK


@<TRIPOS>ATOM
      1 O1         45.7150   -4.8190   48.0680 O.3       1 PFL        -0.3409
      2 C1         46.3200   -5.7830   48.8200 C.ar      1 PFL         0.0909
      3 C2         46.2500   -5.5670   50.2700 C.ar      1 PFL        -0.0179
      4 C6         46.9960   -6.9640   48.2350 C.ar      1 PFL        -0.0179
      5 C3         46.8760   -6.5780   51.1200 C.ar      1 PFL        -0.0754
      6 C7         45.4990   -4.3040   50.8530 C.3       1 PFL        -0.0166
      7 C4         47.5320   -7.7280   50.5660 C.ar      1 PFL        -0.0861
      8 C5         47.5860   -7.9100   49.1520 C.ar      1 PFL        -0.0754
      9 C10        47.1010   -7.2090   46.7120 C.3       1 PFL        -0.0166
     10 C8         43.9410   -4.3900   50.4920 C.3       1 PFL        -0.0546
     11 C9         45.7690   -4.1510   52.3500 C.3       1 PFL        -0.0546
     12 C11        47.0330   -8.6620   46.4380 C.3       1 PFL        -0.0546
     13 C12        46.0450   -6.5800   45.8470 C.3       1 PFL        -0.0546
     14 H          46.1302   -3.9712   48.2424 H         1 PFL         0.2430
     15 H          46.8438   -6.4553   52.2026 H         1 PFL         0.0471
     16 H          45.8861   -3.3969   50.3889 H         1 PFL         0.0431
     17 H          47.9899   -8.4639   51.2269 H         1 PFL         0.0489
     18 H          48.0883   -8.7906   48.7517 H         1 PFL         0.0471
     19 H          48.0493   -6.7390   46.4514 H         1 PFL         0.0431
     20 H          43.5000   -5.2511   50.9941 H         1 PFL         0.0252
     21 H          43.4417   -3.4795   50.8235 H         1 PFL         0.0252
     22 H          43.8246   -4.4976   49.4136 H         1 PFL         0.0252
     23 H          45.2981   -3.2367   52.7112 H         1 PFL         0.0252
     24 H          45.3564   -5.0083   52.8818 H         1 PFL         0.0252
     25 H          46.8443   -4.0992   52.5205 H         1 PFL         0.0252
     26 H          46.0400   -9.0324   46.6926 H         1 PFL         0.0252
     27 H          47.2288   -8.8406   45.3807 H         1 PFL         0.0252
     28 H          47.7804   -9.1793   47.0397 H         1 PFL         0.0252
     29 H          46.2584   -6.7962   44.8002 H         1 PFL         0.0252
     30 H          45.0696   -6.9879   46.1121 H         1 PFL         0.0252
     31 H          46.0439   -5.5013   46.0037 H         1 PFL         0.0252
@<TRIPOS>BOND
     1    1    2 1  
     2    2    3 ar 
     3    2    4 ar 
     4    3    5 ar 
     5    3    6 1  
     6    4    8 ar 
     7    4    9 1  
     8    5    7 ar 
     9    6   10 1  
    10    6   11 1  
    11    7    8 ar 
    12    9   12 1  
    13    9   13 1  
    14    1   14 1  
    15    5   15 1  
    16    6   16 1  
    17    7   17 1  
    18    8   18 1  
    19    9   19 1  
    20   10   20 1  
    21   10   21 1  
    22   10   22 1  
    23   11   23 1  
    24   11   24 1  
    25   11   25 1  
    26   12   26 1  
    27   12   27 1  
    28   12   28 1  
    29   13   29 1  
    30   13   30 1  
    31   13   31 1  
@<TRIPOS>SUBSTRUCTURE
     1 PFL         1

