### 
### Created by X-TOOL on Mon Sep 10 21:13:05 2018
### 

@<TRIPOS>MOLECULE
3p58_ligand
   23    23     1     0     0
SMALL
GAST_HUCK


@<TRIPOS>ATOM
      1 CAA        -6.0560    3.8860   15.0950 C.3       1 P58         0.0318
      2 SAB        -7.3050    1.7730   16.8420 S.2       1 P58        -0.2718
      3 SAC        -4.9680    0.0320   16.2240 S.3       1 P58        -0.0655
      4 CAD        -4.8820    1.1590   10.4940 C.ar      1 P58        -0.0687
      5 CAE        -4.7370    2.5580   10.7550 C.ar      1 P58        -0.0685
      6 CAF        -4.6980    0.2420   11.5640 C.ar      1 P58        -0.0685
      7 CAG        -4.4700    3.0050   12.0660 C.ar      1 P58        -0.0582
      8 CAH        -4.4200    0.6900   12.8780 C.ar      1 P58        -0.0582
      9 CAI        -4.0060    2.4630   14.5590 C.3       1 P58         0.0740
     10 CAJ        -5.6820    1.6540   16.2110 C.2       1 P58         0.1186
     11 CAK        -4.2880    2.0620   13.1080 C.ar      1 P58        -0.0183
     12 NAL        -5.2840    2.6460   15.2760 N.am      1 P58        -0.2651
     13 H1         -5.5741    4.5091   14.3272 H         1 P58         0.0517
     14 H2         -6.0916    4.4379   16.0459 H         1 P58         0.0517
     15 H3         -7.0792    3.6378   14.7766 H         1 P58         0.0517
     16 H4         -4.9286   -0.3089   17.1718 H         1 P58         0.1329
     17 H5         -5.1275    0.8051    9.4992 H         1 P58         0.0559
     18 H6         -4.8322    3.2737    9.9464 H         1 P58         0.0599
     19 H7         -4.7720   -0.8220   11.3702 H         1 P58         0.0599
     20 H8         -4.4042    4.0665   12.2757 H         1 P58         0.0557
     21 H9         -4.3115   -0.0186   13.6911 H         1 P58         0.0557
     22 H10        -3.4382    3.4050   14.5754 H         1 P58         0.0715
     23 H11        -3.4197    1.6727   15.0506 H         1 P58         0.0715
@<TRIPOS>BOND
     1   12    1 1  
     2   10    2 2  
     3   10    3 1  
     4    5    4 ar 
     5    6    4 ar 
     6    7    5 ar 
     7    8    6 ar 
     8   11    7 ar 
     9   11    8 ar 
    10    9   11 1  
    11   12    9 1  
    12   10   12 am 
    13    1   13 1  
    14    1   14 1  
    15    1   15 1  
    16    3   16 1  
    17    4   17 1  
    18    5   18 1  
    19    6   19 1  
    20    7   20 1  
    21    8   21 1  
    22    9   22 1  
    23    9   23 1  
@<TRIPOS>SUBSTRUCTURE
     1 P58         1

