### 
### Created by X-TOOL on Mon Sep 10 21:13:07 2018
### 

@<TRIPOS>MOLECULE
3p5k_ligand
   60    63     1     0     0
SMALL
GAST_HUCK


@<TRIPOS>ATOM
      1 C1         49.3880   27.3340  -16.9430 C.2       1 P5K        -0.0200
      2 C2         50.5990   28.0370  -16.7650 C.2       1 P5K         0.1372
      3 C3         51.0900   28.6110  -17.9580 C.2       1 P5K         0.2305
      4 S4         49.8890   28.2890  -19.2010 S.3       1 P5K         0.0325
      5 C5         48.8690   27.3240  -18.2260 C.2       1 P5K        -0.0299
      6 C6         47.6130   26.7320  -18.8380 C.3       1 P5K        -0.1036
      7 C7         46.7920   27.6530  -19.7150 C.3       1 P5K        -0.1250
      8 C8         46.6810   26.4300  -17.6890 C.3       1 P5K        -0.1250
      9 C9         47.9830   25.5890  -19.7590 C.3       1 P5K        -0.1250
     10 N10        52.2150   29.3510  -18.0840 N.am      1 P5K        -0.1438
     11 C11        51.3610   28.1210  -15.4400 C.2       1 P5K         0.2071
     12 O12        51.7330   27.1250  -14.9560 O.2       1 P5K        -0.3948
     13 N13        51.6840   29.1810  -14.6680 N.am      1 P5K        -0.2720
     14 C14        52.4040   30.2800  -19.0430 C.2       1 P5K         0.3600
     15 N15        53.5330   30.9340  -19.1790 N.am      1 P5K        -0.2012
     16 O16        51.4070   30.5020  -19.8670 O.2       1 P5K        -0.3618
     17 C17        53.8130   32.0040  -20.0030 C.ar      1 P5K         0.0830
     18 C18        53.0070   33.1390  -19.9120 C.ar      1 P5K        -0.0433
     19 C19        53.2620   34.2450  -20.7690 C.ar      1 P5K        -0.0814
     20 C20        54.3470   34.2030  -21.6480 C.ar      1 P5K        -0.0745
     21 C21        55.1640   33.0310  -21.7770 C.ar      1 P5K        -0.0314
     22 C22        54.9140   31.9640  -20.9390 C.ar      1 P5K         0.0115
     23 C23        51.5570   30.5840  -15.1010 C.3       1 P5K         0.0522
     24 C24        52.2430   28.9240  -13.2770 C.3       1 P5K         0.0522
     25 C25        56.2190   33.0240  -22.7030 C.ar      1 P5K        -0.0608
     26 C26        57.0840   31.9300  -22.8490 C.ar      1 P5K        -0.0655
     27 C27        56.8120   30.8400  -22.0120 C.ar      1 P5K        -0.0647
     28 C28        55.7620   30.8460  -21.0780 C.ar      1 P5K        -0.0551
     29 C29        50.7450   31.3280  -14.0140 C.3       1 P5K         0.0860
     30 C30        51.5150   29.6600  -12.1260 C.3       1 P5K         0.0860
     31 S31        51.6540   31.3010  -12.5320 S.o2      1 P5K        -0.0273
     32 O32        50.6480   32.4090  -11.6980 O.2       1 P5K        -0.1742
     33 O33        53.0380   31.9310  -13.2860 O.2       1 P5K        -0.1742
     34 H          48.8896   26.8275  -16.1165 H         1 P5K         0.0931
     35 H          45.8872   27.1365  -20.0353 H         1 P5K         0.0007
     36 H          46.5219   28.5452  -19.1501 H         1 P5K         0.0007
     37 H          47.3778   27.9381  -20.5889 H         1 P5K         0.0007
     38 H          46.4144   27.3591  -17.1853 H         1 P5K         0.0007
     39 H          45.7796   25.9504  -18.0704 H         1 P5K         0.0007
     40 H          47.1786   25.7633  -16.9848 H         1 P5K         0.0007
     41 H          47.0747   25.1096  -20.1240 H         1 P5K         0.0007
     42 H          48.5560   25.9745  -20.6023 H         1 P5K         0.0007
     43 H          48.5838   24.8628  -19.2115 H         1 P5K         0.0007
     44 H          52.9669   29.1969  -17.4122 H         1 P5K         0.2757
     45 H          54.3059   30.6081  -18.5987 H         1 P5K         0.2330
     46 H          52.1901   33.1778  -19.1914 H         1 P5K         0.0442
     47 H          52.6141   35.1211  -20.7401 H         1 P5K         0.0565
     48 H          54.5783   35.0817  -22.2501 H         1 P5K         0.0440
     49 H          51.0517   30.6435  -16.0650 H         1 P5K         0.0537
     50 H          52.5404   31.0381  -15.2230 H         1 P5K         0.0537
     51 H          53.2701   29.2888  -13.2808 H         1 P5K         0.0537
     52 H          52.1291   27.8568  -13.0868 H         1 P5K         0.0537
     53 H          56.3714   33.9013  -23.3317 H         1 P5K         0.0587
     54 H          57.9084   31.9278  -23.5621 H         1 P5K         0.0611
     55 H          57.4396   29.9521  -22.0882 H         1 P5K         0.0578
     56 H          55.6001   29.9703  -20.4494 H         1 P5K         0.0629
     57 H          49.7818   30.8389  -13.8689 H         1 P5K         0.0520
     58 H          50.5664   32.3581  -14.3225 H         1 P5K         0.0520
     59 H          51.9523   29.4376  -11.1527 H         1 P5K         0.0520
     60 H          50.4758   29.3461  -12.0280 H         1 P5K         0.0520
@<TRIPOS>BOND
     1    1    2 1  
     2    1    5 2  
     3    2    3 2  
     4    2   11 1  
     5    3    4 1  
     6    3   10 1  
     7    4    5 1  
     8    5    6 1  
     9    6    7 1  
    10    6    8 1  
    11    6    9 1  
    12   10   14 am 
    13   11   12 2  
    14   11   13 am 
    15   13   23 1  
    16   13   24 1  
    17   14   15 am 
    18   14   16 2  
    19   15   17 1  
    20   17   18 ar 
    21   17   22 ar 
    22   18   19 ar 
    23   19   20 ar 
    24   20   21 ar 
    25   21   22 ar 
    26   21   25 ar 
    27   22   28 ar 
    28   23   29 1  
    29   24   30 1  
    30   25   26 ar 
    31   26   27 ar 
    32   27   28 ar 
    33   29   31 1  
    34   30   31 1  
    35   31   32 2  
    36   31   33 2  
    37    1   34 1  
    38    7   35 1  
    39    7   36 1  
    40    7   37 1  
    41    8   38 1  
    42    8   39 1  
    43    8   40 1  
    44    9   41 1  
    45    9   42 1  
    46    9   43 1  
    47   10   44 1  
    48   15   45 1  
    49   18   46 1  
    50   19   47 1  
    51   20   48 1  
    52   23   49 1  
    53   23   50 1  
    54   24   51 1  
    55   24   52 1  
    56   25   53 1  
    57   26   54 1  
    58   27   55 1  
    59   28   56 1  
    60   29   57 1  
    61   29   58 1  
    62   30   59 1  
    63   30   60 1  
@<TRIPOS>SUBSTRUCTURE
     1 P5K         1

