### 
### Created by X-TOOL on Mon Sep 10 21:13:05 2018
### 

@<TRIPOS>MOLECULE
3p5l_ligand
   31    32     1     0     0
SMALL
GAST_HUCK


@<TRIPOS>ATOM
      1 N11        -4.6910    4.1960   10.8940 N.1       1 IT5        -0.3138
      2 N22        -5.2930    2.5690   14.8150 N.am      1 IT5        -0.2746
      3 SAB        -4.9140    0.1470   15.9500 S.2       1 IT5        -0.2719
      4 SAC        -7.2240    1.8800   16.6470 S.3       1 IT5        -0.0657
      5 CAD        -4.4160    4.3790   11.9910 C.1       1 IT5         0.0575
      6 CAE        -1.1950    7.9350   13.6880 C.ar      1 IT5        -0.0340
      7 CAF        -1.0450    6.9260   12.6740 C.ar      1 IT5        -0.0323
      8 CAG        -2.2550    7.8440   14.6250 C.ar      1 IT5        -0.0323
      9 CAH        -1.9570    5.8840   12.6210 C.ar      1 IT5        -0.0373
     10 CAI        -3.1830    6.7990   14.5820 C.ar      1 IT5        -0.0373
     11 CAJ        -6.1170    3.7260   14.4730 C.3       1 IT5         0.0359
     12 CAK        -4.2210    2.2350   13.9030 C.3       1 IT5         0.0359
     13 CAL        -5.2580    4.9220   14.2010 C.3       1 IT5        -0.0242
     14 CAM        -3.3410    3.4160   13.9020 C.3       1 IT5        -0.0242
     15 CAN        -5.6800    1.7120   15.8590 C.2       1 IT5         0.1170
     16 CAO        -3.0460    5.8060   13.5610 C.ar      1 IT5        -0.0214
     17 CAQ        -4.0430    4.6290   13.4630 C.3       1 IT5         0.0899
     18 H1         -7.5615    2.8219   16.5248 H         1 IT5         0.1329
     19 H2         -0.4983    8.7641   13.7357 H         1 IT5         0.0856
     20 H3         -0.2300    6.9799   11.9613 H         1 IT5         0.0698
     21 H4         -2.3483    8.6029   15.3934 H         1 IT5         0.0698
     22 H5         -1.8496    5.1174   11.8622 H         1 IT5         0.0851
     23 H6         -3.9880    6.7424   15.3058 H         1 IT5         0.0851
     24 H7         -6.7927    3.9494   15.3117 H         1 IT5         0.0544
     25 H8         -6.7100    3.4951   13.5758 H         1 IT5         0.0544
     26 H9         -4.6162    2.0463   12.8940 H         1 IT5         0.0544
     27 H10        -3.6760    1.3469   14.2553 H         1 IT5         0.0544
     28 H11        -4.9759    5.3700   15.1652 H         1 IT5         0.0217
     29 H12        -5.8484    5.6452   13.6193 H         1 IT5         0.0217
     30 H13        -2.4973    3.2289   13.2215 H         1 IT5         0.0217
     31 H14        -2.9610    3.5759   14.9218 H         1 IT5         0.0217
@<TRIPOS>BOND
     1    5    1 3  
     2   11    2 1  
     3   12    2 1  
     4    2   15 am 
     5   15    3 2  
     6   15    4 1  
     7   17    5 1  
     8    7    6 ar 
     9    8    6 ar 
    10    9    7 ar 
    11   10    8 ar 
    12   16    9 ar 
    13   16   10 ar 
    14   13   11 1  
    15   14   12 1  
    16   17   13 1  
    17   17   14 1  
    18   16   17 1  
    19    4   18 1  
    20    6   19 1  
    21    7   20 1  
    22    8   21 1  
    23    9   22 1  
    24   10   23 1  
    25   11   24 1  
    26   11   25 1  
    27   12   26 1  
    28   12   27 1  
    29   13   28 1  
    30   13   29 1  
    31   14   30 1  
    32   14   31 1  
@<TRIPOS>SUBSTRUCTURE
     1 IT5         1

