### 
### Created by X-TOOL on Mon Sep 10 21:13:02 2018
### 

@<TRIPOS>MOLECULE
3p5o_ligand
   52    55     1     0     0
SMALL
GAST_HUCK


@<TRIPOS>ATOM
      1 CL         30.0640   48.5180   -7.0500 Cl        1 EAM        -0.0644
      2 C10        29.0760   49.1150   -5.7480 C.ar      1 EAM         0.0473
      3 C9         29.4380   48.8300   -4.4430 C.ar      1 EAM        -0.0402
      4 C8         28.6500   49.2820   -3.4020 C.ar      1 EAM        -0.0429
      5 C11        27.9370   49.8640   -6.0320 C.ar      1 EAM        -0.0402
      6 C12        27.1490   50.3230   -4.9760 C.ar      1 EAM        -0.0429
      7 C7         27.5180   50.0660   -3.6500 C.ar      1 EAM         0.0138
      8 C6         26.6630   50.4900   -2.5010 C.2       1 EAM         0.0506
      9 N2         25.4340   50.7350   -2.8010 N.2       1 EAM        -0.3205
     10 C13        27.2720   50.4370   -1.1350 C.ar      1 EAM         0.0423
     11 C19        26.5010   50.1460   -0.0080 C.ar      1 EAM         0.1139
     12 C18        26.9420   50.5620    1.2500 C.ar      1 EAM        -0.0261
     13 C17        28.1760   51.1830    1.4220 C.ar      1 EAM        -0.0299
     14 C15        28.9860   51.4230    0.3120 C.ar      1 EAM         0.0910
     15 O2         30.2210   52.0450    0.4010 O.3       1 EAM        -0.3243
     16 C16        30.8290   52.2390    1.6800 C.3       1 EAM         0.0580
     17 C14        28.5320   51.0310   -0.9440 C.ar      1 EAM        -0.0185
     18 N3         25.1990   49.5540   -0.0700 N.pl3     1 EAM        -0.1675
     19 C22        24.1840   50.0970   -0.8260 C.2       1 EAM         0.1599
     20 N5         23.0880   49.3970   -0.6560 N.2       1 EAM        -0.2799
     21 N4         23.3830   48.3730    0.2570 N.2       1 EAM        -0.2812
     22 C20        24.6440   48.4840    0.5990 C.2       1 EAM         0.1412
     23 C21        25.3360   47.5810    1.5530 C.3       1 EAM         0.0163
     24 C5         24.5290   51.2470   -1.7650 C.3       1 EAM         0.1085
     25 C4         23.2930   51.7520   -2.5170 C.3       1 EAM         0.0654
     26 C3         23.6190   52.9410   -3.4060 C.2       1 EAM         0.1795
     27 O1         24.6110   53.6270   -3.1960 O.2       1 EAM        -0.3968
     28 N1         22.7760   53.2000   -4.4070 N.am      1 EAM        -0.2870
     29 C2         23.0040   54.3190   -5.3120 C.3       1 EAM         0.0281
     30 C1         21.7710   54.6940   -6.1080 C.3       1 EAM        -0.0449
     31 H1         30.3344   48.2556   -4.2388 H         1 EAM         0.0640
     32 H2         28.9117   49.0263   -2.3816 H         1 EAM         0.0683
     33 H3         27.6667   50.0871   -7.0578 H         1 EAM         0.0640
     34 H4         26.2443   50.8828   -5.1837 H         1 EAM         0.0683
     35 H5         26.3080   50.3973    2.1137 H         1 EAM         0.0575
     36 H6         28.5052   51.4780    2.4118 H         1 EAM         0.0587
     37 H7         31.7975   52.7447    1.5526 H         1 EAM         0.0574
     38 H8         30.9856   51.2634    2.1634 H         1 EAM         0.0574
     39 H9         30.1719   52.8583    2.3083 H         1 EAM         0.0574
     40 H10        29.1719   51.1891   -1.8046 H         1 EAM         0.0583
     41 H11        24.6278   46.8238    1.9206 H         1 EAM         0.0468
     42 H12        25.7186   48.1675    2.4013 H         1 EAM         0.0468
     43 H13        26.1741   47.0826    1.0440 H         1 EAM         0.0468
     44 H14        24.9960   52.0663   -1.1987 H         1 EAM         0.0681
     45 H15        22.5296   52.0538   -1.7849 H         1 EAM         0.0542
     46 H16        22.8994   50.9373   -3.1425 H         1 EAM         0.0542
     47 H17        21.9745   52.6166   -4.5384 H         1 EAM         0.1850
     48 H18        23.8051   54.0449   -6.0142 H         1 EAM         0.0517
     49 H19        23.3180   55.1911   -4.7197 H         1 EAM         0.0517
     50 H20        22.0053   55.5409   -6.7697 H         1 EAM         0.0249
     51 H21        20.9626   54.9798   -5.4190 H         1 EAM         0.0249
     52 H22        21.4497   53.8337   -6.7135 H         1 EAM         0.0249
@<TRIPOS>BOND
     1    1    2 1  
     2    2    3 ar 
     3    2    5 ar 
     4    3    4 ar 
     5    4    7 ar 
     6    5    6 ar 
     7    6    7 ar 
     8    7    8 1  
     9    8    9 2  
    10    8   10 1  
    11    9   24 1  
    12   10   11 ar 
    13   10   17 ar 
    14   11   12 ar 
    15   11   18 1  
    16   12   13 ar 
    17   13   14 ar 
    18   14   15 1  
    19   14   17 ar 
    20   15   16 1  
    21   18   19 1  
    22   18   22 1  
    23   19   20 2  
    24   19   24 1  
    25   20   21 1  
    26   21   22 2  
    27   22   23 1  
    28   24   25 1  
    29   25   26 1  
    30   26   27 2  
    31   26   28 am 
    32   28   29 1  
    33   29   30 1  
    34    3   31 1  
    35    4   32 1  
    36    5   33 1  
    37    6   34 1  
    38   12   35 1  
    39   13   36 1  
    40   16   37 1  
    41   16   38 1  
    42   16   39 1  
    43   17   40 1  
    44   23   41 1  
    45   23   42 1  
    46   23   43 1  
    47   24   44 1  
    48   25   45 1  
    49   25   46 1  
    50   28   47 1  
    51   29   48 1  
    52   29   49 1  
    53   30   50 1  
    54   30   51 1  
    55   30   52 1  
@<TRIPOS>SUBSTRUCTURE
     1 EAM         1

