### 
### Created by X-TOOL on Mon Sep 10 21:13:05 2018
### 

@<TRIPOS>MOLECULE
3p76_ligand
   58    60     1     0     0
SMALL
GAST_HUCK


@<TRIPOS>ATOM
      1 N1         -6.3340   20.9290   -3.8250 N.am      1 P76        -0.2492
      2 C2         -5.0740   21.2430   -3.1830 C.3       1 P76         0.1582
      3 C3         -5.0700   22.7470   -3.0480 C.2       1 P76         0.2268
      4 O4         -4.9710   23.5140   -4.0160 O.2       1 P76        -0.3943
      5 N5         -5.1690   23.1210   -1.7410 N.am      1 P76        -0.1623
      6 O6         -5.1380   24.5040   -1.6360 O.3       1 P76        -0.2717
      7 C7         -6.8880   19.6340   -3.7030 C.2       1 P76         0.2622
      8 O8         -6.3350   18.7090   -3.0520 O.2       1 P76        -0.4005
      9 N9         -8.1050   19.4590   -4.3600 N.am      1 P76        -0.2591
     10 C10        -8.8200   20.5060   -5.1040 C.3       1 P76         0.0363
     11 C11        -9.3190   19.9930   -6.4180 C.3       1 P76        -0.0199
     12 C12       -10.3240   18.8520   -6.1880 C.3       1 P76        -0.0033
     13 C13        -9.5060   17.7230   -5.5370 C.3       1 P76        -0.0199
     14 C14        -8.7660   18.1420   -4.2670 C.3       1 P76         0.0363
     15 C15       -10.9280   18.3230   -7.4850 C.ar      1 P76        -0.0388
     16 C16       -11.8010   17.1880   -7.4950 C.ar      1 P76        -0.0581
     17 C17       -12.3450   16.7190   -8.7170 C.ar      1 P76        -0.0523
     18 C18       -12.0070   17.3920   -9.9230 C.ar      1 P76         0.0190
     19 C19       -11.1660   18.4940   -9.9340 C.ar      1 P76        -0.0523
     20 C20       -10.6570   18.9400   -8.7270 C.ar      1 P76        -0.0581
     21 C21       -12.4520   16.9970  -11.1910 C.1       1 P76        -0.0663
     22 C22       -12.6090   16.6110  -12.2990 C.1       1 P76        -0.0645
     23 C23       -12.7910   16.1400  -13.6180 C.ar      1 P76         0.0236
     24 C24       -12.0180   15.0120  -14.0100 C.ar      1 P76        -0.0469
     25 C25       -12.1550   14.4770  -15.3090 C.ar      1 P76        -0.0610
     26 C26       -13.0580   15.0880  -16.2130 C.ar      1 P76        -0.0620
     27 C27       -13.8190   16.2170  -15.8140 C.ar      1 P76        -0.0610
     28 C28       -13.6920   16.7520  -14.5030 C.ar      1 P76        -0.0469
     29 C29        -3.8040   20.6620   -3.8300 C.3       1 P76         0.0921
     30 C30        -3.6170   21.0070   -5.3020 C.3       1 P76        -0.0346
     31 O31        -2.6750   21.1780   -3.0930 O.3       1 P76        -0.3874
     32 H1         -6.8125   21.6290   -4.3551 H         1 P76         0.1878
     33 H2         -5.1088   20.8156   -2.1700 H         1 P76         0.0822
     34 H3         -5.2519   22.4900   -0.9697 H         1 P76         0.2217
     35 H4         -5.2076   24.7527   -0.7218 H         1 P76         0.2490
     36 H5         -8.1360   21.3484   -5.2844 H         1 P76         0.0521
     37 H6         -9.6760   20.8504   -4.5052 H         1 P76         0.0521
     38 H7         -8.4705   19.6178   -7.0089 H         1 P76         0.0310
     39 H8         -9.8135   20.8097   -6.9642 H         1 P76         0.0310
     40 H9        -11.1306   19.1890   -5.5203 H         1 P76         0.0466
     41 H10        -8.7645   17.3679   -6.2678 H         1 P76         0.0310
     42 H11       -10.1921   16.9018   -5.2822 H         1 P76         0.0310
     43 H12        -9.4912   18.1772   -3.4406 H         1 P76         0.0521
     44 H13        -7.9983   17.3850   -4.0491 H         1 P76         0.0521
     45 H14       -12.0464   16.6863   -6.5659 H         1 P76         0.0561
     46 H15       -13.0078   15.8614   -8.7318 H         1 P76         0.0615
     47 H16       -10.9140   18.9928  -10.8629 H         1 P76         0.0615
     48 H17       -10.0137   19.8124   -8.7347 H         1 P76         0.0561
     49 H18       -11.3228   14.5627  -13.3101 H         1 P76         0.0626
     50 H19       -11.5772   13.6107  -15.6104 H         1 P76         0.0617
     51 H20       -13.1683   14.6907  -17.2155 H         1 P76         0.0615
     52 H21       -14.5048   16.6767  -16.5165 H         1 P76         0.0617
     53 H22       -14.2765   17.6112  -14.1946 H         1 P76         0.0626
     54 H23        -3.8378   19.5665   -3.7369 H         1 P76         0.0639
     55 H24        -2.6874   20.5489   -5.6707 H         1 P76         0.0257
     56 H25        -3.5586   22.0993   -5.4181 H         1 P76         0.0257
     57 H26        -4.4699   20.6219   -5.8801 H         1 P76         0.0257
     58 H27        -2.6305   22.1206   -3.2030 H         1 P76         0.2101
@<TRIPOS>BOND
     1    1    2 1  
     2    1    7 am 
     3    2    3 1  
     4    2   29 1  
     5    3    4 2  
     6    3    5 am 
     7    5    6 1  
     8    7    8 2  
     9    7    9 am 
    10    9   10 1  
    11    9   14 1  
    12   10   11 1  
    13   11   12 1  
    14   12   13 1  
    15   12   15 1  
    16   13   14 1  
    17   15   16 ar 
    18   15   20 ar 
    19   16   17 ar 
    20   17   18 ar 
    21   18   19 ar 
    22   18   21 1  
    23   19   20 ar 
    24   21   22 3  
    25   22   23 1  
    26   23   24 ar 
    27   23   28 ar 
    28   24   25 ar 
    29   25   26 ar 
    30   26   27 ar 
    31   27   28 ar 
    32   29   30 1  
    33   29   31 1  
    34    1   32 1  
    35    2   33 1  
    36    5   34 1  
    37    6   35 1  
    38   10   36 1  
    39   10   37 1  
    40   11   38 1  
    41   11   39 1  
    42   12   40 1  
    43   13   41 1  
    44   13   42 1  
    45   14   43 1  
    46   14   44 1  
    47   16   45 1  
    48   17   46 1  
    49   19   47 1  
    50   20   48 1  
    51   24   49 1  
    52   25   50 1  
    53   26   51 1  
    54   27   52 1  
    55   28   53 1  
    56   29   54 1  
    57   30   55 1  
    58   30   56 1  
    59   30   57 1  
    60   31   58 1  
@<TRIPOS>SUBSTRUCTURE
     1 P76         1

