### 
### Created by X-TOOL on Mon Sep 10 21:13:08 2018
### 

@<TRIPOS>MOLECULE
3p78_ligand
   60    63     1     0     0
SMALL
GAST_HUCK


@<TRIPOS>ATOM
      1 C1         49.0470   27.1760  -18.0870 C.2       1 P78        -0.0299
      2 O1         52.2530   31.2360  -11.7680 O.2       1 P78        -0.1742
      3 S1         51.5420   29.7070  -11.8960 S.o2      1 P78        -0.0273
      4 C2         57.4690   31.3380  -21.9820 C.ar      1 P78        -0.0625
      5 S2         50.1770   28.0740  -19.0220 S.3       1 P78         0.0325
      6 C3         51.3360   28.3070  -17.7700 C.2       1 P78         0.2305
      7 C4         50.7700   27.6600  -16.6580 C.2       1 P78         0.1372
      8 C5         49.5380   27.0380  -16.7920 C.2       1 P78        -0.0200
      9 C6         47.7520   26.7040  -18.6560 C.3       1 P78        -0.1035
     10 C7         48.0220   25.5780  -19.6320 C.3       1 P78        -0.1250
     11 C8         46.6430   26.4660  -17.6240 C.3       1 P78        -0.1250
     12 C9         47.2290   27.6660  -19.7180 C.3       1 P78        -0.1250
     13 C10        51.6030   27.6510  -15.3950 C.2       1 P78         0.2071
     14 C11        56.4400   33.8880  -22.4530 C.ar      1 P78        -0.0603
     15 O11        52.8150   27.5820  -15.5510 O.2       1 P78        -0.3948
     16 C12        57.5950   33.4620  -23.1500 C.ar      1 P78        -0.0664
     17 N12        52.5620   28.9430  -17.8060 N.am      1 P78        -0.1444
     18 C13        52.8110   29.8740  -18.7630 C.2       1 P78         0.3566
     19 C14        58.1380   32.1780  -22.9220 C.ar      1 P78        -0.0671
     20 O14        51.8270   30.2130  -19.6360 O.2       1 P78        -0.3633
     21 N15        53.9930   30.4170  -18.8160 N.am      1 P78        -0.2061
     22 C16        54.4870   31.3240  -19.6860 C.ar      1 P78         0.0695
     23 C17        53.9700   32.5990  -19.9270 C.ar      1 P78        -0.0336
     24 C18        54.6220   33.4320  -20.8430 C.ar      1 P78        -0.0586
     25 C19        55.7920   33.0290  -21.5280 C.ar      1 P78        -0.0275
     26 C20        56.3180   31.7600  -21.2880 C.ar      1 P78        -0.0345
     27 C21        55.6520   30.9270  -20.3680 C.ar      1 P78        -0.0390
     28 N26        51.1250   27.6490  -14.1140 N.am      1 P78        -0.2720
     29 C27        49.9140   28.3480  -13.7060 C.3       1 P78         0.0522
     30 C28        50.3170   29.7170  -13.1100 C.3       1 P78         0.0860
     31 C31        52.7460   28.6650  -12.5410 C.3       1 P78         0.0860
     32 C32        52.1310   27.3610  -13.0730 C.3       1 P78         0.0522
     33 O33        50.8220   28.7790  -10.6750 O.2       1 P78        -0.1742
     34 H1         57.8589   30.3438  -21.7962 H         1 P78         0.0576
     35 H2         49.0228   26.5112  -15.9901 H         1 P78         0.0931
     36 H3         47.0706   25.2244  -20.0561 H         1 P78         0.0007
     37 H4         48.5199   24.7494  -19.1072 H         1 P78         0.0007
     38 H5         48.6714   25.9423  -20.4416 H         1 P78         0.0007
     39 H6         46.5462   27.3518  -16.9790 H         1 P78         0.0007
     40 H7         46.8966   25.5903  -17.0086 H         1 P78         0.0007
     41 H8         45.6907   26.2854  -18.1441 H         1 P78         0.0007
     42 H9         48.0140   27.8473  -20.4670 H         1 P78         0.0007
     43 H10        46.9477   28.6179  -19.2439 H         1 P78         0.0007
     44 H11        46.3482   27.2265  -20.2090 H         1 P78         0.0007
     45 H12        56.0454   34.8824  -22.6276 H         1 P78         0.0612
     46 H13        58.0671   34.1262  -23.8648 H         1 P78         0.0573
     47 H14        53.2636   28.7186  -17.1297 H         1 P78         0.2756
     48 H15        59.0288   31.8435  -23.4412 H         1 P78         0.0603
     49 H16        54.6306   30.1176  -18.1062 H         1 P78         0.2285
     50 H17        53.0780   32.9378  -19.4127 H         1 P78         0.0569
     51 H18        54.2169   34.4191  -21.0340 H         1 P78         0.0614
     52 H19        56.0538   29.9384  -20.1773 H         1 P78         0.0435
     53 H20        49.3807   27.7555  -12.9480 H         1 P78         0.0537
     54 H21        49.2614   28.5004  -14.5783 H         1 P78         0.0537
     55 H22        50.6737   30.3480  -13.9374 H         1 P78         0.0520
     56 H23        49.4150   30.1662  -12.6688 H         1 P78         0.0520
     57 H24        53.4708   28.4224  -11.7499 H         1 P78         0.0520
     58 H25        53.2613   29.1801  -13.3651 H         1 P78         0.0520
     59 H26        52.9268   26.7347  -13.5025 H         1 P78         0.0537
     60 H27        51.6490   26.8235  -12.2431 H         1 P78         0.0537
@<TRIPOS>BOND
     1    1    5 1  
     2    8    1 2  
     3    1    9 1  
     4    3    2 2  
     5   30    3 1  
     6    3   31 1  
     7    3   33 2  
     8    4   19 ar 
     9   26    4 ar 
    10    6    5 1  
    11    7    6 2  
    12    6   17 1  
    13    7    8 1  
    14   13    7 1  
    15    9   10 1  
    16    9   11 1  
    17    9   12 1  
    18   13   15 2  
    19   28   13 am 
    20   14   16 ar 
    21   25   14 ar 
    22   19   16 ar 
    23   17   18 am 
    24   18   20 2  
    25   18   21 am 
    26   21   22 1  
    27   22   23 ar 
    28   22   27 ar 
    29   23   24 ar 
    30   24   25 ar 
    31   26   25 ar 
    32   27   26 ar 
    33   29   28 1  
    34   28   32 1  
    35   29   30 1  
    36   31   32 1  
    37    4   34 1  
    38    8   35 1  
    39   10   36 1  
    40   10   37 1  
    41   10   38 1  
    42   11   39 1  
    43   11   40 1  
    44   11   41 1  
    45   12   42 1  
    46   12   43 1  
    47   12   44 1  
    48   14   45 1  
    49   16   46 1  
    50   17   47 1  
    51   19   48 1  
    52   21   49 1  
    53   23   50 1  
    54   24   51 1  
    55   27   52 1  
    56   29   53 1  
    57   29   54 1  
    58   30   55 1  
    59   30   56 1  
    60   31   57 1  
    61   31   58 1  
    62   32   59 1  
    63   32   60 1  
@<TRIPOS>SUBSTRUCTURE
     1 P78         1

