### 
### Created by X-TOOL on Mon Sep 10 21:13:07 2018
### 

@<TRIPOS>MOLECULE
3p79_ligand
   63    66     1     0     0
SMALL
GAST_HUCK


@<TRIPOS>ATOM
      1 C1         50.0690   28.0860  -18.8210 C.2       1 P79        -0.0214
      2 C2         48.9430   27.4700  -18.2700 C.2       1 P79         0.0008
      3 N3         50.0190   28.3060  -16.6150 N.pl3     1 P79        -0.1297
      4 N4         48.9000   27.6260  -16.9330 N.2       1 P79        -0.1726
      5 C5         47.7580   26.7650  -18.9280 C.3       1 P79        -0.0412
      6 C6         50.7440   28.6390  -17.7310 C.2       1 P79         0.2049
      7 C7         50.3350   28.7380  -15.2270 C.3       1 P79         0.1707
      8 C8         51.4980   28.0270  -14.6290 C.2       1 P79         0.2132
      9 N9         51.5530   27.8910  -13.2960 N.am      1 P79        -0.2676
     10 O10        52.3420   27.5490  -15.3620 O.2       1 P79        -0.3935
     11 C11        52.4240   30.0970  -18.6410 C.2       1 P79         0.3236
     12 N12        53.6810   30.4520  -18.7150 N.am      1 P79        -0.2127
     13 O13        51.6030   30.5120  -19.5990 O.2       1 P79        -0.3785
     14 C14        54.2170   31.3570  -19.5510 C.ar      1 P79         0.0686
     15 C15        53.7150   32.6250  -19.7900 C.ar      1 P79        -0.0338
     16 C16        54.3800   33.5140  -20.6580 C.ar      1 P79        -0.0587
     17 C17        55.5260   33.0520  -21.3230 C.ar      1 P79        -0.0276
     18 C18        56.0160   31.7700  -21.1020 C.ar      1 P79        -0.0346
     19 C19        55.3920   30.9050  -20.1820 C.ar      1 P79        -0.0392
     20 N20        51.9560   29.3400  -17.6190 N.am      1 P79        -0.1816
     21 C21        46.6790   26.5090  -17.8650 C.3       1 P79        -0.0827
     22 C22        48.1170   25.5840  -19.8090 C.3       1 P79        -0.0827
     23 C23        47.0930   27.7550  -19.8480 C.3       1 P79        -0.0827
     24 C24        56.1760   33.9380  -22.2210 C.ar      1 P79        -0.0603
     25 C25        57.3460   33.4790  -22.8740 C.ar      1 P79        -0.0665
     26 C26        57.8590   32.1780  -22.6400 C.ar      1 P79        -0.0671
     27 C27        57.2010   31.3110  -21.7170 C.ar      1 P79        -0.0626
     28 C28        50.5720   28.5020  -12.4090 C.3       1 P79         0.0533
     29 C29        51.2870   29.4620  -11.4450 C.3       1 P79         0.0861
     30 S30        52.5080   28.6220  -10.6030 S.o2      1 P79        -0.0272
     31 C31        53.4400   27.8550  -11.8260 C.3       1 P79         0.0861
     32 C32        52.4840   26.9810  -12.6420 C.3       1 P79         0.0533
     33 O33        51.8230   27.3800   -9.7600 O.2       1 P79        -0.1742
     34 O34        53.4810   29.8180   -9.9210 O.2       1 P79        -0.1742
     35 H1         50.3572   28.1262  -19.8704 H         1 P79         0.0214
     36 H2         49.4530   28.5526  -14.5963 H         1 P79         0.0904
     37 H3         50.5563   29.8154  -15.2405 H         1 P79         0.0904
     38 H4         54.3102   30.0016  -18.0816 H         1 P79         0.2275
     39 H5         52.7985   32.9380  -19.3031 H         1 P79         0.0568
     40 H6         54.0171   34.5245  -20.8075 H         1 P79         0.0614
     41 H7         55.8022   29.9249  -19.9671 H         1 P79         0.0434
     42 H8         52.4824   29.2795  -16.7709 H         1 P79         0.2337
     43 H9         45.8205   26.0012  -18.3289 H         1 P79         0.0142
     44 H10        46.3506   27.4678  -17.4375 H         1 P79         0.0142
     45 H11        47.0931   25.8746  -17.0675 H         1 P79         0.0142
     46 H12        48.8946   25.8849  -20.5266 H         1 P79         0.0142
     47 H13        47.2232   25.2494  -20.3559 H         1 P79         0.0142
     48 H14        48.4938   24.7612  -19.1837 H         1 P79         0.0142
     49 H15        46.8008   28.6481  -19.2761 H         1 P79         0.0142
     50 H16        46.1983   27.2968  -20.2947 H         1 P79         0.0142
     51 H17        47.7942   28.0432  -20.6450 H         1 P79         0.0142
     52 H18        55.7893   34.9345  -22.4014 H         1 P79         0.0612
     53 H19        57.8597   34.1357  -23.5668 H         1 P79         0.0572
     54 H20        58.7486   31.8428  -23.1608 H         1 P79         0.0603
     55 H21        57.5998   30.3279  -21.4944 H         1 P79         0.0576
     56 H22        50.0587   27.7179  -11.8331 H         1 P79         0.0538
     57 H23        49.8355   29.0609  -13.0050 H         1 P79         0.0538
     58 H24        50.5599   29.8682  -10.7265 H         1 P79         0.0520
     59 H25        51.7376   30.2867  -12.0167 H         1 P79         0.0520
     60 H26        54.2226   27.2320  -11.3685 H         1 P79         0.0520
     61 H27        53.9059   28.6112  -12.4748 H         1 P79         0.0520
     62 H28        53.0433   26.4040  -13.3932 H         1 P79         0.0538
     63 H29        51.9402   26.2911  -11.9799 H         1 P79         0.0538
@<TRIPOS>BOND
     1    1    2 1  
     2    6    1 2  
     3    4    2 2  
     4    2    5 1  
     5    3    4 1  
     6    6    3 1  
     7    3    7 1  
     8    5   21 1  
     9    5   22 1  
    10    5   23 1  
    11   20    6 1  
    12    7    8 1  
    13    8    9 am 
    14    8   10 2  
    15    9   28 1  
    16    9   32 1  
    17   11   12 am 
    18   11   13 2  
    19   11   20 am 
    20   12   14 1  
    21   14   15 ar 
    22   14   19 ar 
    23   15   16 ar 
    24   16   17 ar 
    25   17   18 ar 
    26   17   24 ar 
    27   18   19 ar 
    28   18   27 ar 
    29   24   25 ar 
    30   25   26 ar 
    31   26   27 ar 
    32   28   29 1  
    33   29   30 1  
    34   30   31 1  
    35   30   33 2  
    36   30   34 2  
    37   31   32 1  
    38    1   35 1  
    39    7   36 1  
    40    7   37 1  
    41   12   38 1  
    42   15   39 1  
    43   16   40 1  
    44   19   41 1  
    45   20   42 1  
    46   21   43 1  
    47   21   44 1  
    48   21   45 1  
    49   22   46 1  
    50   22   47 1  
    51   22   48 1  
    52   23   49 1  
    53   23   50 1  
    54   23   51 1  
    55   24   52 1  
    56   25   53 1  
    57   26   54 1  
    58   27   55 1  
    59   28   56 1  
    60   28   57 1  
    61   29   58 1  
    62   29   59 1  
    63   31   60 1  
    64   31   61 1  
    65   32   62 1  
    66   32   63 1  
@<TRIPOS>SUBSTRUCTURE
     1 P79         1

