### 
### Created by X-TOOL on Mon Sep 10 21:13:07 2018
### 

@<TRIPOS>MOLECULE
3p7a_ligand
   58    61     1     0     0
SMALL
GAST_HUCK


@<TRIPOS>ATOM
      1 C1         49.8250   32.3110  -18.5770 C.2       1 P7A         0.3208
      2 N1         49.0100   30.6660  -14.7290 N.pl3     1 P7A        -0.2402
      3 O1         48.7580   32.7890  -19.2330 O.2       1 P7A        -0.3786
      4 S1         46.8990   29.3180  -15.7710 S.3       1 P7A         0.0285
      5 C2         48.3450   30.2940  -15.8630 C.2       1 P7A         0.2242
      6 N2         51.0180   32.7540  -18.8530 N.am      1 P7A        -0.2086
      7 O2         48.5720   33.2730  -10.8530 O.2       1 P7A        -0.1742
      8 S2         49.1800   32.0330  -11.8770 S.o2      1 P7A        -0.0265
      9 C3         51.4410   33.8510  -19.5510 C.ar      1 P7A         0.0820
     10 O3         50.6130   31.3780  -11.2410 O.2       1 P7A        -0.1742
     11 C4         52.6230   33.8500  -20.3240 C.ar      1 P7A         0.0113
     12 C5         53.0160   35.0150  -21.0130 C.ar      1 P7A        -0.0315
     13 C6         52.2270   36.1760  -20.9300 C.ar      1 P7A        -0.0747
     14 C7         51.0560   36.1940  -20.1700 C.ar      1 P7A        -0.0815
     15 C8         50.6810   35.0360  -19.4830 C.ar      1 P7A        -0.0435
     16 N9         49.6880   31.3440  -17.6290 N.am      1 P7A        -0.2051
     17 C10        48.6250   30.5960  -17.2190 C.2       1 P7A         0.1672
     18 C13        46.6690   29.2810  -17.4950 C.2       1 P7A        -0.0526
     19 C14        47.6950   30.0300  -18.0950 C.2       1 P7A        -0.0170
     20 C16        45.5570   28.5690  -18.2630 C.3       1 P7A        -0.1263
     21 C17        45.1510   29.3700  -19.5000 C.3       1 P7A        -0.1362
     22 C18        44.2420   28.3220  -17.5260 C.3       1 P7A        -0.1362
     23 C19        46.1080   27.2180  -18.7410 C.3       1 P7A        -0.1362
     24 C20        49.6740   31.9730  -14.6440 C.3       1 P7A         0.0693
     25 C21        49.2840   32.8120  -13.4120 C.3       1 P7A         0.0901
     26 C23        48.1970   30.7010  -12.3140 C.3       1 P7A         0.0901
     27 C24        48.7970   29.8910  -13.4830 C.3       1 P7A         0.0693
     28 C31        53.4520   32.7310  -20.4610 C.ar      1 P7A        -0.0551
     29 C32        54.6180   32.7760  -21.2390 C.ar      1 P7A        -0.0647
     30 C33        54.9830   33.9460  -21.9180 C.ar      1 P7A        -0.0656
     31 C34        54.1730   35.0800  -21.7990 C.ar      1 P7A        -0.0608
     32 H          51.7737   32.1785  -18.4812 H         1 P7A         0.2318
     33 H          52.5338   37.0740  -21.4663 H         1 P7A         0.0439
     34 H          50.4452   37.0950  -20.1134 H         1 P7A         0.0565
     35 H          49.7749   35.0498  -18.8773 H         1 P7A         0.0440
     36 H          50.5513   31.1386  -17.1261 H         1 P7A         0.2259
     37 H          47.7614   30.1613  -19.1750 H         1 P7A         0.0705
     38 H          44.7929   30.3528  -19.1935 H         1 P7A        -0.0024
     39 H          46.0137   29.4847  -20.1563 H         1 P7A        -0.0024
     40 H          44.3580   28.8417  -20.0292 H         1 P7A        -0.0024
     41 H          44.4297   27.7043  -16.6478 H         1 P7A        -0.0024
     42 H          43.8158   29.2762  -17.2163 H         1 P7A        -0.0024
     43 H          43.5455   27.8099  -18.1899 H         1 P7A        -0.0024
     44 H          46.9681   27.3866  -19.3890 H         1 P7A        -0.0024
     45 H          46.4121   26.6253  -17.8782 H         1 P7A        -0.0024
     46 H          45.3336   26.6863  -19.2939 H         1 P7A        -0.0024
     47 H          49.3721   32.5409  -15.5240 H         1 P7A         0.0589
     48 H          50.7447   31.7817  -14.5725 H         1 P7A         0.0589
     49 H          50.0840   33.5444  -13.3038 H         1 P7A         0.0524
     50 H          48.2739   33.1655  -13.6188 H         1 P7A         0.0524
     51 H          47.2272   31.0850  -12.6305 H         1 P7A         0.0524
     52 H          48.1173   30.0410  -11.4502 H         1 P7A         0.0524
     53 H          49.7760   29.5402  -13.1563 H         1 P7A         0.0589
     54 H          48.0851   29.1001  -13.7192 H         1 P7A         0.0589
     55 H          53.1858   31.8046  -19.9521 H         1 P7A         0.0629
     56 H          55.2480   31.8899  -21.3164 H         1 P7A         0.0578
     57 H          55.8847   33.9721  -22.5298 H         1 P7A         0.0611
     58 H          54.4394   36.0039  -22.3123 H         1 P7A         0.0587
@<TRIPOS>BOND
     1    1    3 2  
     2    1    6 am 
     3   16    1 am 
     4    2    5 1  
     5   24    2 1  
     6    2   27 1  
     7    5    4 1  
     8    4   18 1  
     9    5   17 2  
    10    6    9 1  
    11    8    7 2  
    12    8   10 2  
    13   25    8 1  
    14    8   26 1  
    15    9   11 ar 
    16    9   15 ar 
    17   11   12 ar 
    18   11   28 ar 
    19   12   13 ar 
    20   12   31 ar 
    21   14   13 ar 
    22   15   14 ar 
    23   17   16 1  
    24   17   19 1  
    25   19   18 2  
    26   18   20 1  
    27   20   21 1  
    28   20   22 1  
    29   20   23 1  
    30   24   25 1  
    31   26   27 1  
    32   28   29 ar 
    33   29   30 ar 
    34   30   31 ar 
    35    6   32 1  
    36   13   33 1  
    37   14   34 1  
    38   15   35 1  
    39   16   36 1  
    40   19   37 1  
    41   21   38 1  
    42   21   39 1  
    43   21   40 1  
    44   22   41 1  
    45   22   42 1  
    46   22   43 1  
    47   23   44 1  
    48   23   45 1  
    49   23   46 1  
    50   24   47 1  
    51   24   48 1  
    52   25   49 1  
    53   25   50 1  
    54   26   51 1  
    55   26   52 1  
    56   27   53 1  
    57   27   54 1  
    58   28   55 1  
    59   29   56 1  
    60   30   57 1  
    61   31   58 1  
@<TRIPOS>SUBSTRUCTURE
     1 P7A         1

