### 
### Created by X-TOOL on Mon Sep 10 21:13:07 2018
### 

@<TRIPOS>MOLECULE
3p7b_ligand
   61    64     1     0     0
SMALL
GAST_HUCK


@<TRIPOS>ATOM
      1 C1         49.1100   27.2540  -18.1190 C.2       1 P7B        -0.0299
      2 S2         50.0950   28.2640  -19.0980 S.3       1 P7B         0.0325
      3 C3         51.2810   28.5510  -17.8460 C.2       1 P7B         0.2305
      4 C4         50.7630   27.9170  -16.6990 C.2       1 P7B         0.1372
      5 C5         49.5890   27.1900  -16.8100 C.2       1 P7B        -0.0200
      6 C6         47.8610   26.6740  -18.7300 C.3       1 P7B        -0.1036
      7 C7         48.2680   25.5020  -19.5860 C.3       1 P7B        -0.1250
      8 C8         46.8060   26.4070  -17.6760 C.3       1 P7B        -0.1250
      9 C9         47.3250   27.6440  -19.7650 C.3       1 P7B        -0.1250
     10 C10        51.5340   28.0180  -15.4340 C.2       1 P7B         0.2072
     11 O11        52.6450   28.5010  -15.5110 O.2       1 P7B        -0.3948
     12 N12        52.4090   29.3140  -17.9280 N.am      1 P7B        -0.1438
     13 C13        52.6360   30.2320  -18.9030 C.2       1 P7B         0.3600
     14 O14        51.6930   30.5480  -19.7680 O.2       1 P7B        -0.3618
     15 N15        53.7750   30.8260  -19.0040 N.am      1 P7B        -0.2012
     16 C16        54.1420   31.8480  -19.8410 C.ar      1 P7B         0.0830
     17 C17        53.4220   33.0600  -19.6660 C.ar      1 P7B        -0.0433
     18 C18        53.7510   34.1610  -20.4770 C.ar      1 P7B        -0.0814
     19 C19        54.8240   34.0590  -21.3540 C.ar      1 P7B        -0.0745
     20 C20        55.5440   32.8740  -21.5490 C.ar      1 P7B        -0.0314
     21 C21        55.2230   31.7430  -20.7710 C.ar      1 P7B         0.0115
     22 C22        56.5850   32.8870  -22.5200 C.ar      1 P7B        -0.0608
     23 C23        57.3540   31.7460  -22.7020 C.ar      1 P7B        -0.0655
     24 C24        57.0240   30.6290  -21.9370 C.ar      1 P7B        -0.0647
     25 C25        56.0080   30.5900  -20.9640 C.ar      1 P7B        -0.0551
     26 N26        51.0750   27.6290  -14.2290 N.am      1 P7B        -0.2709
     27 C27        49.7170   28.1170  -13.9080 C.3       1 P7B         0.0531
     28 C28        49.0580   27.5390  -12.6520 C.3       1 P7B         0.0511
     29 N29        49.6540   28.1480  -11.4350 N.am      1 P7B        -0.2850
     30 C30        50.9380   28.2350  -10.9650 C.2       1 P7B         0.1780
     31 C31        52.0240   28.4860  -12.0210 C.3       1 P7B         0.0575
     32 C32        52.0460   27.4110  -13.1220 C.3       1 P7B         0.0496
     33 O33        51.2080   27.6750   -9.8820 O.2       1 P7B        -0.3970
     34 H1         49.1104   26.6483  -15.9955 H         1 P7B         0.0931
     35 H2         47.3740   25.0566  -20.0468 H         1 P7B         0.0007
     36 H3         48.7722   24.7496  -18.9618 H         1 P7B         0.0007
     37 H4         48.9547   25.8445  -20.3741 H         1 P7B         0.0007
     38 H5         46.5978   27.3345  -17.1225 H         1 P7B         0.0007
     39 H6         47.1704   25.6380  -16.9790 H         1 P7B         0.0007
     40 H7         45.8838   26.0547  -18.1612 H         1 P7B         0.0007
     41 H8         48.0970   27.8320  -20.5257 H         1 P7B         0.0007
     42 H9         47.0550   28.5910  -19.2749 H         1 P7B         0.0007
     43 H10        46.4343   27.2127  -20.2453 H         1 P7B         0.0007
     44 H11        53.1117   29.1898  -17.2274 H         1 P7B         0.2757
     45 H12        54.4896   30.4962  -18.3870 H         1 P7B         0.2330
     46 H13        52.6359   33.1347  -18.9234 H         1 P7B         0.0442
     47 H14        53.1749   35.0774  -20.4187 H         1 P7B         0.0565
     48 H15        55.1178   34.9393  -21.9142 H         1 P7B         0.0440
     49 H16        56.7746   33.7766  -23.1096 H         1 P7B         0.0587
     50 H17        58.1757   31.7247  -23.4087 H         1 P7B         0.0611
     51 H18        57.5929   29.7215  -22.1040 H         1 P7B         0.0578
     52 H19        55.8341   29.6949  -20.3778 H         1 P7B         0.0629
     53 H20        49.0672   27.8817  -14.7638 H         1 P7B         0.0541
     54 H21        49.7760   29.2081  -13.7815 H         1 P7B         0.0541
     55 H22        49.2142   26.4504  -12.6276 H         1 P7B         0.0540
     56 H23        47.9795   27.7543  -12.6754 H         1 P7B         0.0540
     57 H24        48.9808   28.5831  -10.8370 H         1 P7B         0.1851
     58 H25        53.0039   28.4973  -11.5214 H         1 P7B         0.0522
     59 H26        51.8397   29.4643  -12.4889 H         1 P7B         0.0522
     60 H27        53.0572   27.3851  -13.5543 H         1 P7B         0.0546
     61 H28        51.8213   26.4401  -12.6563 H         1 P7B         0.0546
@<TRIPOS>BOND
     1    1    2 1  
     2    1    5 2  
     3    1    6 1  
     4    2    3 1  
     5    3    4 2  
     6    3   12 1  
     7    4    5 1  
     8    4   10 1  
     9    6    7 1  
    10    6    8 1  
    11    6    9 1  
    12   10   11 2  
    13   10   26 am 
    14   12   13 am 
    15   13   14 2  
    16   13   15 am 
    17   15   16 1  
    18   16   17 ar 
    19   16   21 ar 
    20   17   18 ar 
    21   18   19 ar 
    22   19   20 ar 
    23   20   21 ar 
    24   20   22 ar 
    25   21   25 ar 
    26   22   23 ar 
    27   23   24 ar 
    28   24   25 ar 
    29   26   27 1  
    30   26   32 1  
    31   27   28 1  
    32   28   29 1  
    33   29   30 am 
    34   30   31 1  
    35   30   33 2  
    36   31   32 1  
    37    5   34 1  
    38    7   35 1  
    39    7   36 1  
    40    7   37 1  
    41    8   38 1  
    42    8   39 1  
    43    8   40 1  
    44    9   41 1  
    45    9   42 1  
    46    9   43 1  
    47   12   44 1  
    48   15   45 1  
    49   17   46 1  
    50   18   47 1  
    51   19   48 1  
    52   22   49 1  
    53   23   50 1  
    54   24   51 1  
    55   25   52 1  
    56   27   53 1  
    57   27   54 1  
    58   28   55 1  
    59   28   56 1  
    60   29   57 1  
    61   31   58 1  
    62   31   59 1  
    63   32   60 1  
    64   32   61 1  
@<TRIPOS>SUBSTRUCTURE
     1 P7B         1

