### 
### Created by X-TOOL on Mon Sep 10 21:13:08 2018
### 

@<TRIPOS>MOLECULE
3p7c_ligand
   70    72     1     0     0
SMALL
GAST_HUCK


@<TRIPOS>ATOM
      1 CL1        55.6660   30.2670  -20.7580 Cl        1 P7C        -0.0825
      2 N2         47.0200   27.0410  -10.4200 N.4       1 P7C         0.2323
      3 S2         49.2380   28.3290  -19.5760 S.3       1 P7C         0.0325
      4 CL2        56.6050   32.3440  -22.9080 Cl        1 P7C        -0.0741
      5 C3         50.3890   28.5680  -18.3160 C.2       1 P7C         0.2305
      6 C4         49.9100   27.8150  -17.2040 C.2       1 P7C         0.1372
      7 C5         48.7690   27.0690  -17.4310 C.2       1 P7C        -0.0200
      8 C7         47.3680   25.5500  -20.2110 C.3       1 P7C        -0.1250
      9 C8         45.9980   26.3890  -18.0550 C.3       1 P7C        -0.1250
     10 C10        50.7160   27.7720  -15.9470 C.2       1 P7C         0.2072
     11 C11        48.2530   27.2430  -18.7070 C.2       1 P7C        -0.0299
     12 O11        51.9080   27.7550  -16.1450 O.2       1 P7C        -0.3948
     13 N12        51.4810   29.3740  -18.4030 N.am      1 P7C        -0.1445
     14 C13        51.7690   30.2490  -19.3940 C.2       1 P7C         0.3561
     15 C14        46.9650   26.6120  -19.2030 C.3       1 P7C        -0.1035
     16 O14        50.7960   30.5180  -20.2560 O.2       1 P7C        -0.3635
     17 N15        52.9550   30.8090  -19.5220 N.am      1 P7C        -0.2061
     18 C16        53.4010   31.7270  -20.4510 C.ar      1 P7C         0.0827
     19 C17        52.6420   32.8450  -20.8190 C.ar      1 P7C        -0.0405
     20 C19        54.3080   33.6350  -22.3960 C.ar      1 P7C        -0.0628
     21 C20        55.0920   32.5350  -22.0500 C.ar      1 P7C         0.0408
     22 C22        46.1470   27.5360  -20.1240 C.3       1 P7C        -0.1250
     23 C23        53.0700   33.7920  -21.7540 C.ar      1 P7C        -0.0749
     24 C24        54.6280   31.6180  -21.1020 C.ar      1 P7C         0.0731
     25 C25        48.9650   28.1130  -14.1700 C.3       1 P7C         0.0534
     26 C26        50.5890   28.1110  -11.4310 C.2       1 P7C         0.1806
     27 N26        50.2730   27.6770  -14.6640 N.am      1 P7C        -0.2709
     28 C28        49.1420   29.1560  -13.0740 C.3       1 P7C         0.0543
     29 N29        49.3300   28.5550  -11.7440 N.am      1 P7C        -0.2661
     30 C33        51.6190   27.8880  -12.5560 C.3       1 P7C         0.0577
     31 O33        50.8160   27.6800  -10.2970 O.2       1 P7C        -0.3968
     32 C34        51.1740   26.9780  -13.7400 C.3       1 P7C         0.0497
     33 C35        48.4470   29.1310  -10.7020 C.3       1 P7C         0.0738
     34 C36        47.0380   28.5420  -10.4850 C.3       1 P7C        -0.0115
     35 C37        47.1980   26.4780   -9.0440 C.3       1 P7C        -0.0433
     36 C38        45.9670   26.3410  -11.2260 C.3       1 P7C        -0.0433
     37 H1         47.8738   26.7854  -10.8909 H         1 P7C         0.2028
     38 H2         48.3215   26.4129  -16.6859 H         1 P7C         0.0931
     39 H3         46.4667   25.0577  -20.6050 H         1 P7C         0.0007
     40 H4         48.0090   24.8029  -19.7201 H         1 P7C         0.0007
     41 H5         47.9202   26.0202  -21.0381 H         1 P7C         0.0007
     42 H6         45.8865   27.3220  -17.4831 H         1 P7C         0.0007
     43 H7         46.3873   25.5991  -17.3958 H         1 P7C         0.0007
     44 H8         45.0192   26.0843  -18.4539 H         1 P7C         0.0007
     45 H9         52.1416   29.3135  -17.6547 H         1 P7C         0.2756
     46 H10        53.6338   30.5263  -18.8442 H         1 P7C         0.2279
     47 H11        51.6723   32.9832  -20.3547 H         1 P7C         0.0504
     48 H12        54.6451   34.3483  -23.1394 H         1 P7C         0.0494
     49 H13        46.7408   27.7832  -21.0164 H         1 P7C         0.0007
     50 H14        45.8937   28.4606  -19.5845 H         1 P7C         0.0007
     51 H15        45.2223   27.0244  -20.4291 H         1 P7C         0.0007
     52 H16        52.4454   34.6478  -21.9832 H         1 P7C         0.0579
     53 H17        48.4220   27.2469  -13.7640 H         1 P7C         0.0541
     54 H18        48.3899   28.5505  -14.9994 H         1 P7C         0.0541
     55 H19        48.2470   29.7949  -13.0482 H         1 P7C         0.0542
     56 H20        50.0238   29.7694  -13.3109 H         1 P7C         0.0542
     57 H21        52.5134   27.4341  -12.1043 H         1 P7C         0.0522
     58 H22        51.8778   28.8731  -12.9714 H         1 P7C         0.0522
     59 H23        52.0676   26.6533  -14.2932 H         1 P7C         0.0546
     60 H24        50.6536   26.0977  -13.3348 H         1 P7C         0.0546
     61 H25        48.3138   30.1947  -10.9487 H         1 P7C         0.0575
     62 H26        48.9816   29.0407   -9.7449 H         1 P7C         0.0575
     63 H27        46.6375   28.9364   -9.5395 H         1 P7C         0.0834
     64 H28        46.3946   28.8623  -11.3177 H         1 P7C         0.0834
     65 H29        47.1719   25.3793   -9.0912 H         1 P7C         0.0777
     66 H30        46.3867   26.8364   -8.3934 H         1 P7C         0.0777
     67 H31        48.1662   26.8045   -8.6366 H         1 P7C         0.0777
     68 H32        45.8946   26.8082  -12.2192 H         1 P7C         0.0777
     69 H33        44.9980   26.4210  -10.7117 H         1 P7C         0.0777
     70 H34        46.2360   25.2804  -11.3385 H         1 P7C         0.0777
@<TRIPOS>BOND
     1   24    1 1  
     2   34    2 1  
     3    2   35 1  
     4    2   36 1  
     5    5    3 1  
     6   11    3 1  
     7   21    4 1  
     8    6    5 2  
     9    5   13 1  
    10    6    7 1  
    11   10    6 1  
    12    7   11 2  
    13   15    8 1  
    14   15    9 1  
    15   10   12 2  
    16   27   10 am 
    17   11   15 1  
    18   13   14 am 
    19   14   16 2  
    20   14   17 am 
    21   15   22 1  
    22   17   18 1  
    23   18   19 ar 
    24   18   24 ar 
    25   19   23 ar 
    26   21   20 ar 
    27   23   20 ar 
    28   24   21 ar 
    29   25   27 1  
    30   28   25 1  
    31   29   26 am 
    32   26   30 1  
    33   26   31 2  
    34   27   32 1  
    35   29   28 1  
    36   33   29 1  
    37   30   32 1  
    38   33   34 1  
    39    2   37 1  
    40    7   38 1  
    41    8   39 1  
    42    8   40 1  
    43    8   41 1  
    44    9   42 1  
    45    9   43 1  
    46    9   44 1  
    47   13   45 1  
    48   17   46 1  
    49   19   47 1  
    50   20   48 1  
    51   22   49 1  
    52   22   50 1  
    53   22   51 1  
    54   23   52 1  
    55   25   53 1  
    56   25   54 1  
    57   28   55 1  
    58   28   56 1  
    59   30   57 1  
    60   30   58 1  
    61   32   59 1  
    62   32   60 1  
    63   33   61 1  
    64   33   62 1  
    65   34   63 1  
    66   34   64 1  
    67   35   65 1  
    68   35   66 1  
    69   35   67 1  
    70   36   68 1  
    71   36   69 1  
    72   36   70 1  
@<TRIPOS>SUBSTRUCTURE
     1 P7C         1

