### 
### Created by X-TOOL on Mon Sep 10 21:13:04 2018
### 

@<TRIPOS>MOLECULE
3p8e_ligand
   40    39     1     0     0
SMALL
GAST_HUCK


@<TRIPOS>ATOM
      1 C         -28.6110   19.3240  -21.6370 C.2       1 LN7         0.0844
      2 N         -26.9900   19.3210  -23.4910 N.4       1 LN7         0.2327
      3 CA        -27.1870   18.9410  -22.0730 C.3       1 LN7         0.0285
      4 CB        -26.1860   19.6950  -21.1960 C.3       1 LN7         0.0072
      5 CD        -25.2800   20.1170  -18.8760 C.3       1 LN7        -0.0281
      6 NE        -25.4480   19.7490  -17.4610 N.4       1 LN7         0.2626
      7 CG        -26.2970   19.3210  -19.7170 C.3       1 LN7        -0.0057
      8 CZ        -24.6450   20.5560  -16.5190 C.3       1 LN7        -0.0082
      9 OA1       -29.1200   18.6680  -20.6960 O.co2     1 LN7        -0.5643
     10 OA2       -29.1490   20.2790  -22.2510 O.co2     1 LN7        -0.5643
     11 CH1       -25.0280   22.0260  -16.7910 C.3       1 LN7         0.0351
     12 NH2       -25.0130   20.0920  -15.1750 N.4       1 LN7         0.2548
     13 CI1       -26.7580   22.1310  -15.0760 C.3       1 LN7        -0.0555
     14 CK1       -25.8190   22.9920  -14.2230 C.3       1 LN7        -0.0653
     15 CT1       -26.4940   22.3720  -16.5560 C.3       1 LN7        -0.0426
     16 H         -27.6588   18.8166  -24.0730 H         1 LN7         0.2010
     17 H         -27.1355   20.3251  -23.5960 H         1 LN7         0.2010
     18 H         -26.0405   19.0820  -23.7770 H         1 LN7         0.2010
     19 H         -27.0379   17.8667  -21.9649 H         1 LN7         0.1024
     20 H         -26.3967   20.7605  -21.2883 H         1 LN7         0.0340
     21 H         -25.1829   19.4334  -21.5327 H         1 LN7         0.0340
     22 H         -24.2664   19.8834  -19.2017 H         1 LN7         0.0815
     23 H         -25.4499   21.1861  -19.0035 H         1 LN7         0.0815
     24 H         -25.1382   18.7819  -17.3651 H         1 LN7         0.2072
     25 H         -26.4285   19.9040  -17.2265 H         1 LN7         0.2072
     26 H         -26.0896   18.2567  -19.6062 H         1 LN7         0.0320
     27 H         -27.3028   19.5558  -19.3687 H         1 LN7         0.0320
     28 H         -23.5641   20.4622  -16.6241 H         1 LN7         0.1470
     29 H         -24.8295   22.2098  -17.8469 H         1 LN7         0.0380
     30 H         -24.4488   22.6331  -16.0952 H         1 LN7         0.0380
     31 H         -24.7321   19.1177  -15.0642 H         1 LN7         0.2051
     32 H         -24.5389   20.6652  -14.4771 H         1 LN7         0.2051
     33 H         -26.0226   20.1720  -15.0536 H         1 LN7         0.2051
     34 H         -27.7903   22.3979  -14.8499 H         1 LN7         0.0263
     35 H         -26.5822   21.0795  -14.8490 H         1 LN7         0.0263
     36 H         -24.7847   22.7320  -14.4483 H         1 LN7         0.0230
     37 H         -25.9878   24.0448  -14.4491 H         1 LN7         0.0230
     38 H         -26.0192   22.8092  -13.1673 H         1 LN7         0.0230
     39 H         -27.1462   21.7568  -17.1758 H         1 LN7         0.0269
     40 H         -26.7009   23.4071  -16.8277 H         1 LN7         0.0269
@<TRIPOS>BOND
     1    3    1 1  
     2    1    9 ar 
     3    1   10 ar 
     4    3    2 1  
     5    4    3 1  
     6    7    4 1  
     7    6    5 1  
     8    5    7 1  
     9    8    6 1  
    10   11    8 1  
    11    8   12 1  
    12   15   11 1  
    13   13   14 1  
    14   13   15 1  
    15    2   16 1  
    16    2   17 1  
    17    2   18 1  
    18    3   19 1  
    19    4   20 1  
    20    4   21 1  
    21    5   22 1  
    22    5   23 1  
    23    6   24 1  
    24    6   25 1  
    25    7   26 1  
    26    7   27 1  
    27    8   28 1  
    28   11   29 1  
    29   11   30 1  
    30   12   31 1  
    31   12   32 1  
    32   12   33 1  
    33   13   34 1  
    34   13   35 1  
    35   14   36 1  
    36   14   37 1  
    37   14   38 1  
    38   15   39 1  
    39   15   40 1  
@<TRIPOS>SUBSTRUCTURE
     1 LN7         1

