### 
### Created by X-TOOL on Mon Sep 10 21:13:07 2018
### 

@<TRIPOS>MOLECULE
3p8n_ligand
  105   110     1     0     0
SMALL
GAST_HUCK


@<TRIPOS>ATOM
      1 C25        39.5560   43.5470    9.2610 C.2       1 L4T         0.3221
      2 O26        38.5840   43.9950    8.6740 O.2       1 L4T        -0.3774
      3 O27        39.8930   42.2390    9.3250 O.3       1 L4T        -0.2605
      4 C28        40.3580   41.6240    8.1560 C.3       1 L4T         0.0882
      5 C29        39.3030   41.2110    7.1690 C.3       1 L4T        -0.0223
      6 C30        40.1100   40.3010    6.2480 C.3       1 L4T        -0.0503
      7 C31        41.1830   39.6900    7.1430 C.3       1 L4T        -0.0503
      8 C32        40.9030   40.2540    8.5230 C.3       1 L4T        -0.0223
      9 N24        40.4370   44.2910    9.9650 N.am      1 L4T        -0.2407
     10 C19        40.2770   45.7120   10.0760 C.3       1 L4T         0.1378
     11 C20        40.6690   46.2710   11.4870 C.3       1 L4T         0.0025
     12 C21        40.4150   47.8080   11.5340 C.3       1 L4T        -0.0558
     13 C22        42.1430   45.9980   11.8630 C.3       1 L4T        -0.0558
     14 C23        39.7890   45.6120   12.5640 C.3       1 L4T        -0.0558
     15 C17        41.0720   46.3460    8.9080 C.2       1 L4T         0.2070
     16 O18        42.2760   46.1600    8.8000 O.2       1 L4T        -0.3942
     17 C10        42.2350   48.6520    7.4300 C.2       1 L4T         0.2019
     18 O11        42.0880   49.3350    8.4470 O.2       1 L4T        -0.3946
     19 C12        41.1090   47.7680    6.8840 C.3       1 L4T         0.1364
     20 C13        40.0420   48.6660    6.2190 C.3       1 L4T         0.0214
     21 C14        38.7420   47.9190    6.5350 C.3       1 L4T         0.1113
     22 C15        38.9720   47.5450    7.9820 C.3       1 L4T         0.0685
     23 N16        40.3880   47.1470    7.9930 N.am      1 L4T        -0.2468
     24 O33        38.7300   46.6450    5.8400 O.3       1 L4T        -0.2977
     25 C34        38.2780   46.5400    4.5350 C.ar      1 L4T         0.1186
     26 C35        37.6540   47.7160    3.8760 C.ar      1 L4T        -0.0074
     27 C36        37.2120   47.5760    2.5900 C.ar      1 L4T         0.0200
     28 N37        37.3680   46.3570    1.9440 N.ar      1 L4T        -0.3286
     29 C38        37.9290   45.2120    2.4700 C.ar      1 L4T         0.0243
     30 C39        38.4070   45.3420    3.8770 C.ar      1 L4T         0.0332
     31 C40        39.0190   44.1310    4.5480 C.ar      1 L4T        -0.0468
     32 C41        39.0820   42.9000    3.7030 C.ar      1 L4T        -0.0229
     33 C42        38.6300   42.8420    2.4020 C.ar      1 L4T         0.1032
     34 C43        38.0490   44.0420    1.7850 C.ar      1 L4T         0.0496
     35 BR44       37.4360   43.9710   -0.0320 Br        1 L4T        -0.0647
     36 O45        38.6670   41.7180    1.5640 O.3       1 L4T        -0.3159
     37 C46        39.2120   40.4760    2.0710 C.3       1 L4T         0.0618
     38 C47        36.5670   48.6220    1.8840 C.2       1 L4T         0.0173
     39 C48        36.1570   48.5440    0.5630 C.2       1 L4T         0.0175
     40 S49        35.3980   50.0210    0.1260 S.3       1 L4T         0.0269
     41 C50        35.6870   50.6280    1.7130 C.2       1 L4T         0.2098
     42 N51        36.2920   49.8040    2.5300 N.2       1 L4T        -0.3121
     43 N52        35.2970   51.8750    2.1580 N.am      1 L4T        -0.1933
     44 C53        34.3700   52.7000    1.5370 C.2       1 L4T         0.2177
     45 O54        33.7950   52.3820    0.4730 O.2       1 L4T        -0.3798
     46 C55        34.1280   54.0130    2.3140 C.3       1 L4T         0.0510
     47 C56        32.9280   53.8700    3.2590 C.3       1 L4T        -0.0449
     48 C57        33.9400   55.2120    1.3910 C.3       1 L4T        -0.0449
     49 N9         43.4120   48.5710    6.7190 N.am      1 L4T        -0.2732
     50 C4         44.6800   48.9780    7.2900 C.3       1 L4T         0.1131
     51 C6         45.3080   48.0230    8.3350 C.3       1 L4T         0.0199
     52 C5         45.9130   48.1220    6.9600 C.3       1 L4T        -0.0046
     53 C7         46.0320   48.4940    9.5280 C.2       1 L4T        -0.0843
     54 C8         45.7280   48.1330   10.7930 C.2       1 L4T        -0.1172
     55 C2         44.8960   50.5070    7.2910 C.2       1 L4T         0.0759
     56 O3         45.9840   50.9810    7.7380 O.co2     1 L4T        -0.5452
     57 O1         43.9630   51.2650    6.7990 O.co2     1 L4T        -0.5452
     58 H1         41.1131   42.2676    7.6810 H         1 L4T         0.0647
     59 H2         38.8957   42.0768    6.6264 H         1 L4T         0.0293
     60 H3         38.4825   40.6659    7.6585 H         1 L4T         0.0293
     61 H4         40.5692   40.8822    5.4348 H         1 L4T         0.0266
     62 H5         39.4690   39.5157    5.8209 H         1 L4T         0.0266
     63 H6         42.1864   39.9833    6.8007 H         1 L4T         0.0266
     64 H7         41.1039   38.5929    7.1494 H         1 L4T         0.0266
     65 H8         40.1582   39.6522    9.0643 H         1 L4T         0.0293
     66 H9         41.8207   40.3297    9.1247 H         1 L4T         0.0293
     67 H10        41.2109   43.8450   10.4147 H         1 L4T         0.1899
     68 H11        39.2128   45.9474    9.9279 H         1 L4T         0.0805
     69 H12        40.6915   48.1951   12.5258 H         1 L4T         0.0237
     70 H13        39.3502   48.0096   11.3456 H         1 L4T         0.0237
     71 H14        41.0240   48.3040   10.7639 H         1 L4T         0.0237
     72 H15        42.3345   44.9152   11.8333 H         1 L4T         0.0237
     73 H16        42.3391   46.3773   12.8767 H         1 L4T         0.0237
     74 H17        42.8045   46.5071   11.1466 H         1 L4T         0.0237
     75 H18        38.7288   45.7864   12.3283 H         1 L4T         0.0237
     76 H19        40.0229   46.0485   13.5462 H         1 L4T         0.0237
     77 H20        39.9863   44.5301   12.5872 H         1 L4T         0.0237
     78 H21        41.5080   47.0178    6.1855 H         1 L4T         0.0803
     79 H22        40.2046   48.7406    5.1337 H         1 L4T         0.0343
     80 H23        40.0392   49.6739    6.6595 H         1 L4T         0.0343
     81 H24        37.8363   48.5157    6.3517 H         1 L4T         0.0684
     82 H25        38.3230   46.7096    8.2836 H         1 L4T         0.0555
     83 H26        38.7965   48.4040    8.6463 H         1 L4T         0.0555
     84 H27        37.5519   48.6592    4.4004 H         1 L4T         0.0528
     85 H28        39.3852   44.1550    5.5680 H         1 L4T         0.0676
     86 H29        39.5070   42.0024    4.1375 H         1 L4T         0.0579
     87 H30        39.1630   39.7067    1.2863 H         1 L4T         0.0582
     88 H31        38.6273   40.1479    2.9430 H         1 L4T         0.0582
     89 H32        40.2597   40.6298    2.3688 H         1 L4T         0.0582
     90 H33        36.2939   47.6850   -0.0922 H         1 L4T         0.0737
     91 H34        35.7184   52.2127    2.9997 H         1 L4T         0.2412
     92 H35        35.0209   54.2037    2.9275 H         1 L4T         0.0540
     93 H36        32.7738   54.8145    3.8013 H         1 L4T         0.0257
     94 H37        33.1225   53.0614    3.9790 H         1 L4T         0.0257
     95 H38        32.0272   53.6316    2.6744 H         1 L4T         0.0257
     96 H39        34.8085   55.2990    0.7215 H         1 L4T         0.0257
     97 H40        33.8483   56.1277    1.9935 H         1 L4T         0.0257
     98 H41        33.0277   55.0742    0.7921 H         1 L4T         0.0257
     99 H42        43.3908   48.2214    5.7823 H         1 L4T         0.1848
    100 H43        44.7560   47.1123    8.6105 H         1 L4T         0.0495
    101 H44        46.8931   48.6034    6.8274 H         1 L4T         0.0312
    102 H45        45.8213   47.2781    6.2604 H         1 L4T         0.0312
    103 H46        46.8666   49.1777    9.3802 H         1 L4T         0.0675
    104 H47        46.3108   48.5239   11.6258 H         1 L4T         0.0290
    105 H48        44.9000   47.4509   10.9805 H         1 L4T         0.0290
@<TRIPOS>BOND
     1    1    2 2  
     2    1    3 1  
     3    9    1 am 
     4    3    4 1  
     5    4    5 1  
     6    4    8 1  
     7    5    6 1  
     8    7    6 1  
     9    8    7 1  
    10   10    9 1  
    11   10   11 1  
    12   15   10 1  
    13   11   12 1  
    14   11   13 1  
    15   11   14 1  
    16   15   16 2  
    17   23   15 am 
    18   17   18 2  
    19   19   17 1  
    20   17   49 am 
    21   19   20 1  
    22   19   23 1  
    23   20   21 1  
    24   21   22 1  
    25   21   24 1  
    26   22   23 1  
    27   24   25 1  
    28   25   26 ar 
    29   25   30 ar 
    30   26   27 ar 
    31   27   28 ar 
    32   27   38 1  
    33   28   29 ar 
    34   29   30 ar 
    35   29   34 ar 
    36   30   31 ar 
    37   31   32 ar 
    38   32   33 ar 
    39   33   34 ar 
    40   33   36 1  
    41   34   35 1  
    42   36   37 1  
    43   38   39 2  
    44   38   42 1  
    45   39   40 1  
    46   40   41 1  
    47   41   42 2  
    48   41   43 1  
    49   43   44 am 
    50   44   45 2  
    51   44   46 1  
    52   46   47 1  
    53   46   48 1  
    54   49   50 1  
    55   50   51 1  
    56   50   52 1  
    57   50   55 1  
    58   51   52 1  
    59   51   53 1  
    60   53   54 2  
    61   55   56 ar 
    62   55   57 ar 
    63    4   58 1  
    64    5   59 1  
    65    5   60 1  
    66    6   61 1  
    67    6   62 1  
    68    7   63 1  
    69    7   64 1  
    70    8   65 1  
    71    8   66 1  
    72    9   67 1  
    73   10   68 1  
    74   12   69 1  
    75   12   70 1  
    76   12   71 1  
    77   13   72 1  
    78   13   73 1  
    79   13   74 1  
    80   14   75 1  
    81   14   76 1  
    82   14   77 1  
    83   19   78 1  
    84   20   79 1  
    85   20   80 1  
    86   21   81 1  
    87   22   82 1  
    88   22   83 1  
    89   26   84 1  
    90   31   85 1  
    91   32   86 1  
    92   37   87 1  
    93   37   88 1  
    94   37   89 1  
    95   39   90 1  
    96   43   91 1  
    97   46   92 1  
    98   47   93 1  
    99   47   94 1  
   100   47   95 1  
   101   48   96 1  
   102   48   97 1  
   103   48   98 1  
   104   49   99 1  
   105   51  100 1  
   106   52  101 1  
   107   52  102 1  
   108   53  103 1  
   109   54  104 1  
   110   54  105 1  
@<TRIPOS>SUBSTRUCTURE
     1 L4T         1

