### 
### Created by X-TOOL on Mon Sep 10 21:13:07 2018
### 

@<TRIPOS>MOLECULE
3p8o_ligand
  105   110     1     0     0
SMALL
GAST_HUCK


@<TRIPOS>ATOM
      1 C25        39.3910   43.6490    9.1590 C.2       1 L5T         0.3221
      2 O26        38.4250   44.1980    8.6310 O.2       1 L5T        -0.3774
      3 O27        39.6410   42.3070    9.1430 O.3       1 L5T        -0.2605
      4 C28        40.2030   41.8230    7.9240 C.3       1 L5T         0.0882
      5 C29        39.1860   41.4170    6.8790 C.3       1 L5T        -0.0223
      6 C30        40.0130   40.5700    5.9240 C.3       1 L5T        -0.0503
      7 C31        41.1510   40.0210    6.7640 C.3       1 L5T        -0.0503
      8 C32        40.8660   40.4880    8.1760 C.3       1 L5T        -0.0223
      9 N24        40.3560   44.2980    9.8410 N.am      1 L5T        -0.2407
     10 C19        40.3310   45.7440   10.0270 C.3       1 L5T         0.1378
     11 C20        40.6980   46.2380   11.4890 C.3       1 L5T         0.0025
     12 C21        40.3290   47.7380   11.6410 C.3       1 L5T        -0.0558
     13 C22        42.1910   46.0460   11.8710 C.3       1 L5T        -0.0558
     14 C23        39.8470   45.4590   12.5290 C.3       1 L5T        -0.0558
     15 C17        41.1520   46.4010    8.8750 C.2       1 L5T         0.2070
     16 O18        42.3650   46.1780    8.7410 O.2       1 L5T        -0.3942
     17 C10        42.4120   48.8250    7.3930 C.2       1 L5T         0.2019
     18 O11        42.2690   49.5590    8.3660 O.2       1 L5T        -0.3946
     19 C12        41.2690   47.9120    6.8780 C.3       1 L5T         0.1364
     20 C13        40.2100   48.7750    6.1530 C.3       1 L5T         0.0214
     21 C14        38.8900   48.0510    6.4260 C.3       1 L5T         0.1112
     22 C15        39.0920   47.6520    7.8880 C.3       1 L5T         0.0685
     23 N16        40.5120   47.2680    7.9690 N.am      1 L5T        -0.2468
     24 O33        38.8640   46.8100    5.6310 O.3       1 L5T        -0.2981
     25 C34        38.3130   46.8000    4.3220 C.ar      1 L5T         0.1175
     26 C35        37.6450   48.0290    3.8090 C.ar      1 L5T        -0.0080
     27 C36        37.1000   48.0380    2.5440 C.ar      1 L5T         0.0195
     28 N37        37.1790   46.8680    1.7750 N.ar      1 L5T        -0.3290
     29 C38        37.7810   45.6650    2.1580 C.ar      1 L5T         0.0165
     30 C39        38.3740   45.6560    3.5450 C.ar      1 L5T         0.0308
     31 C40        39.0400   44.3840    4.0340 C.ar      1 L5T        -0.0501
     32 C41        39.0180   43.2210    3.0600 C.ar      1 L5T        -0.0265
     33 C42        38.4560   43.2870    1.8140 C.ar      1 L5T         0.0928
     34 C43        37.8230   44.5500    1.3750 C.ar      1 L5T        -0.0223
     35 O45        38.3880   42.2520    0.8380 O.3       1 L5T        -0.3187
     36 C46        38.9550   40.9570    1.1230 C.3       1 L5T         0.0606
     37 C47        36.4460   49.1950    2.0070 C.2       1 L5T         0.0169
     38 C48        35.9450   49.3030    0.7210 C.2       1 L5T         0.0171
     39 S49        35.2320   50.8320    0.5200 S.3       1 L5T         0.0266
     40 C50        35.6510   51.2470    2.1330 C.2       1 L5T         0.2097
     41 N51        36.2720   50.3090    2.8060 N.2       1 L5T        -0.3122
     42 N52        35.3470   52.4570    2.7260 N.am      1 L5T        -0.1933
     43 C53        34.4130   53.3720    2.2690 C.2       1 L5T         0.2177
     44 O54        33.7420   53.1860    1.2430 O.2       1 L5T        -0.3798
     45 C55        34.2980   54.6330    3.1710 C.3       1 L5T         0.0510
     46 C56        32.8670   54.8310    3.7030 C.3       1 L5T        -0.0449
     47 C57        34.7800   55.8890    2.4270 C.3       1 L5T        -0.0449
     48 N9         43.5900   48.6820    6.6840 N.am      1 L5T        -0.2732
     49 C4         44.9010   49.0280    7.2350 C.3       1 L5T         0.1131
     50 C6         45.4820   48.0500    8.2870 C.3       1 L5T         0.0199
     51 C5         46.0750   48.0900    6.9110 C.3       1 L5T        -0.0046
     52 C7         46.2690   48.4510    9.4510 C.2       1 L5T        -0.0843
     53 C8         45.8400   48.3800   10.7210 C.2       1 L5T        -0.1172
     54 C2         45.2370   50.5360    7.1940 C.2       1 L5T         0.0759
     55 O1         44.3610   51.3290    6.7000 O.co2     1 L5T        -0.5452
     56 O3         46.3480   50.9470    7.6170 O.co2     1 L5T        -0.5452
     57 H1         40.9058   42.5691    7.5249 H         1 L5T         0.0647
     58 H2         38.7677   42.2971    6.3687 H         1 L5T         0.0293
     59 H3         38.3701   40.8299    7.3257 H         1 L5T         0.0293
     60 H4         40.4035   41.1864    5.1009 H         1 L5T         0.0266
     61 H5         39.4069   39.7497    5.5121 H         1 L5T         0.0266
     62 H6         42.1151   40.4185    6.4139 H         1 L5T         0.0266
     63 H7         41.1689   38.9221    6.7178 H         1 L5T         0.0266
     64 H8         40.1898   39.7959    8.6993 H         1 L5T         0.0293
     65 H9         41.7935   40.6031    8.7560 H         1 L5T         0.0293
     66 H10        41.1117   43.7719   10.2311 H         1 L5T         0.1899
     67 H11        39.2870   46.0561    9.8764 H         1 L5T         0.0805
     68 H12        40.5846   48.0775   12.6556 H         1 L5T         0.0237
     69 H13        39.2501   47.8692   11.4714 H         1 L5T         0.0237
     70 H14        40.8908   48.3304   10.9038 H         1 L5T         0.0237
     71 H15        42.4627   44.9852   11.7665 H         1 L5T         0.0237
     72 H16        42.3468   46.3634   12.9126 H         1 L5T         0.0237
     73 H17        42.8211   46.6532   11.2045 H         1 L5T         0.0237
     74 H18        38.7797   45.5731   12.2887 H         1 L5T         0.0237
     75 H19        40.0411   45.8590   13.5351 H         1 L5T         0.0237
     76 H20        40.1175   44.3932   12.4997 H         1 L5T         0.0237
     77 H21        41.6886   47.1513    6.2032 H         1 L5T         0.0803
     78 H22        40.4150   48.8197    5.0732 H         1 L5T         0.0343
     79 H23        40.1886   49.7948    6.5647 H         1 L5T         0.0343
     80 H24        38.0006   48.6748    6.2532 H         1 L5T         0.0684
     81 H25        38.4436   46.8040    8.1534 H         1 L5T         0.0555
     82 H26        38.8791   48.4996    8.5560 H         1 L5T         0.0555
     83 H27        37.5879   48.9152    4.4307 H         1 L5T         0.0526
     84 H28        39.5003   44.3109    5.0127 H         1 L5T         0.0646
     85 H29        39.4725   42.2863    3.3680 H         1 L5T         0.0571
     86 H30        37.3737   44.5905    0.3893 H         1 L5T         0.0482
     87 H31        38.8076   40.2938    0.2579 H         1 L5T         0.0580
     88 H32        38.4586   40.5253    2.0046 H         1 L5T         0.0580
     89 H33        40.0312   41.0640    1.3238 H         1 L5T         0.0580
     90 H34        35.9994   48.5286   -0.0427 H         1 L5T         0.0734
     91 H35        35.8459   52.6935    3.5598 H         1 L5T         0.2412
     92 H36        34.9577   54.4820    4.0382 H         1 L5T         0.0540
     93 H37        32.8317   55.7313    4.3340 H         1 L5T         0.0257
     94 H38        32.5725   53.9542    4.2984 H         1 L5T         0.0257
     95 H39        32.1742   54.9491    2.8568 H         1 L5T         0.0257
     96 H40        35.8026   55.7256    2.0562 H         1 L5T         0.0257
     97 H41        34.7720   56.7479    3.1141 H         1 L5T         0.0257
     98 H42        34.1103   56.0921    1.5783 H         1 L5T         0.0257
     99 H43        43.5443   48.3254    5.7509 H         1 L5T         0.1848
    100 H44        44.8678   47.1857    8.5799 H         1 L5T         0.0495
    101 H45        47.0821   48.5067    6.7622 H         1 L5T         0.0312
    102 H46        45.9240   47.2424    6.2264 H         1 L5T         0.0312
    103 H47        47.2733   48.8341    9.2761 H         1 L5T         0.0675
    104 H48        46.4901   48.6998   11.5340 H         1 L5T         0.0290
    105 H49        44.8418   48.0026   10.9383 H         1 L5T         0.0290
@<TRIPOS>BOND
     1    1    2 2  
     2    1    3 1  
     3    9    1 am 
     4    3    4 1  
     5    4    5 1  
     6    4    8 1  
     7    5    6 1  
     8    7    6 1  
     9    8    7 1  
    10   10    9 1  
    11   10   11 1  
    12   15   10 1  
    13   11   12 1  
    14   11   13 1  
    15   11   14 1  
    16   15   16 2  
    17   23   15 am 
    18   17   18 2  
    19   19   17 1  
    20   17   48 am 
    21   19   20 1  
    22   19   23 1  
    23   20   21 1  
    24   21   22 1  
    25   21   24 1  
    26   22   23 1  
    27   24   25 1  
    28   25   26 ar 
    29   25   30 ar 
    30   26   27 ar 
    31   27   28 ar 
    32   27   37 1  
    33   28   29 ar 
    34   29   30 ar 
    35   29   34 ar 
    36   30   31 ar 
    37   31   32 ar 
    38   32   33 ar 
    39   33   34 ar 
    40   33   35 1  
    41   35   36 1  
    42   37   38 2  
    43   37   41 1  
    44   38   39 1  
    45   39   40 1  
    46   40   41 2  
    47   40   42 1  
    48   42   43 am 
    49   43   44 2  
    50   43   45 1  
    51   45   46 1  
    52   45   47 1  
    53   48   49 1  
    54   49   50 1  
    55   49   51 1  
    56   49   54 1  
    57   50   51 1  
    58   50   52 1  
    59   52   53 2  
    60   54   55 ar 
    61   54   56 ar 
    62    4   57 1  
    63    5   58 1  
    64    5   59 1  
    65    6   60 1  
    66    6   61 1  
    67    7   62 1  
    68    7   63 1  
    69    8   64 1  
    70    8   65 1  
    71    9   66 1  
    72   10   67 1  
    73   12   68 1  
    74   12   69 1  
    75   12   70 1  
    76   13   71 1  
    77   13   72 1  
    78   13   73 1  
    79   14   74 1  
    80   14   75 1  
    81   14   76 1  
    82   19   77 1  
    83   20   78 1  
    84   20   79 1  
    85   21   80 1  
    86   22   81 1  
    87   22   82 1  
    88   26   83 1  
    89   31   84 1  
    90   32   85 1  
    91   34   86 1  
    92   36   87 1  
    93   36   88 1  
    94   36   89 1  
    95   38   90 1  
    96   42   91 1  
    97   45   92 1  
    98   46   93 1  
    99   46   94 1  
   100   46   95 1  
   101   47   96 1  
   102   47   97 1  
   103   47   98 1  
   104   48   99 1  
   105   50  100 1  
   106   51  101 1  
   107   51  102 1  
   108   52  103 1  
   109   53  104 1  
   110   53  105 1  
@<TRIPOS>SUBSTRUCTURE
     1 L5T         1

