### 
### Created by X-TOOL on Mon Sep 10 21:13:04 2018
### 

@<TRIPOS>MOLECULE
3p8p_ligand
   37    36     1     0     0
SMALL
GAST_HUCK


@<TRIPOS>ATOM
      1 C          -5.0290   -2.1700   21.6250 C.2       1 LN6         0.0844
      2 N          -3.3510   -2.3420   23.3930 N.4       1 LN6         0.2327
      3 CA         -3.5890   -1.8460   22.0300 C.3       1 LN6         0.0285
      4 CB         -2.6060   -2.5130   21.0650 C.3       1 LN6         0.0064
      5 CD         -1.5010   -2.3580   18.7970 C.3       1 LN6         0.0869
      6 NE         -1.7530   -3.7240   18.3140 N.pl3     1 LN6        -0.2635
      7 CG         -2.6410   -1.8530   19.6850 C.3       1 LN6        -0.0047
      8 CZ         -2.7150   -3.9780   17.4310 C.cat     1 LN6         0.2063
      9 OA1        -5.4610   -1.6510   20.5730 O.co2     1 LN6        -0.5643
     10 OA2        -5.6710   -2.9270   22.3840 O.co2     1 LN6        -0.5643
     11 CH1        -2.9470   -5.4120   16.9510 C.3       1 LN6         0.0190
     12 NH2        -3.4450   -2.9860   16.9280 N.pl3     1 LN6        -0.2761
     13 CI1        -1.5290   -5.0880   14.8910 C.3       1 LN6        -0.0561
     14 CK1        -0.3490   -5.6200   14.0740 C.3       1 LN6        -0.0653
     15 CT1        -1.7490   -5.9280   16.1510 C.3       1 LN6        -0.0507
     16 H1         -2.4038   -2.1318   23.6664 H         1 LN6         0.2010
     17 H2         -3.4943   -3.3395   23.4174 H         1 LN6         0.2010
     18 H3         -3.9916   -1.8948   24.0300 H         1 LN6         0.2010
     19 H4         -3.4396   -0.7565   22.0046 H         1 LN6         0.1024
     20 H5         -2.8727   -3.5750   20.9603 H         1 LN6         0.0340
     21 H6         -1.5890   -2.4291   21.4758 H         1 LN6         0.0340
     22 H7         -1.3991   -1.6868   17.9315 H         1 LN6         0.0797
     23 H8         -0.5669   -2.3518   19.3779 H         1 LN6         0.0797
     24 H9         -1.1734   -4.4991   18.6663 H         1 LN6         0.3202
     25 H10        -2.5450   -0.7639   19.8063 H         1 LN6         0.0311
     26 H11        -3.6013   -2.0849   19.2013 H         1 LN6         0.0311
     27 H12        -3.8423   -5.4363   16.3123 H         1 LN6         0.0282
     28 H13        -3.1020   -6.0622   17.8246 H         1 LN6         0.0282
     29 H14        -4.1885   -3.1889   16.2446 H         1 LN6         0.3177
     30 H15        -3.2667   -2.0151   17.2219 H         1 LN6         0.3177
     31 H16        -2.4384   -5.1221   14.2731 H         1 LN6         0.0263
     32 H17        -1.3235   -4.0478   15.1839 H         1 LN6         0.0263
     33 H18        -0.2146   -4.9984   13.1764 H         1 LN6         0.0230
     34 H19        -0.5497   -6.6590   13.7738 H         1 LN6         0.0230
     35 H20         0.5653   -5.5848   14.6846 H         1 LN6         0.0230
     36 H21        -1.9339   -6.9724   15.8594 H         1 LN6         0.0262
     37 H22        -0.8477   -5.8768   16.7794 H         1 LN6         0.0262
@<TRIPOS>BOND
     1    3    1 1  
     2    1    9 ar 
     3    1   10 ar 
     4    3    2 1  
     5    4    3 1  
     6    7    4 1  
     7    6    5 1  
     8    5    7 1  
     9    8    6 ar 
    10   11    8 1  
    11    8   12 ar 
    12   15   11 1  
    13   13   14 1  
    14   13   15 1  
    15    2   16 1  
    16    2   17 1  
    17    2   18 1  
    18    3   19 1  
    19    4   20 1  
    20    4   21 1  
    21    5   22 1  
    22    5   23 1  
    23    6   24 1  
    24    7   25 1  
    25    7   26 1  
    26   11   27 1  
    27   11   28 1  
    28   12   29 1  
    29   12   30 1  
    30   13   31 1  
    31   13   32 1  
    32   14   33 1  
    33   14   34 1  
    34   14   35 1  
    35   15   36 1  
    36   15   37 1  
@<TRIPOS>SUBSTRUCTURE
     1 LN6         1

