### 
### Created by X-TOOL on Mon Sep 10 21:13:03 2018
### 

@<TRIPOS>MOLECULE
3p8z_ligand
   59    62     1     0     0
SMALL
GAST_HUCK


@<TRIPOS>ATOM
      1 C           8.2150   -7.5260   45.5840 C.2       1 36A         0.0844
      2 N           7.0820   -7.6340   43.3640 N.4       1 36A         0.2327
      3 O           8.6460   -6.9080   46.5750 O.co2     1 36A        -0.5643
      4 N1          7.1850    2.4740   37.2930 N.ar      1 36A        -0.2695
      5 C2          7.9810    1.7720   38.1210 C.ar      1 36A         0.0533
      6 N3          7.5150    1.2590   39.2740 N.ar      1 36A        -0.2713
      7 C4          6.2110    1.4640   39.6190 C.ar      1 36A         0.1613
      8 C5          5.3570    2.1970   38.8090 C.ar      1 36A         0.1048
      9 C6          5.8850    2.7360   37.6060 C.ar      1 36A         0.1342
     10 N6          5.1770    3.4590   36.7090 N.pl3     1 36A        -0.2898
     11 N7          4.1320    2.2150   39.4190 N.2       1 36A        -0.2957
     12 C8          4.2570    1.5130   40.5870 C.2       1 36A         0.1123
     13 N9          5.5270    1.0710   40.7070 N.pl3     1 36A        -0.1919
     14 CA          7.5680   -6.7660   44.4350 C.3       1 36A         0.0291
     15 CB          6.3830   -5.9280   44.9780 C.3       1 36A         0.0114
     16 CD          4.5940   -2.8250   42.7950 C.3       1 36A         0.0226
     17 SD          4.6950   -3.8670   44.2360 S.3       1 36A        -0.1578
     18 CG          6.1670   -4.8060   43.9890 C.3       1 36A         0.0005
     19 C1'         6.1030    0.2610   41.7870 C.3       1 36A         0.2009
     20 C2'         5.5450    0.5750   43.1950 C.3       1 36A         0.1385
     21 O2'         6.2530    1.5800   43.9160 O.3       1 36A        -0.3836
     22 C27         3.8470    3.9650   36.9360 C.3       1 36A         0.0633
     23 C28         2.8030    3.1490   36.2170 C.ar      1 36A        -0.0201
     24 C29         3.0770    2.6400   34.9400 C.ar      1 36A        -0.0445
     25 C3'         5.6470   -0.7700   43.9120 C.3       1 36A         0.1132
     26 O3'         6.8650   -0.8430   44.6560 O.3       1 36A        -0.3864
     27 C30         2.1020    1.9120   34.2890 C.ar      1 36A         0.0338
     28 C31         0.8460    1.6820   34.8640 C.ar      1 36A        -0.0548
     29 C32         0.5770    2.1880   36.1400 C.ar      1 36A        -0.0680
     30 C33         1.5450    2.9340   36.8140 C.ar      1 36A        -0.0582
     31 CL34        2.4850    1.2730   32.6900 Cl        1 36A        -0.0725
     32 C4'         5.7000   -1.7910   42.7750 C.3       1 36A         0.0995
     33 O4'         5.6320   -1.0710   41.5290 O.3       1 36A        -0.3383
     34 OXT         8.3300   -8.7950   45.5470 O.co2     1 36A        -0.5643
     35 H1          6.6670   -7.0714   42.6378 H         1 36A         0.2010
     36 H2          6.3915   -8.2688   43.7332 H         1 36A         0.2010
     37 H3          7.8523   -8.1603   42.9824 H         1 36A         0.2010
     38 H4          9.0198    1.6167   37.8529 H         1 36A         0.0996
     39 H5          5.6188    3.6620   35.8010 H         1 36A         0.1883
     40 H6          3.4581    1.3384   41.3062 H         1 36A         0.1349
     41 H7          8.3209   -6.0862   44.0094 H         1 36A         0.1024
     42 H8          6.6284   -5.5195   45.9694 H         1 36A         0.0347
     43 H9          5.4788   -6.5501   45.0513 H         1 36A         0.0347
     44 H10         3.6228   -2.3086   42.7955 H         1 36A         0.0402
     45 H11         4.6755   -3.4520   41.8949 H         1 36A         0.0402
     46 H12         6.1274   -5.2432   42.9804 H         1 36A         0.0379
     47 H13         7.0245   -4.1205   44.0582 H         1 36A         0.0379
     48 H14         7.2006    0.3336   41.7791 H         1 36A         0.0996
     49 H15         4.4941    0.8894   43.1129 H         1 36A         0.0676
     50 H16         7.1547    1.3062   44.0359 H         1 36A         0.2101
     51 H17         3.7958    5.0034   36.5768 H         1 36A         0.0689
     52 H18         3.6365    3.9395   38.0154 H         1 36A         0.0689
     53 H19         4.0387    2.8153   34.4716 H         1 36A         0.0562
     54 H20         4.7832   -0.9401   44.5715 H         1 36A         0.0647
     55 H21         6.8837   -0.1449   45.3001 H         1 36A         0.2100
     56 H22         0.0915    1.1188   34.3268 H         1 36A         0.0565
     57 H23        -0.3838    2.0006   36.6056 H         1 36A         0.0599
     58 H24         1.3298    3.3465   37.7931 H         1 36A         0.0559
     59 H25         6.6615   -2.3217   42.8373 H         1 36A         0.0632
@<TRIPOS>BOND
     1    1    3 ar 
     2   14    1 1  
     3    1   34 ar 
     4   14    2 1  
     5    5    4 ar 
     6    9    4 ar 
     7    6    5 ar 
     8    7    6 ar 
     9    7    8 ar 
    10   13    7 1  
    11    8    9 ar 
    12   11    8 1  
    13    9   10 1  
    14   10   22 1  
    15   12   11 2  
    16   13   12 1  
    17   19   13 1  
    18   15   14 1  
    19   18   15 1  
    20   16   17 1  
    21   32   16 1  
    22   17   18 1  
    23   20   19 1  
    24   19   33 1  
    25   20   21 1  
    26   25   20 1  
    27   22   23 1  
    28   23   24 ar 
    29   23   30 ar 
    30   24   27 ar 
    31   25   26 1  
    32   25   32 1  
    33   27   28 ar 
    34   27   31 1  
    35   28   29 ar 
    36   29   30 ar 
    37   32   33 1  
    38    2   35 1  
    39    2   36 1  
    40    2   37 1  
    41    5   38 1  
    42   10   39 1  
    43   12   40 1  
    44   14   41 1  
    45   15   42 1  
    46   15   43 1  
    47   16   44 1  
    48   16   45 1  
    49   18   46 1  
    50   18   47 1  
    51   19   48 1  
    52   20   49 1  
    53   21   50 1  
    54   22   51 1  
    55   22   52 1  
    56   24   53 1  
    57   25   54 1  
    58   26   55 1  
    59   28   56 1  
    60   29   57 1  
    61   30   58 1  
    62   32   59 1  
@<TRIPOS>SUBSTRUCTURE
     1 36A         1

