### 
### Created by X-TOOL on Mon Sep 10 21:13:07 2018
### 

@<TRIPOS>MOLECULE
3p9j_ligand
   39    42     1     0     0
SMALL
GAST_HUCK


@<TRIPOS>ATOM
      1 C1         -4.1450   32.5710   -2.7070 C.2       1 P9J         0.2626
      2 N2         -4.7360   31.7560   -3.6920 N.am      1 P9J        -0.1068
      3 C3         -3.3330   33.6120   -3.1020 C.ar      1 P9J         0.0783
      4 C4         -2.7800   34.4710   -2.1670 C.ar      1 P9J        -0.0344
      5 C5         -1.9660   35.5130   -2.5950 C.ar      1 P9J        -0.0504
      6 C6         -1.7060   35.6810   -3.9500 C.ar      1 P9J        -0.0502
      7 C7         -2.2670   34.8080   -4.8800 C.ar      1 P9J        -0.0356
      8 C8         -3.0850   33.7690   -4.4510 C.ar      1 P9J         0.0601
      9 C9         -3.6560   32.8600   -5.3420 C.2       1 P9J         0.1557
     10 N10        -4.4180   31.8590   -4.8780 N.pl3     1 P9J        -0.1652
     11 C11        -5.4650   30.6480   -3.2870 C.ar      1 P9J         0.0976
     12 C12        -5.9310   30.5560   -1.9870 C.ar      1 P9J        -0.0385
     13 C13        -6.6880   29.4630   -1.5970 C.ar      1 P9J        -0.0754
     14 C14        -7.0120   28.4720   -2.5080 C.ar      1 P9J        -0.0771
     15 C15        -6.5740   28.5790   -3.8200 C.ar      1 P9J        -0.0754
     16 C16        -5.8410   29.6900   -4.2170 C.ar      1 P9J        -0.0385
     17 N17        -3.4610   33.0220   -6.6490 N.2       1 P9J        -0.3010
     18 C18        -3.9380   32.2420   -7.6230 C.2       1 P9J         0.0425
     19 C19        -4.7010   31.1590   -7.5050 C.2       1 P9J        -0.0425
     20 C20        -4.9170   30.8030   -8.7680 C.2       1 P9J         0.0587
     21 N21        -4.3380   31.6670   -9.5930 N.pl3     1 P9J        -0.2272
     22 N22        -3.7710   32.5290   -8.9150 N.2       1 P9J        -0.2357
     23 C23        -5.7110   29.5880   -9.2360 C.3       1 P9J        -0.0032
     24 O24        -4.3720   32.4190   -1.5080 O.2       1 P9J        -0.3684
     25 H          -2.9814   34.3311   -1.1049 H         1 P9J         0.0686
     26 H          -1.5313   36.1988   -1.8678 H         1 P9J         0.0678
     27 H          -1.0635   36.4953   -4.2850 H         1 P9J         0.0667
     28 H          -2.0646   34.9396   -5.9429 H         1 P9J         0.0699
     29 H          -4.7487   31.1524   -5.5351 H         1 P9J         0.2279
     30 H          -5.7023   31.3440   -1.2695 H         1 P9J         0.0504
     31 H          -7.0309   29.3827   -0.5655 H         1 P9J         0.0577
     32 H          -7.6072   27.6136   -2.1965 H         1 P9J         0.0488
     33 H          -6.8048   27.7923   -4.5383 H         1 P9J         0.0577
     34 H          -5.5602   29.8095   -5.2634 H         1 P9J         0.0504
     35 H          -5.0615   30.6799   -6.5947 H         1 P9J         0.0226
     36 H          -4.3581   31.6258  -10.6120 H         1 P9J         0.2503
     37 H          -5.2480   28.6811   -8.8469 H         1 P9J         0.0437
     38 H          -6.7347   29.6611   -8.8689 H         1 P9J         0.0437
     39 H          -5.7158   29.5563  -10.3255 H         1 P9J         0.0437
@<TRIPOS>BOND
     1    1    2 am 
     2    1    3 1  
     3    1   24 2  
     4    2   10 1  
     5    2   11 1  
     6    3    4 ar 
     7    3    8 ar 
     8    4    5 ar 
     9    5    6 ar 
    10    6    7 ar 
    11    7    8 ar 
    12    8    9 1  
    13    9   10 1  
    14    9   17 2  
    15   11   12 ar 
    16   11   16 ar 
    17   12   13 ar 
    18   13   14 ar 
    19   14   15 ar 
    20   15   16 ar 
    21   17   18 1  
    22   18   19 1  
    23   18   22 2  
    24   19   20 2  
    25   20   21 1  
    26   20   23 1  
    27   21   22 1  
    28    4   25 1  
    29    5   26 1  
    30    6   27 1  
    31    7   28 1  
    32   10   29 1  
    33   12   30 1  
    34   13   31 1  
    35   14   32 1  
    36   15   33 1  
    37   16   34 1  
    38   19   35 1  
    39   21   36 1  
    40   23   37 1  
    41   23   38 1  
    42   23   39 1  
@<TRIPOS>SUBSTRUCTURE
     1 P9J         1

