### 
### Created by X-TOOL on Mon Sep 10 21:13:06 2018
### 

@<TRIPOS>MOLECULE
3p9l_ligand
  142   142     1     0     0
SMALL
GAST_HUCK


@<TRIPOS>ATOM
      1 N         -11.9920   -3.4370   34.3840 N.4       1 SER         0.2396
      2 CA        -13.2500   -2.9110   33.8930 C.3       1 SER         0.0885
      3 C         -13.1340   -1.3990   33.7830 C.2       1 SER         0.2290
      4 O         -12.8510   -0.7170   34.7650 O.2       1 SER        -0.3906
      5 CB        -14.3840   -3.2890   34.8410 C.3       1 SER         0.1041
      6 OG        -15.6420   -2.9560   34.2870 O.3       1 SER        -0.3870
      7 N         -13.3340   -0.8850   32.5740 N.am      1 ILE        -0.2607
      8 CA        -13.1760    0.5370   32.3050 C.3       1 ILE         0.1336
      9 C         -14.3020    1.3260   32.9660 C.2       1 ILE         0.2042
     10 O         -15.4120    0.8240   33.1160 O.2       1 ILE        -0.3944
     11 CB        -13.1580    0.8080   30.7700 C.3       1 ILE        -0.0037
     12 CG1       -12.6010    2.1930   30.4660 C.3       1 ILE        -0.0491
     13 CG2       -14.5540    0.6500   30.1650 C.3       1 ILE        -0.0582
     14 CD1       -12.4090    2.4420   28.9760 C.3       1 ILE        -0.0648
     15 N         -14.0150    2.5620   33.3560 N.am      1 ILE        -0.2635
     16 CA        -15.0170    3.4430   33.9660 C.3       1 ILE         0.1335
     17 C         -16.1180    3.8230   32.9660 C.2       1 ILE         0.2043
     18 O         -15.9180    3.7370   31.7610 O.2       1 ILE        -0.3944
     19 CB        -14.3430    4.7370   34.4800 C.3       1 ILE        -0.0037
     20 CG1       -15.2180    5.4590   35.5140 C.3       1 ILE        -0.0491
     21 CG2       -13.9970    5.6660   33.3110 C.3       1 ILE        -0.0582
     22 CD1       -14.5130    6.6240   36.1930 C.3       1 ILE        -0.0648
     23 N         -17.2850    4.2240   33.4720 N.am      1 ASN        -0.2616
     24 CA        -18.3000    4.8620   32.6510 C.3       1 ASN         0.1476
     25 C         -17.9710    6.3370   32.5220 C.2       1 ASN         0.2064
     26 O         -17.9410    7.0660   33.5250 O.2       1 ASN        -0.3942
     27 CB        -19.6850    4.7320   33.2840 C.3       1 ASN         0.0773
     28 CG        -20.1040    3.3020   33.4750 C.2       1 ASN         0.1780
     29 OD1       -20.6120    2.6670   32.5500 O.2       1 ASN        -0.3970
     30 ND2       -19.9060    2.7810   34.6840 N.am      1 ASN        -0.3007
     31 N         -17.7350    6.7850   31.2930 N.am      1 PHE        -0.2618
     32 CA        -17.2830    8.1550   31.0720 C.3       1 PHE         0.1404
     33 C         -18.4140    9.1710   31.1930 C.2       1 PHE         0.2060
     34 O         -19.5630    8.8780   30.8570 O.2       1 PHE        -0.3942
     35 CB        -16.5610    8.2770   29.7170 C.3       1 PHE         0.0214
     36 CG        -15.2530    7.5290   29.6720 C.ar      1 PHE        -0.0386
     37 CD1       -14.1240    8.0510   30.2860 C.ar      1 PHE        -0.0601
     38 CD2       -15.1610    6.2980   29.0430 C.ar      1 PHE        -0.0601
     39 CE1       -12.9110    7.3590   30.2760 C.ar      1 PHE        -0.0686
     40 CE2       -13.9480    5.6010   29.0130 C.ar      1 PHE        -0.0686
     41 CZ        -12.8270    6.1350   29.6390 C.ar      1 PHE        -0.0687
     42 N         -18.0800   10.3620   31.6860 N.am      1 GLU        -0.2635
     43 CA        -19.0520   11.4430   31.8060 C.3       1 GLU         0.1325
     44 C         -18.8440   12.4700   30.6980 C.2       1 GLU         0.2040
     45 O         -17.7300   12.6860   30.2420 O.2       1 GLU        -0.3944
     46 CB        -18.9590   12.1280   33.1720 C.3       1 GLU        -0.0008
     47 CG        -19.5590   11.3310   34.3180 C.3       1 GLU         0.0044
     48 CD        -21.0660   11.1950   34.1990 C.2       1 GLU         0.0350
     49 OE1       -21.7370   12.2190   33.9520 O.co2     1 GLU        -0.5690
     50 OE2       -21.5760   10.0610   34.3390 O.co2     1 GLU        -0.5690
     51 N         -19.9250   13.1150   30.2860 N.am      1 LYS        -0.2637
     52 CA        -19.8870   14.0290   29.1570 C.3       1 LYS         0.1309
     53 C         -19.0250   15.2670   29.3720 C.2       1 LYS         0.2033
     54 O         -18.9700   15.8320   30.4660 O.2       1 LYS        -0.3944
     55 CB        -21.3090   14.4050   28.7380 C.3       1 LYS        -0.0122
     56 CG        -21.9380   13.3400   27.8440 C.3       1 LYS        -0.0440
     57 CD        -23.4410   13.3680   27.9320 C.3       1 LYS        -0.0124
     58 CE        -24.0440   12.2740   27.0960 C.3       1 LYS        -0.0354
     59 NZ        -25.5280   12.2440   27.2630 N.4       1 LYS         0.2185
     60 N         -18.3670   15.6760   28.2950 N.am      1 LEU        -0.2695
     61 CA        -17.4830   16.8270   28.2830 C.3       1 LEU         0.0946
     62 C         -18.2830   18.1140   28.2560 C.2       1 LEU         0.0601
     63 O         -19.4710   18.1030   27.9300 O.co2     1 LEU        -0.5666
     64 CB        -16.5830   16.7810   27.0490 C.3       1 LEU        -0.0156
     65 CG        -15.5740   15.6400   27.0070 C.3       1 LEU        -0.0431
     66 CD1       -14.6790   15.7720   25.7990 C.3       1 LEU        -0.0625
     67 CD2       -14.7630   15.6390   28.2820 C.3       1 LEU        -0.0625
     68 OXT       -17.7320   19.1800   28.5400 O.co2     1 LEU        -0.5666
     69 H1        -12.0548   -4.4400   34.4619 H         1 SER         0.2016
     70 H2        -11.7929   -3.0415   35.2895 H         1 SER         0.2016
     71 H3        -11.2533   -3.1955   33.7421 H         1 SER         0.2016
     72 H4        -13.4585   -3.3332   32.8989 H         1 SER         0.1122
     73 H5        -14.2546   -2.7479   35.7899 H         1 SER         0.0640
     74 H6        -14.3494   -4.3723   35.0289 H         1 SER         0.0640
     75 H7        -15.7602   -3.4238   33.4687 H         1 SER         0.2099
     76 H8        -13.6011   -1.4932   31.8265 H         1 ILE         0.1885
     77 H9        -12.2174    0.8691   32.7301 H         1 ILE         0.0803
     78 H10       -12.4971    0.0636   30.3020 H         1 ILE         0.0345
     79 H11       -11.6275    2.2973   30.9673 H         1 ILE         0.0267
     80 H12       -13.2991    2.9461   30.8603 H         1 ILE         0.0267
     81 H13       -14.9411   -0.3540   30.3934 H         1 ILE         0.0235
     82 H14       -14.4981    0.7820   29.0744 H         1 ILE         0.0235
     83 H15       -15.2267    1.4082   30.5922 H         1 ILE         0.0235
     84 H16       -12.0064    3.4541   28.8223 H         1 ILE         0.0230
     85 H17       -13.3768    2.3504   28.4612 H         1 ILE         0.0230
     86 H18       -11.7051    1.7016   28.5682 H         1 ILE         0.0230
     87 H19       -13.0839    2.9043   33.2297 H         1 ILE         0.1883
     88 H20       -15.4763    2.9151   34.8148 H         1 ILE         0.0803
     89 H21       -13.4034    4.4525   34.9763 H         1 ILE         0.0345
     90 H22       -15.5161    4.7341   36.2857 H         1 ILE         0.0267
     91 H23       -16.1147    5.8426   35.0052 H         1 ILE         0.0267
     92 H24       -13.3708    5.1254   32.5860 H         1 ILE         0.0235
     93 H25       -13.4483    6.5415   33.6884 H         1 ILE         0.0235
     94 H26       -14.9235    5.9978   32.8196 H         1 ILE         0.0235
     95 H27       -15.1948    7.0930   36.9177 H         1 ILE         0.0230
     96 H28       -14.2166    7.3649   35.4359 H         1 ILE         0.0230
     97 H29       -13.6181    6.2563   36.7164 H         1 ILE         0.0230
     98 H30       -17.4668    4.0814   34.4449 H         1 ASN         0.1885
     99 H31       -18.3087    4.3934   31.6559 H         1 ASN         0.0826
    100 H32       -20.4180    5.2292   32.6317 H         1 ASN         0.0551
    101 H33       -19.6713    5.2286   34.2654 H         1 ASN         0.0551
    102 H34       -20.1658    1.8332   34.8687 H         1 ASN         0.1814
    103 H35       -19.4974    3.3375   35.4075 H         1 ASN         0.1814
    104 H36       -17.8687    6.1764   30.5109 H         1 PHE         0.1885
    105 H37       -16.5513    8.3889   31.8593 H         1 PHE         0.0823
    106 H38       -16.3622    9.3410   29.5212 H         1 PHE         0.0474
    107 H39       -17.2199    7.8767   28.9324 H         1 PHE         0.0474
    108 H40       -14.1843    9.0129   30.7823 H         1 PHE         0.0557
    109 H41       -16.0374    5.8705   28.5694 H         1 PHE         0.0557
    110 H42       -12.0398    7.7795   30.7652 H         1 PHE         0.0599
    111 H43       -13.8823    4.6468   28.5028 H         1 PHE         0.0599
    112 H44       -11.8887    5.5923   29.6275 H         1 PHE         0.0559
    113 H45       -17.1378   10.5195   31.9818 H         1 GLU         0.1883
    114 H46       -20.0594   11.0138   31.7013 H         1 GLU         0.0801
    115 H47       -19.4866   13.0912   33.1101 H         1 GLU         0.0330
    116 H48       -17.8968   12.3054   33.3959 H         1 GLU         0.0330
    117 H49       -19.3236   11.8401   35.2642 H         1 GLU         0.0433
    118 H50       -19.1125   10.3257   34.3215 H         1 GLU         0.0433
    119 H51       -20.7907   12.9690   30.7648 H         1 LYS         0.1883
    120 H52       -19.4347   13.4772   28.3198 H         1 LYS         0.0800
    121 H53       -21.2780   15.3576   28.1888 H         1 LYS         0.0312
    122 H54       -21.9267   14.5220   29.6406 H         1 LYS         0.0312
    123 H55       -21.5792   12.3494   28.1603 H         1 LYS         0.0269
    124 H56       -21.6369   13.5236   26.8021 H         1 LYS         0.0269
    125 H57       -23.8056   14.3408   27.5706 H         1 LYS         0.0317
    126 H58       -23.7437   13.2294   28.9804 H         1 LYS         0.0317
    127 H59       -23.6251   11.3064   27.4095 H         1 LYS         0.0813
    128 H60       -23.8026   12.4525   26.0378 H         1 LYS         0.0813
    129 H61       -25.9150   11.5057   26.6962 H         1 LYS         0.1994
    130 H62       -25.9166   13.1281   26.9742 H         1 LYS         0.1994
    131 H63       -25.7539   12.0779   28.2312 H         1 LYS         0.1994
    132 H64       -18.4867   15.1631   27.4449 H         1 LEU         0.1875
    133 H65       -16.8594   16.8079   29.1889 H         1 LEU         0.0726
    134 H66       -16.0244   17.7275   27.0031 H         1 LEU         0.0308
    135 H67       -17.2290   16.6931   26.1630 H         1 LEU         0.0308
    136 H68       -16.1191   14.6873   26.9351 H         1 LEU         0.0297
    137 H69       -13.9579   14.9415   25.7844 H         1 LEU         0.0232
    138 H70       -14.1365   16.7277   25.8472 H         1 LEU         0.0232
    139 H71       -15.2902   15.7430   24.8849 H         1 LEU         0.0232
    140 H72       -15.4375   15.5419   29.1455 H         1 LEU         0.0232
    141 H73       -14.2011   16.5814   28.3599 H         1 LEU         0.0232
    142 H74       -14.0601   14.7930   28.2689 H         1 LEU         0.0232
@<TRIPOS>BOND
     1    1    2 1  
     2    2    3 1  
     3    2    5 1  
     4    3    4 2  
     5    3    7 am 
     6    5    6 1  
     7    7    8 1  
     8    8    9 1  
     9    8   11 1  
    10    9   10 2  
    11    9   15 am 
    12   11   12 1  
    13   11   13 1  
    14   12   14 1  
    15   15   16 1  
    16   16   17 1  
    17   16   19 1  
    18   17   18 2  
    19   17   23 am 
    20   19   20 1  
    21   19   21 1  
    22   20   22 1  
    23   23   24 1  
    24   24   25 1  
    25   24   27 1  
    26   25   26 2  
    27   25   31 am 
    28   27   28 1  
    29   28   29 2  
    30   28   30 am 
    31   31   32 1  
    32   32   33 1  
    33   32   35 1  
    34   33   34 2  
    35   33   42 am 
    36   35   36 1  
    37   36   37 ar 
    38   36   38 ar 
    39   37   39 ar 
    40   38   40 ar 
    41   39   41 ar 
    42   40   41 ar 
    43   42   43 1  
    44   43   44 1  
    45   43   46 1  
    46   44   45 2  
    47   44   51 am 
    48   46   47 1  
    49   47   48 1  
    50   48   49 ar 
    51   48   50 ar 
    52   51   52 1  
    53   52   53 1  
    54   52   55 1  
    55   53   54 2  
    56   53   60 am 
    57   55   56 1  
    58   56   57 1  
    59   57   58 1  
    60   58   59 1  
    61   60   61 1  
    62   61   62 1  
    63   61   64 1  
    64   62   63 ar 
    65   62   68 ar 
    66   64   65 1  
    67   65   66 1  
    68   65   67 1  
    69    1   69 1  
    70    1   70 1  
    71    1   71 1  
    72    2   72 1  
    73    5   73 1  
    74    5   74 1  
    75    6   75 1  
    76    7   76 1  
    77    8   77 1  
    78   11   78 1  
    79   12   79 1  
    80   12   80 1  
    81   13   81 1  
    82   13   82 1  
    83   13   83 1  
    84   14   84 1  
    85   14   85 1  
    86   14   86 1  
    87   15   87 1  
    88   16   88 1  
    89   19   89 1  
    90   20   90 1  
    91   20   91 1  
    92   21   92 1  
    93   21   93 1  
    94   21   94 1  
    95   22   95 1  
    96   22   96 1  
    97   22   97 1  
    98   23   98 1  
    99   24   99 1  
   100   27  100 1  
   101   27  101 1  
   102   30  102 1  
   103   30  103 1  
   104   31  104 1  
   105   32  105 1  
   106   35  106 1  
   107   35  107 1  
   108   37  108 1  
   109   38  109 1  
   110   39  110 1  
   111   40  111 1  
   112   41  112 1  
   113   42  113 1  
   114   43  114 1  
   115   46  115 1  
   116   46  116 1  
   117   47  117 1  
   118   47  118 1  
   119   51  119 1  
   120   52  120 1  
   121   55  121 1  
   122   55  122 1  
   123   56  123 1  
   124   56  124 1  
   125   57  125 1  
   126   57  126 1  
   127   58  127 1  
   128   58  128 1  
   129   59  129 1  
   130   59  130 1  
   131   59  131 1  
   132   60  132 1  
   133   61  133 1  
   134   64  134 1  
   135   64  135 1  
   136   65  136 1  
   137   66  137 1  
   138   66  138 1  
   139   66  139 1  
   140   67  140 1  
   141   67  141 1  
   142   67  142 1  
@<TRIPOS>SUBSTRUCTURE
     1 SER         1

