### 
### Created by X-TOOL on Fri Sep 26 17:34:52 2014
### 

@<TRIPOS>MOLECULE
3p9t_ligand
   24    25     1     0     0
SMALL
GAST_HUCK


@<TRIPOS>ATOM
      1 C1        -22.2890   -3.4620   27.3350 C.ar      1 TCL        -0.0268
      2 C2        -22.6800   -2.3600   28.0440 C.ar      1 TCL         0.0206
      3 C6        -21.2270   -4.2110   27.7930 C.ar      1 TCL         0.1219
      4 C5        -20.5570   -3.7980   29.0600 C.ar      1 TCL         0.1456
      5 C4        -20.9960   -2.6810   29.7340 C.ar      1 TCL        -0.0358
      6 C3        -22.0610   -1.9750   29.2190 C.ar      1 TCL        -0.0668
      7 C11       -15.5710   -3.9230   28.6410 C.ar      1 TCL         0.0295
      8 C10       -15.9070   -4.9940   29.4910 C.ar      1 TCL        -0.0419
      9 C9        -17.2420   -5.1490   29.8060 C.ar      1 TCL         0.0726
     10 C8        -18.2410   -4.2160   29.2640 C.ar      1 TCL         0.1281
     11 C12       -16.5180   -3.0290   28.1240 C.ar      1 TCL        -0.0558
     12 C13       -17.8670   -3.1680   28.4300 C.ar      1 TCL        -0.0276
     13 O7        -19.5170   -4.4780   29.6260 O.3       1 TCL        -0.2599
     14 CL14      -24.0480   -1.3970   27.4300 Cl        1 TCL        -0.0832
     15 CL15      -13.8530   -3.7250   28.2060 Cl        1 TCL        -0.0806
     16 CL16      -17.8770   -6.4320   30.8640 Cl        1 TCL        -0.0778
     17 O17       -20.8990   -5.3190   27.0480 O.3       1 TCL        -0.3359
     18 H1        -22.8074   -3.7424   26.4252 H         1 TCL         0.0516
     19 H2        -20.5136   -2.3633   30.6513 H         1 TCL         0.0521
     20 H3        -22.4214   -1.0990   29.7461 H         1 TCL         0.0504
     21 H4        -15.1513   -5.6666   29.8805 H         1 TCL         0.0602
     22 H5        -16.1953   -2.2202   27.4784 H         1 TCL         0.0598
     23 H6        -18.6043   -2.4809   28.0309 H         1 TCL         0.0551
     24 H7        -21.4669   -5.3677   26.2880 H         1 TCL         0.2447
@<TRIPOS>BOND
     1    1    2 ar 
     2    3    1 ar 
     3    6    2 ar 
     4    2   14 1  
     5    4    3 ar 
     6    3   17 1  
     7    4    5 ar 
     8   13    4 1  
     9    5    6 ar 
    10    8    7 ar 
    11    7   11 ar 
    12    7   15 1  
    13    9    8 ar 
    14   10    9 ar 
    15    9   16 1  
    16   10   12 ar 
    17   10   13 1  
    18   11   12 ar 
    19    1   18 1  
    20    5   19 1  
    21    6   20 1  
    22    8   21 1  
    23   11   22 1  
    24   12   23 1  
    25   17   24 1  
@<TRIPOS>SUBSTRUCTURE
     1 TCL         1

