### 
### Created by X-TOOL on Mon Sep 10 21:13:03 2018
### 

@<TRIPOS>MOLECULE
3pa3_ligand
   45    48     1     0     0
SMALL
GAST_HUCK


@<TRIPOS>ATOM
      1 C01        18.7050   -2.9680   10.4390 C.2       1 C70        -0.0278
      2 C02        19.2210   -2.0430    9.5330 C.2       1 C70         0.0566
      3 S03        18.0400   -0.9130    9.0410 S.3       1 C70        -0.0040
      4 C04        16.8210   -1.6100   10.0370 C.ar      1 C70         0.1052
      5 C05        17.3370   -2.7040   10.7400 C.ar      1 C70         0.0552
      6 C06        15.5540   -1.2230   10.1960 C.ar      1 C70         0.1466
      7 N07        14.7480   -1.9080   11.0650 N.ar      1 C70        -0.2640
      8 N08        15.2300   -2.9480   11.7760 N.ar      1 C70        -0.2780
      9 C09        16.4750   -3.3750   11.6670 C.ar      1 C70         0.1216
     10 N10        16.9490   -4.4260   12.4280 N.pl3     1 C70        -0.2872
     11 C11        20.5390   -2.0440    8.9380 C.ar      1 C70         0.0019
     12 C12        15.0550   -0.0500    9.5550 C.2       1 C70         0.2355
     13 C13        16.2100   -4.8510   13.6030 C.3       1 C70         0.0837
     14 C14        16.6070   -3.9230   14.8040 C.3       1 C70        -0.0092
     15 N15        15.9710   -4.3760   16.0760 N.4       1 C70         0.2287
     16 C16        16.4140   -5.7440   16.4020 C.3       1 C70        -0.0335
     17 C17        15.9740   -6.7040   15.2750 C.3       1 C70        -0.0102
     18 C18        16.6550   -6.2700   13.9550 C.3       1 C70        -0.0191
     19 C19        21.3840   -3.1770    9.0300 C.ar      1 C70        -0.0499
     20 C20        22.6200   -3.1730    8.3830 C.ar      1 C70        -0.0455
     21 C21        23.0060   -2.0450    7.6780 C.ar      1 C70         0.0423
     22 C22        22.1760   -0.9210    7.5720 C.ar      1 C70        -0.0455
     23 C23        20.9270   -0.9130    8.2080 C.ar      1 C70        -0.0499
     24 CL24       24.5510   -2.0560    6.8360 Cl        1 C70        -0.0686
     25 N25        13.8320    0.3670    9.8990 N.am      1 C70        -0.2951
     26 O26        15.7310    0.5900    8.7360 O.2       1 C70        -0.3692
     27 H1         19.2768   -3.7913   10.8646 H         1 C70         0.0542
     28 H2         17.8215   -4.9052   12.1633 H         1 C70         0.1913
     29 H3         15.1264   -4.8120   13.4180 H         1 C70         0.0622
     30 H4         16.2792   -2.8958   14.5861 H         1 C70         0.0838
     31 H5         17.7002   -3.9414   14.9243 H         1 C70         0.0838
     32 H6         14.9686   -4.3661   15.9701 H         1 C70         0.2014
     33 H7         16.2362   -3.7525   16.8223 H         1 C70         0.2014
     34 H8         15.9602   -6.0607   17.3527 H         1 C70         0.0814
     35 H9         17.5099   -5.7634   16.4944 H         1 C70         0.0814
     36 H10        14.8810   -6.6609   15.1585 H         1 C70         0.0318
     37 H11        16.2758   -7.7316   15.5260 H         1 C70         0.0318
     38 H12        17.7476   -6.2926   14.0800 H         1 C70         0.0292
     39 H13        16.3640   -6.9579   13.1474 H         1 C70         0.0292
     40 H14        21.0715   -4.0439    9.6009 H         1 C70         0.0639
     41 H15        23.2688   -4.0401    8.4313 H         1 C70         0.0627
     42 H16        22.4993   -0.0593    6.9992 H         1 C70         0.0627
     43 H17        20.2750   -0.0499    8.1365 H         1 C70         0.0639
     44 H18        13.4446    1.1849    9.4736 H         1 C70         0.1817
     45 H19        13.3048   -0.1390   10.5816 H         1 C70         0.1817
@<TRIPOS>BOND
     1    1    2 2  
     2    1    5 1  
     3    2    3 1  
     4    2   11 1  
     5    3    4 1  
     6    4    5 ar 
     7    4    6 ar 
     8    5    9 ar 
     9    6    7 ar 
    10    6   12 1  
    11    7    8 ar 
    12    8    9 ar 
    13    9   10 1  
    14   10   13 1  
    15   11   19 ar 
    16   11   23 ar 
    17   12   25 am 
    18   12   26 2  
    19   13   14 1  
    20   13   18 1  
    21   14   15 1  
    22   15   16 1  
    23   16   17 1  
    24   17   18 1  
    25   19   20 ar 
    26   20   21 ar 
    27   21   22 ar 
    28   21   24 1  
    29   22   23 ar 
    30    1   27 1  
    31   10   28 1  
    32   13   29 1  
    33   14   30 1  
    34   14   31 1  
    35   15   32 1  
    36   15   33 1  
    37   16   34 1  
    38   16   35 1  
    39   17   36 1  
    40   17   37 1  
    41   18   38 1  
    42   18   39 1  
    43   19   40 1  
    44   20   41 1  
    45   22   42 1  
    46   23   43 1  
    47   25   44 1  
    48   25   45 1  
@<TRIPOS>SUBSTRUCTURE
     1 C70         1

