### 
### Created by X-TOOL on Mon Sep 10 21:13:04 2018
### 

@<TRIPOS>MOLECULE
3pa4_ligand
   46    49     1     0     0
SMALL
GAST_HUCK


@<TRIPOS>ATOM
      1 C01        18.3630   -2.9740   10.4180 C.2       1 C72        -0.0466
      2 C02        18.8580   -2.0370    9.5150 C.2       1 C72         0.0387
      3 S03        17.6570   -0.9360    9.0660 S.3       1 C72        -0.0257
      4 C04        16.4680   -1.6520   10.0720 C.ar      1 C72         0.0653
      5 C05        16.9860   -2.7550   10.7430 C.ar      1 C72         0.0327
      6 C06        15.1290   -1.2360   10.2720 C.ar      1 C72         0.0726
      7 C07        14.3710   -1.9810   11.1150 C.ar      1 C72         0.0053
      8 N08        14.8120   -3.0400   11.7490 N.ar      1 C72        -0.2894
      9 C09        16.1060   -3.4400   11.6610 C.ar      1 C72         0.1176
     10 N10        16.5340   -4.5270   12.3870 N.pl3     1 C72        -0.2962
     11 C11        20.2200   -1.9700    8.9360 C.ar      1 C72        -0.0086
     12 C12        14.5930   -0.0750    9.5780 C.2       1 C72         0.1961
     13 C13        15.8280   -4.8960   13.6230 C.3       1 C72         0.0799
     14 C14        16.2220   -3.9310   14.7840 C.3       1 C72        -0.0098
     15 N15        15.6350   -4.4330   16.0700 N.4       1 C72         0.2286
     16 C16        16.1170   -5.7830   16.4050 C.3       1 C72        -0.0335
     17 C17        15.6750   -6.7890   15.3280 C.3       1 C72        -0.0103
     18 C18        16.2700   -6.3380   13.9760 C.3       1 C72        -0.0198
     19 C19        20.6320   -0.8450    8.2190 C.ar      1 C72        -0.0541
     20 C20        21.9090   -0.7930    7.6750 C.ar      1 C72        -0.0485
     21 C21        22.7670   -1.8730    7.8620 C.ar      1 C72         0.0394
     22 C22        22.3730   -3.0020    8.5630 C.ar      1 C72        -0.0485
     23 C23        21.0900   -3.0440    9.1150 C.ar      1 C72        -0.0541
     24 CL24       24.3620   -1.8100    7.1740 Cl        1 C72        -0.0712
     25 N25        13.3450    0.3870    9.9930 N.am      1 C72        -0.3020
     26 O26        15.2350    0.4800    8.6620 O.2       1 C72        -0.3912
     27 H          18.9595   -3.7866   10.8328 H         1 C72         0.0470
     28 H          13.3351   -1.6816   11.2744 H         1 C72         0.0774
     29 H          17.3352   -5.0731   12.0704 H         1 C72         0.1849
     30 H          14.7489   -4.8308   13.4837 H         1 C72         0.0613
     31 H          15.8380   -2.9328   14.5738 H         1 C72         0.0837
     32 H          17.3078   -3.8903   14.8709 H         1 C72         0.0837
     33 H          14.6213   -4.4730   15.9642 H         1 C72         0.2014
     34 H          15.9156   -3.7990   16.8181 H         1 C72         0.2014
     35 H          15.6983   -6.0826   17.3657 H         1 C72         0.0814
     36 H          17.2058   -5.7703   16.4553 H         1 C72         0.0814
     37 H          14.5871   -6.8205   15.2676 H         1 C72         0.0318
     38 H          16.0298   -7.7884   15.5796 H         1 C72         0.0318
     39 H          17.3573   -6.3606   14.0494 H         1 C72         0.0292
     40 H          15.9137   -7.0118   13.1968 H         1 C72         0.0292
     41 H          19.9498   -0.0054    8.0858 H         1 C72         0.0614
     42 H          22.2344    0.0805    7.1101 H         1 C72         0.0620
     43 H          23.0540   -3.8447    8.6819 H         1 C72         0.0620
     44 H          20.7698   -3.9161    9.6852 H         1 C72         0.0614
     45 H          12.9285    1.2031    9.5449 H         1 C72         0.1804
     46 H          12.8484   -0.0911   10.7448 H         1 C72         0.1804
@<TRIPOS>BOND
     1    1    2 2  
     2    1    5 1  
     3    2    3 1  
     4    2   11 1  
     5    3    4 1  
     6    4    5 ar 
     7    4    6 ar 
     8    5    9 ar 
     9    6    7 ar 
    10    6   12 1  
    11    7    8 ar 
    12    8    9 ar 
    13    9   10 1  
    14   10   13 1  
    15   11   19 ar 
    16   11   23 ar 
    17   12   25 am 
    18   12   26 2  
    19   13   14 1  
    20   13   18 1  
    21   14   15 1  
    22   15   16 1  
    23   16   17 1  
    24   17   18 1  
    25   19   20 ar 
    26   20   21 ar 
    27   21   22 ar 
    28   21   24 1  
    29   22   23 ar 
    30    1   27 1  
    31    7   28 1  
    32   10   29 1  
    33   13   30 1  
    34   14   31 1  
    35   14   32 1  
    36   15   33 1  
    37   15   34 1  
    38   16   35 1  
    39   16   36 1  
    40   17   37 1  
    41   17   38 1  
    42   18   39 1  
    43   18   40 1  
    44   19   41 1  
    45   20   42 1  
    46   22   43 1  
    47   23   44 1  
    48   25   45 1  
    49   25   46 1  
@<TRIPOS>SUBSTRUCTURE
     1 C72         1

