### 
### Created by X-TOOL on Mon Sep 10 21:13:03 2018
### 

@<TRIPOS>MOLECULE
3pa5_ligand
   45    47     1     0     0
SMALL
GAST_HUCK


@<TRIPOS>ATOM
      1 S01        17.5890   -0.9460    9.0380 S.3       1 C73        -0.0012
      2 C02        16.3890   -1.5600   10.0860 C.2       1 C73         0.1626
      3 C03        16.8590   -2.5890   10.8490 C.2       1 C73         0.0587
      4 C04        18.1950   -2.9040   10.5270 C.2       1 C73        -0.0696
      5 C05        18.7240   -2.0730    9.5300 C.2       1 C73         0.0206
      6 N06        15.1170   -1.0140   10.1860 N.am      1 C73        -0.1889
      7 C07        14.6720    0.0380    9.4820 C.2       1 C73         0.2989
      8 N08        13.3840    0.3810    9.7940 N.am      1 C73        -0.2791
      9 O09        15.3170    0.6450    8.6030 O.2       1 C73        -0.3850
     10 C10        15.9870   -3.2120   11.8270 C.2       1 C73         0.1724
     11 O11        14.8510   -2.8400   11.9220 O.2       1 C73        -0.4089
     12 N12        16.5340   -4.2490   12.5440 N.am      1 C73        -0.2855
     13 C13        15.7620   -4.8940   13.6280 C.3       1 C73         0.0802
     14 C14        16.1180   -3.9770   14.8780 C.3       1 C73        -0.0103
     15 N15        15.5520   -4.4760   16.1660 N.4       1 C73         0.2286
     16 C16        16.0320   -5.8270   16.4700 C.3       1 C73        -0.0335
     17 C17        15.7490   -6.8040   15.3200 C.3       1 C73        -0.0103
     18 C18        16.3030   -6.2790   13.9590 C.3       1 C73        -0.0203
     19 C19        20.0670   -2.0670    8.9800 C.ar      1 C73        -0.0290
     20 C20        20.5480   -0.9530    8.2740 C.ar      1 C73        -0.0635
     21 C21        21.8320   -0.9380    7.7770 C.ar      1 C73        -0.0555
     22 C22        22.6780   -2.0220    8.0010 C.ar      1 C73         0.0326
     23 C23        22.2260   -3.1240    8.7170 C.ar      1 C73        -0.0555
     24 C24        20.9230   -3.1360    9.2130 C.ar      1 C73        -0.0635
     25 CL25       24.2940   -2.0100    7.3690 Cl        1 C73        -0.0770
     26 H          18.7566   -3.7080   11.0027 H         1 C73         0.0435
     27 H          14.4702   -1.4460   10.8459 H         1 C73         0.2441
     28 H          12.9279    1.1502    9.3033 H         1 C73         0.1820
     29 H          12.8804   -0.1326   10.5171 H         1 C73         0.1820
     30 H          17.4760   -4.5750   12.3277 H         1 C73         0.1833
     31 H          14.7078   -4.9930   13.3693 H         1 C73         0.0607
     32 H          15.6900   -2.9918   14.6929 H         1 C73         0.0836
     33 H          17.2033   -3.9695   14.9792 H         1 C73         0.0836
     34 H          14.5355   -4.5028   16.0855 H         1 C73         0.2014
     35 H          15.8477   -3.8499   16.9150 H         1 C73         0.2014
     36 H          15.5118   -6.1838   17.3589 H         1 C73         0.0814
     37 H          17.1102   -5.7813   16.6236 H         1 C73         0.0814
     38 H          14.6690   -6.9186   15.2275 H         1 C73         0.0317
     39 H          16.2411   -7.7498   15.5468 H         1 C73         0.0317
     40 H          17.3888   -6.2156   14.0313 H         1 C73         0.0291
     41 H          15.9914   -6.9667   13.1728 H         1 C73         0.0291
     42 H          19.8987   -0.0915    8.1178 H         1 C73         0.0558
     43 H          22.1865   -0.0782    7.2084 H         1 C73         0.0603
     44 H          22.8862   -3.9739    8.8898 H         1 C73         0.0603
     45 H          20.5726   -3.9924    9.7891 H         1 C73         0.0558
@<TRIPOS>BOND
     1    1    2 1  
     2    1    5 1  
     3    2    3 2  
     4    2    6 1  
     5    3    4 1  
     6    3   10 1  
     7    4    5 2  
     8    5   19 1  
     9    6    7 am 
    10    7    8 am 
    11    7    9 2  
    12   10   11 2  
    13   10   12 am 
    14   12   13 1  
    15   13   14 1  
    16   13   18 1  
    17   14   15 1  
    18   15   16 1  
    19   16   17 1  
    20   17   18 1  
    21   19   20 ar 
    22   19   24 ar 
    23   20   21 ar 
    24   21   22 ar 
    25   22   23 ar 
    26   22   25 1  
    27   23   24 ar 
    28    4   26 1  
    29    6   27 1  
    30    8   28 1  
    31    8   29 1  
    32   12   30 1  
    33   13   31 1  
    34   14   32 1  
    35   14   33 1  
    36   15   34 1  
    37   15   35 1  
    38   16   36 1  
    39   16   37 1  
    40   17   38 1  
    41   17   39 1  
    42   18   40 1  
    43   18   41 1  
    44   20   42 1  
    45   21   43 1  
    46   23   44 1  
    47   24   45 1  
@<TRIPOS>SUBSTRUCTURE
     1 C73         1

