### 
### Created by X-TOOL on Mon Sep 10 21:12:46 2018
### 

@<TRIPOS>MOLECULE
3pax_ligand
   20    20     1     0     0
SMALL
GAST_HUCK


@<TRIPOS>ATOM
      1 C3         39.6170   22.1600   22.0970 C.ar      1 3MB         0.0960
      2 O3         38.3090   21.7930   21.7350 O.3       1 3MB        -0.3202
      3 C7         37.7000   22.2580   20.5070 C.3       1 3MB         0.0594
      4 C2         40.5300   22.7300   21.1720 C.ar      1 3MB        -0.0135
      5 C1         41.8440   23.0820   21.5820 C.ar      1 3MB         0.0409
      6 C          42.8110   23.6850   20.5890 C.2       1 3MB         0.1999
      7 O          43.9680   23.9310   20.9360 O.2       1 3MB        -0.3849
      8 N          42.4050   23.9540   19.3400 N.am      1 3MB        -0.3002
      9 C6         42.2430   22.8600   22.9280 C.ar      1 3MB        -0.0531
     10 C5         41.3340   22.3030   23.8440 C.ar      1 3MB        -0.0649
     11 C4         40.0310   21.9570   23.4280 C.ar      1 3MB        -0.0288
     12 H1         36.6811   21.8514   20.4262 H         1 3MB         0.0577
     13 H2         38.2992   21.9188   19.6492 H         1 3MB         0.0577
     14 H3         37.6567   23.3571   20.5124 H         1 3MB         0.0577
     15 H4         40.2229   22.8979   20.1461 H         1 3MB         0.0592
     16 H5         43.0434   24.3529   18.6817 H         1 3MB         0.1808
     17 H6         41.4638   23.7557   19.0666 H         1 3MB         0.1808
     18 H7         43.2459   23.1196   23.2473 H         1 3MB         0.0575
     19 H8         41.6348   22.1389   24.8724 H         1 3MB         0.0601
     20 H9         39.3382   21.5286   24.1433 H         1 3MB         0.0578
@<TRIPOS>BOND
     1    1    2 1  
     2    1    4 ar 
     3    1   11 ar 
     4    2    3 1  
     5    4    5 ar 
     6    5    6 1  
     7    5    9 ar 
     8    6    7 2  
     9    6    8 am 
    10    9   10 ar 
    11   10   11 ar 
    12    3   12 1  
    13    3   13 1  
    14    3   14 1  
    15    4   15 1  
    16    8   16 1  
    17    8   17 1  
    18    9   18 1  
    19   10   19 1  
    20   11   20 1  
@<TRIPOS>SUBSTRUCTURE
     1 3MB         1

