### 
### Created by X-TOOL on Mon Sep 10 21:13:04 2018
### 

@<TRIPOS>MOLECULE
3pb3_ligand
   46    48     1     0     0
SMALL
GAST_HUCK


@<TRIPOS>ATOM
      1 N           8.7710   10.0240   20.9790 N.4       1 SAH         0.2327
      2 CA          9.5830   11.1810   21.4540 C.3       1 SAH         0.0291
      3 CB         10.8240   10.6930   22.2110 C.3       1 SAH         0.0114
      4 CG         11.2600   11.7080   23.2710 C.3       1 SAH         0.0005
      5 SD         12.6930   11.1910   24.1790 S.3       1 SAH        -0.1578
      6 C           9.9860   12.0330   20.2810 C.2       1 SAH         0.0844
      7 O          10.2430   13.2140   20.4890 O.co2     1 SAH        -0.5643
      8 OXT        10.0690   11.6090   19.1210 O.co2     1 SAH        -0.5643
      9 C5'        12.2260    9.6800   24.9600 C.3       1 SAH         0.0226
     10 C4'        10.9330    9.7880   25.7730 C.3       1 SAH         0.0995
     11 O4'        10.5740    8.4710   26.2040 O.3       1 SAH        -0.3383
     12 C3'        11.0220   10.6590   27.0280 C.3       1 SAH         0.1132
     13 O3'        10.0010   11.6650   26.9920 O.3       1 SAH        -0.3864
     14 C2'        10.7660    9.6930   28.1780 C.3       1 SAH         0.1385
     15 O2'        10.0220   10.2530   29.2760 O.3       1 SAH        -0.3836
     16 C1'        10.0320    8.5390   27.5170 C.3       1 SAH         0.2009
     17 N9         10.2510    7.2780   28.2680 N.pl3     1 SAH        -0.1919
     18 C8         11.4320    6.8120   28.7280 C.2       1 SAH         0.1123
     19 N7         11.2650    5.6380   29.3870 N.2       1 SAH        -0.2958
     20 C5          9.9510    5.3460   29.3600 C.ar      1 SAH         0.1045
     21 C6          9.0900    4.2530   29.8620 C.ar      1 SAH         0.1298
     22 N6          9.6180    3.2130   30.5510 N.pl3     1 SAH        -0.3152
     23 N1          7.7600    4.3290   29.6080 N.ar      1 SAH        -0.2698
     24 C2          7.2170    5.3550   28.9210 C.ar      1 SAH         0.0533
     25 N3          7.9410    6.3780   28.4320 N.ar      1 SAH        -0.2714
     26 C4          9.2860    6.4320   28.6190 C.ar      1 SAH         0.1613
     27 H1          8.5029    9.4556   21.7671 H         1 SAH         0.2010
     28 H2          9.3170    9.4715   20.3366 H         1 SAH         0.2010
     29 H3          7.9443   10.3627   20.5123 H         1 SAH         0.2010
     30 H4          8.9700   11.7865   22.1378 H         1 SAH         0.1024
     31 H5         11.6463   10.5460   21.4953 H         1 SAH         0.0347
     32 H6         10.5913    9.7374   22.7035 H         1 SAH         0.0347
     33 H7         10.4306   11.8537   23.9787 H         1 SAH         0.0379
     34 H8         11.4871   12.6611   22.7710 H         1 SAH         0.0379
     35 H9         13.0375    9.3717   25.6356 H         1 SAH         0.0402
     36 H10        12.0856    8.9148   24.1824 H         1 SAH         0.0402
     37 H11        10.1478   10.1968   25.1201 H         1 SAH         0.0632
     38 H12        12.0125   11.1289   27.1175 H         1 SAH         0.0647
     39 H13         9.1481   11.2479   26.9575 H         1 SAH         0.2100
     40 H14        11.7291    9.3406   28.5757 H         1 SAH         0.0676
     41 H15         9.1727   10.5443   28.9657 H         1 SAH         0.2101
     42 H16         8.9527    8.7464   27.4721 H         1 SAH         0.0996
     43 H17        12.3897    7.3114   28.5887 H         1 SAH         0.1349
     44 H18         9.0060    2.4590   30.8945 H         1 SAH         0.1820
     45 H19        10.6314    3.1762   30.7314 H         1 SAH         0.1820
     46 H20         6.1458    5.3552   28.7550 H         1 SAH         0.0996
@<TRIPOS>BOND
     1    1    2 1  
     2    2    3 1  
     3    2    6 1  
     4    3    4 1  
     5    4    5 1  
     6    5    9 1  
     7    6    7 ar 
     8    6    8 ar 
     9    9   10 1  
    10   10   11 1  
    11   10   12 1  
    12   11   16 1  
    13   12   13 1  
    14   12   14 1  
    15   14   15 1  
    16   14   16 1  
    17   16   17 1  
    18   17   18 1  
    19   17   26 1  
    20   18   19 2  
    21   19   20 1  
    22   20   21 ar 
    23   20   26 ar 
    24   21   22 1  
    25   21   23 ar 
    26   23   24 ar 
    27   24   25 ar 
    28   25   26 ar 
    29    1   27 1  
    30    1   28 1  
    31    1   29 1  
    32    2   30 1  
    33    3   31 1  
    34    3   32 1  
    35    4   33 1  
    36    4   34 1  
    37    9   35 1  
    38    9   36 1  
    39   10   37 1  
    40   12   38 1  
    41   13   39 1  
    42   14   40 1  
    43   15   41 1  
    44   16   42 1  
    45   18   43 1  
    46   22   44 1  
    47   22   45 1  
    48   24   46 1  
@<TRIPOS>SUBSTRUCTURE
     1 SAH         1

