### 
### Created by X-TOOL on Mon Sep 10 21:13:05 2018
### 

@<TRIPOS>MOLECULE
3pb7_ligand
   42    43     1     0     0
SMALL
GAST_HUCK


@<TRIPOS>ATOM
      1 CAA         0.7170   51.0540   21.9440 C.3       1 PBD         0.0539
      2 CAB         1.7390   46.9840   18.2750 C.3       1 PBD         0.0566
      3 SAC         8.1040   49.6840   17.1240 S.2       1 PBD        -0.2989
      4 CAD         8.4590   47.0570   25.4860 C.2       1 PBD        -0.0236
      5 CAE         4.2220   51.2760   19.5070 C.ar      1 PBD        -0.0582
      6 CAF         3.0220   51.2880   20.2740 C.ar      1 PBD        -0.0530
      7 CAG         8.6820   46.9550   24.1640 C.2       1 PBD         0.0363
      8 CAH         8.8000   49.0370   24.6940 C.2       1 PBD         0.0974
      9 CAI         3.5280   49.1630   18.4620 C.ar      1 PBD        -0.0184
     10 CAJ         7.9920   48.7920   21.5390 C.3       1 PBD        -0.0025
     11 CAK         8.2810   49.2810   20.1530 C.3       1 PBD         0.0394
     12 CAL         9.2550   48.5950   22.3120 C.3       1 PBD         0.0604
     13 NAM         8.4510   48.3650   25.8190 N.2       1 PBD        -0.3302
     14 NAN         6.9750   49.6240   19.5500 N.am      1 PBD        -0.2790
     15 NAO         5.5620   50.1180   17.8580 N.am      1 PBD        -0.2403
     16 OAP         0.9140   50.0700   20.8630 O.3       1 PBD        -0.3339
     17 OAQ         1.4390   48.1300   19.1260 O.3       1 PBD        -0.3282
     18 CAR         6.7900   49.8200   18.2690 C.2       1 PBD         0.1596
     19 CAS         4.4440   50.1970   18.6240 C.ar      1 PBD         0.0531
     20 CAT         2.0870   50.2270   20.1090 C.ar      1 PBD         0.1050
     21 CAU         2.3870   49.1460   19.2600 C.ar      1 PBD         0.1081
     22 NAV         8.9530   48.1610   23.6980 N.pl3     1 PBD        -0.2521
     23 H1         -0.2265   50.8397   22.4674 H         1 PBD         0.0568
     24 H2          0.6769   52.0663   21.5156 H         1 PBD         0.0568
     25 H3          1.5536   50.9897   22.6553 H         1 PBD         0.0568
     26 H4          0.8882   46.2869   18.2855 H         1 PBD         0.0573
     27 H5          2.6368   46.4724   18.6520 H         1 PBD         0.0573
     28 H6          1.9181   47.3284   17.2458 H         1 PBD         0.0573
     29 H7          8.3100   46.2247   26.1723 H         1 PBD         0.0444
     30 H8          4.9475   52.0762   19.5990 H         1 PBD         0.0395
     31 H9          2.8236   52.0926   20.9727 H         1 PBD         0.0477
     32 H10         8.6455   46.0373   23.5789 H         1 PBD         0.0860
     33 H11         8.9336   50.1149   24.6157 H         1 PBD         0.1215
     34 H12         3.6993   48.3843   17.7276 H         1 PBD         0.0406
     35 H13         7.4548   47.8340   21.4777 H         1 PBD         0.0314
     36 H14         7.3646   49.5317   22.0578 H         1 PBD         0.0314
     37 H15         8.7752   48.4923   19.5667 H         1 PBD         0.0543
     38 H16         8.9278   50.1699   20.1904 H         1 PBD         0.0543
     39 H17         9.8123   49.5429   22.3428 H         1 PBD         0.0626
     40 H18         9.8663   47.8261   21.8170 H         1 PBD         0.0626
     41 H19         6.1855   49.7115   20.1575 H         1 PBD         0.1977
     42 H20         5.4496   50.3036   16.8818 H         1 PBD         0.2321
@<TRIPOS>BOND
     1   16    1 1  
     2   17    2 1  
     3   18    3 2  
     4    7    4 2  
     5   13    4 1  
     6    5    6 ar 
     7   19    5 ar 
     8    6   20 ar 
     9   22    7 1  
    10    8   13 2  
    11   22    8 1  
    12    9   19 ar 
    13   21    9 ar 
    14   11   10 1  
    15   10   12 1  
    16   14   11 1  
    17   12   22 1  
    18   18   14 am 
    19   15   18 am 
    20   19   15 1  
    21   20   16 1  
    22   17   21 1  
    23   20   21 ar 
    24    1   23 1  
    25    1   24 1  
    26    1   25 1  
    27    2   26 1  
    28    2   27 1  
    29    2   28 1  
    30    4   29 1  
    31    5   30 1  
    32    6   31 1  
    33    7   32 1  
    34    8   33 1  
    35    9   34 1  
    36   10   35 1  
    37   10   36 1  
    38   11   37 1  
    39   11   38 1  
    40   12   39 1  
    41   12   40 1  
    42   14   41 1  
    43   15   42 1  
@<TRIPOS>SUBSTRUCTURE
     1 PBD         1

