### 
### Created by X-TOOL on Mon Sep 10 21:13:05 2018
### 

@<TRIPOS>MOLECULE
3pb8_ligand
   22    22     1     0     0
SMALL
GAST_HUCK


@<TRIPOS>ATOM
      1 C         -18.3450  -14.9810   18.6880 C.2       1 AHN         0.1730
      2 O         -18.8750  -15.7380   17.8180 O.2       1 AHN        -0.3974
      3 CT        -18.3810  -15.2390   20.2340 C.3       1 AHN         0.0257
      4 N         -17.7070  -13.8830   18.3250 N.am      1 AHN        -0.2858
      5 CA        -17.5180  -13.6490   16.9360 C.3       1 AHN         0.0368
      6 CB        -18.5570  -12.6130   16.3630 C.3       1 AHN        -0.0058
      7 CG        -18.4420  -12.6120   14.8300 C.2       1 AHN        -0.0052
      8 CD2       -18.6660  -13.6240   13.9610 C.2       1 AHN         0.0290
      9 ND1       -18.0020  -11.5980   14.0870 N.2       1 AHN        -0.3254
     10 CE1       -18.0250  -11.9410   12.8340 C.2       1 AHN         0.0907
     11 NE2       -18.4060  -13.2110   12.7010 N.pl3     1 AHN        -0.2752
     12 H1        -17.8467  -14.4298   20.7533 H         1 AHN         0.0467
     13 H2        -17.8957  -16.2007   20.4567 H         1 AHN         0.0467
     14 H3        -19.4258  -15.2674   20.5768 H         1 AHN         0.0467
     15 H4        -17.3671  -13.2356   19.0072 H         1 AHN         0.1852
     16 H5        -17.6324  -14.6011   16.3971 H         1 AHN         0.0536
     17 H6        -16.5024  -13.2575   16.7772 H         1 AHN         0.0536
     18 H7        -18.3350  -11.6088   16.7533 H         1 AHN         0.0392
     19 H8        -19.5753  -12.9047   16.6594 H         1 AHN         0.0392
     20 H9        -19.0050  -14.6218   14.2356 H         1 AHN         0.0729
     21 H10       -17.7683  -11.2814   12.0064 H         1 AHN         0.1199
     22 H11       -18.4848  -13.7566   11.8310 H         1 AHN         0.2361
@<TRIPOS>BOND
     1    1    2 2  
     2    1    3 1  
     3    1    4 am 
     4    4    5 1  
     5    5    6 1  
     6    6    7 1  
     7    7    8 2  
     8    7    9 1  
     9    8   11 1  
    10    9   10 2  
    11   10   11 1  
    12    3   12 1  
    13    3   13 1  
    14    3   14 1  
    15    4   15 1  
    16    5   16 1  
    17    5   17 1  
    18    6   18 1  
    19    6   19 1  
    20    8   20 1  
    21   10   21 1  
    22   11   22 1  
@<TRIPOS>SUBSTRUCTURE
     1 AHN         1

