### 
### Created by X-TOOL on Mon Sep 10 21:13:05 2018
### 

@<TRIPOS>MOLECULE
3pb9_ligand
   22    23     1     0     0
SMALL
GAST_HUCK


@<TRIPOS>ATOM
      1 C1          8.6630   11.9590  -14.6690 C.2       1 1BN         0.0384
      2 C2          8.3320   12.0650  -13.3690 C.2       1 1BN        -0.0234
      3 N1          8.9190   13.1740  -15.1450 N.pl3     1 1BN        -0.2408
      4 C3          8.7760   14.0350  -14.1160 C.2       1 1BN         0.0993
      5 N2          8.3840   13.3990  -13.0380 N.2       1 1BN        -0.3301
      6 C4          9.4620   13.4600  -16.5180 C.3       1 1BN         0.0922
      7 C5          8.6620   14.4450  -17.2510 C.ar      1 1BN        -0.0121
      8 C6          7.3100   14.4530  -17.2390 C.ar      1 1BN        -0.0576
      9 C7          9.3770   15.3400  -18.0310 C.ar      1 1BN        -0.0576
     10 C8          6.5680   15.3750  -17.9880 C.ar      1 1BN        -0.0685
     11 C9          8.7020   16.3220  -18.7500 C.ar      1 1BN        -0.0685
     12 C10         7.2940   16.3020  -18.6880 C.ar      1 1BN        -0.0687
     13 H1          8.7130   11.0314  -15.2374 H         1 1BN         0.0862
     14 H2          8.0709   11.2451  -12.7015 H         1 1BN         0.0444
     15 H3          8.9601   15.1068  -14.1726 H         1 1BN         0.1216
     16 H4          9.4772   12.5220  -17.0924 H         1 1BN         0.0790
     17 H5         10.4875   13.8450  -16.4173 H         1 1BN         0.0790
     18 H6          6.7849   13.7245  -16.6319 H         1 1BN         0.0558
     19 H7         10.4579   15.2754  -18.0809 H         1 1BN         0.0558
     20 H8          5.4844   15.3561  -18.0123 H         1 1BN         0.0599
     21 H9          9.2340   17.0671  -19.3303 H         1 1BN         0.0599
     22 H10         6.7512   17.0689  -19.2286 H         1 1BN         0.0559
@<TRIPOS>BOND
     1    1    2 2  
     2    1    3 1  
     3    2    5 1  
     4    3    4 1  
     5    3    6 1  
     6    4    5 2  
     7    6    7 1  
     8    7    8 ar 
     9    7    9 ar 
    10    8   10 ar 
    11    9   11 ar 
    12   10   12 ar 
    13   11   12 ar 
    14    1   13 1  
    15    2   14 1  
    16    4   15 1  
    17    6   16 1  
    18    6   17 1  
    19    8   18 1  
    20    9   19 1  
    21   10   20 1  
    22   11   21 1  
    23   12   22 1  
@<TRIPOS>SUBSTRUCTURE
     1 1BN         1

