### 
### Created by X-TOOL on Mon Sep 10 21:13:06 2018
### 

@<TRIPOS>MOLECULE
3pbb_ligand
   42    43     1     0     0
SMALL
GAST_HUCK


@<TRIPOS>ATOM
      1 CAA         3.4040   76.5310    1.0340 C.3       1 PBD         0.0554
      2 CAB         3.6190   71.6740    3.2840 C.3       1 PBD         0.0567
      3 SAC         0.9770   74.8840    9.2290 S.3       1 PBD        -0.0457
      4 CAD        -5.6270   75.3090    3.6370 C.2       1 PBD        -0.0236
      5 CAE         2.4050   76.2670    4.9990 C.ar      1 PBD        -0.0779
      6 CAF         2.6980   76.4120    3.6430 C.ar      1 PBD        -0.0484
      7 CAG        -4.9940   74.8750    4.7410 C.2       1 PBD         0.0363
      8 CAH        -4.7710   77.1000    4.6120 C.2       1 PBD         0.0974
      9 CAI         2.9570   73.8860    4.8680 C.ar      1 PBD        -0.0382
     10 CAJ        -2.2660   75.6210    6.0550 C.3       1 PBD        -0.0029
     11 CAK        -1.3710   75.6170    7.2960 C.3       1 PBD         0.0392
     12 CAL        -3.6630   76.0000    6.5410 C.3       1 PBD         0.0604
     13 NAM        -5.5210   76.6730    3.6200 N.2       1 PBD        -0.3302
     14 NAN        -0.0120   75.4610    6.7550 N.pl3     1 PBD        -0.2778
     15 NAO         2.2970   74.9180    6.9080 N.2       1 PBD        -0.3177
     16 OAP         3.3840   75.2600    1.6160 O.3       1 PBD        -0.3295
     17 OAQ         3.6610   73.0250    2.6410 O.3       1 PBD        -0.3268
     18 CAR         1.0860   75.1130    7.4940 C.2       1 PBD         0.1680
     19 CAS         2.5420   75.0160    5.6160 C.ar      1 PBD        -0.0271
     20 CAT         3.0920   75.2720    2.9330 C.ar      1 PBD         0.1118
     21 CAU         3.2390   74.0320    3.5050 C.ar      1 PBD         0.1122
     22 NAV        -4.5070   75.9950    5.3300 N.pl3     1 PBD        -0.2521
     23 H1          3.6478   76.4410   -0.0349 H         1 PBD         0.0570
     24 H2          4.1639   77.1507    1.5325 H         1 PBD         0.0570
     25 H3          2.4160   77.0013    1.1463 H         1 PBD         0.0570
     26 H4          3.9601   70.9149    2.5647 H         1 PBD         0.0573
     27 H5          2.5884   71.4477    3.5948 H         1 PBD         0.0573
     28 H6          4.2777   71.6665    4.1649 H         1 PBD         0.0573
     29 H7          1.8835   74.6328    9.5912 H         1 PBD         0.1382
     30 H8         -6.1300   74.6905    2.8951 H         1 PBD         0.0444
     31 H9          2.0713   77.1220    5.5757 H         1 PBD         0.0431
     32 H10         2.6229   77.3769    3.1547 H         1 PBD         0.0493
     33 H11        -4.8941   73.8472    5.0869 H         1 PBD         0.0860
     34 H12        -4.4389   78.1185    4.8076 H         1 PBD         0.1215
     35 H13         3.0550   72.9184    5.3468 H         1 PBD         0.0438
     36 H14        -2.2807   74.6234    5.5918 H         1 PBD         0.0314
     37 H15        -1.9027   76.3591    5.3248 H         1 PBD         0.0314
     38 H16        -1.6263   74.7775    7.9594 H         1 PBD         0.0538
     39 H17        -1.4653   76.5632    7.8490 H         1 PBD         0.0538
     40 H18        -3.6538   76.9992    7.0009 H         1 PBD         0.0625
     41 H19        -4.0308   75.2637    7.2708 H         1 PBD         0.0625
     42 H20         0.1229   75.6256    5.7472 H         1 PBD         0.1959
@<TRIPOS>BOND
     1   16    1 1  
     2   17    2 1  
     3   18    3 1  
     4    7    4 2  
     5   13    4 1  
     6    5    6 ar 
     7   19    5 ar 
     8    6   20 ar 
     9   22    7 1  
    10    8   13 2  
    11   22    8 1  
    12    9   19 ar 
    13   21    9 ar 
    14   11   10 1  
    15   10   12 1  
    16   14   11 1  
    17   12   22 1  
    18   18   14 1  
    19   15   18 2  
    20   19   15 1  
    21   20   16 1  
    22   17   21 1  
    23   20   21 ar 
    24    1   23 1  
    25    1   24 1  
    26    1   25 1  
    27    2   26 1  
    28    2   27 1  
    29    2   28 1  
    30    3   29 1  
    31    4   30 1  
    32    5   31 1  
    33    6   32 1  
    34    7   33 1  
    35    8   34 1  
    36    9   35 1  
    37   10   36 1  
    38   10   37 1  
    39   11   38 1  
    40   11   39 1  
    41   12   40 1  
    42   12   41 1  
    43   14   42 1  
@<TRIPOS>SUBSTRUCTURE
     1 PBD         1

