### 
### Created by X-TOOL on Mon Sep 10 21:12:46 2018
### 

@<TRIPOS>MOLECULE
3pcb_ligand
   15    15     1     0     0
SMALL
GAST_HUCK


@<TRIPOS>ATOM
      1 H1         16.3086   11.0132   39.5841 H         1 3HB         0.0574
      2 H2         12.8688    9.3498   41.5132 H         1 3HB         0.0563
      3 H3         12.3025   11.6083   42.4279 H         1 3HB         0.0596
      4 H4         13.6888   13.5742   41.8803 H         1 3HB         0.0557
      5 C1'        16.0260   13.6040   40.3710 C.2       1 3HB         0.0604
      6 O1'        17.0400   13.3720   39.6730 O.co2     1 3HB        -0.5607
      7 O2'        15.8070   14.7550   40.7850 O.co2     1 3HB        -0.5607
      8 C1         15.1070   12.4240   40.7050 C.ar      1 3HB         0.0014
      9 C2         15.4280   11.1420   40.2030 C.ar      1 3HB        -0.0193
     10 C3         14.6230   10.0410   40.4960 C.ar      1 3HB         0.0910
     11 C4         13.5000   10.2010   41.2850 C.ar      1 3HB        -0.0308
     12 C5         13.1760   11.4900   41.7970 C.ar      1 3HB        -0.0670
     13 C6         13.9570   12.5940   41.5030 C.ar      1 3HB        -0.0587
     14 O3         14.9830    8.8250   39.9790 O.3       1 3HB        -0.3325
     15 H5         14.3549    8.1671   40.2531 H         1 3HB         0.2481
@<TRIPOS>BOND
     1    9    1 1  
     2   11    2 1  
     3   12    3 1  
     4    8    5 1  
     5    5    7 ar 
     6    5    6 ar 
     7    8   13 ar 
     8    9    8 ar 
     9   10    9 ar 
    10   10   14 1  
    11   11   10 ar 
    12   11   12 ar 
    13   12   13 ar 
    14   13    4 1  
    15   14   15 1  
@<TRIPOS>SUBSTRUCTURE
     1 3HB         1

