### 
### Created by X-TOOL on Mon Sep 10 21:12:46 2018
### 

@<TRIPOS>MOLECULE
3pcc_ligand
   15    15     1     0     0
SMALL
GAST_HUCK


@<TRIPOS>ATOM
      1 H1         16.4907   11.7242   39.5247 H         1 PHB         0.0623
      2 H2         15.6202    9.3675   39.6357 H         1 PHB         0.0551
      3 H3         12.6285   10.6332   42.4485 H         1 PHB         0.0551
      4 H4         13.4615   12.9619   42.3229 H         1 PHB         0.0623
      5 C1'        15.6490   13.8990   40.9310 C.2       1 PHB         0.0557
      6 O1'        16.5810   14.2470   40.2370 O.co2     1 PHB        -0.5636
      7 O2'        15.1560   14.7840   41.6340 O.co2     1 PHB        -0.5636
      8 C1         15.0670   12.4800   40.9640 C.ar      1 PHB        -0.0010
      9 C2         15.6540   11.4820   40.1700 C.ar      1 PHB        -0.0562
     10 C3         15.1510   10.1560   40.2130 C.ar      1 PHB        -0.0294
     11 C4         14.0380    9.8870   41.0150 C.ar      1 PHB         0.0909
     12 C5         13.4610   10.8760   41.7980 C.ar      1 PHB        -0.0294
     13 C6         13.9480   12.1800   41.7510 C.ar      1 PHB        -0.0562
     14 O4         13.5830    8.6400   41.0400 O.3       1 PHB        -0.3310
     15 H5         12.8304    8.5902   41.6175 H         1 PHB         0.2493
@<TRIPOS>BOND
     1    9    1 1  
     2   10    2 1  
     3   12    3 1  
     4    8    5 1  
     5    5    7 ar 
     6    5    6 ar 
     7    8   13 ar 
     8    9    8 ar 
     9   10    9 ar 
    10   11   10 ar 
    11   11   14 1  
    12   11   12 ar 
    13   12   13 ar 
    14   13    4 1  
    15   14   15 1  
@<TRIPOS>SUBSTRUCTURE
     1 PHB         1

