### 
### Created by X-TOOL on Mon Sep 10 21:12:46 2018
### 

@<TRIPOS>MOLECULE
3pce_ligand
   18    18     1     0     0
SMALL
GAST_HUCK


@<TRIPOS>ATOM
      1 C8         13.9860   13.9130   42.1120 C.2       1 3HP         0.0461
      2 O1         13.3360   14.2050   43.1800 O.co2     1 3HP        -0.5664
      3 O2         15.0540   14.4680   41.7220 O.co2     1 3HP        -0.5664
      4 C7         13.2410   12.8990   41.2410 C.3       1 3HP         0.0310
      5 C1         13.8750   11.5390   41.1770 C.ar      1 3HP        -0.0390
      6 C2         13.7870   10.5500   42.1660 C.ar      1 3HP        -0.0308
      7 C3         14.3950    9.2930   41.9310 C.ar      1 3HP         0.0812
      8 C4         15.0840    9.0190   40.7540 C.ar      1 3HP        -0.0401
      9 C5         15.2080    9.9960   39.8000 C.ar      1 3HP        -0.0769
     10 C6         14.5780   11.2600   39.9960 C.ar      1 3HP        -0.0697
     11 O3         14.3280    8.3260   42.8930 O.3       1 3HP        -0.3348
     12 H1         13.1874   13.3002   40.2182 H         1 3HP         0.0586
     13 H2         12.2238   12.7839   41.6435 H         1 3HP         0.0586
     14 H3         13.2626   10.7439   43.0947 H         1 3HP         0.0481
     15 H4         15.5199    8.0398   40.5922 H         1 3HP         0.0487
     16 H5         15.7827    9.8082   38.9003 H         1 3HP         0.0572
     17 H6         14.6433   12.0157   39.2216 H         1 3HP         0.0467
     18 H7         13.4178    8.1183   43.0688 H         1 3HP         0.2479
@<TRIPOS>BOND
     1    4    1 1  
     2    1    3 ar 
     3    1    2 ar 
     4    4    5 1  
     5    5   10 ar 
     6    5    6 ar 
     7    6    7 ar 
     8    7   11 1  
     9    7    8 ar 
    10    8    9 ar 
    11    9   10 ar 
    12    4   12 1  
    13    4   13 1  
    14    6   14 1  
    15    8   15 1  
    16    9   16 1  
    17   10   17 1  
    18   11   18 1  
@<TRIPOS>SUBSTRUCTURE
     1 3HP         1

