### 
### Created by X-TOOL on Mon Sep 10 21:12:46 2018
### 

@<TRIPOS>MOLECULE
3pcf_ligand
   15    15     1     0     0
SMALL
GAST_HUCK


@<TRIPOS>ATOM
      1 C1         14.8930   12.3540   40.6670 C.ar      1 FHB        -0.0028
      2 C2         15.4850   11.3370   39.8780 C.ar      1 FHB        -0.0225
      3 C3         15.0210   10.0430   39.9610 C.ar      1 FHB         0.1630
      4 F3         15.6060    9.0630   39.2210 F         1 FHB        -0.1894
      5 C4         13.8990    9.7510   40.7520 C.ar      1 FHB         0.1244
      6 O4         13.4700    8.4410   40.7650 O.3       1 FHB        -0.3308
      7 C5         13.3060   10.7350   41.5220 C.ar      1 FHB        -0.0309
      8 C6         13.7930   12.0510   41.4670 C.ar      1 FHB        -0.0602
      9 C7         15.4750   13.7500   40.5900 C.2       1 FHB         0.0548
     10 O1         16.4050   14.0100   39.8250 O.co2     1 FHB        -0.5637
     11 O2         14.9870   14.6510   41.2430 O.co2     1 FHB        -0.5637
     12 H1         16.3033   11.5774   39.2089 H         1 FHB         0.0608
     13 H2         13.5482    8.0921   41.6452 H         1 FHB         0.2480
     14 H3         12.4684   10.4913   42.1656 H         1 FHB         0.0539
     15 H4         13.3132   12.8311   42.0469 H         1 FHB         0.0590
@<TRIPOS>BOND
     1    1    9 1  
     2    1    8 ar 
     3    1    2 ar 
     4    2    3 ar 
     5    3    5 ar 
     6    3    4 1  
     7    5    7 ar 
     8    5    6 1  
     9    7    8 ar 
    10    9   11 ar 
    11    9   10 ar 
    12    2   12 1  
    13    6   13 1  
    14    7   14 1  
    15    8   15 1  
@<TRIPOS>SUBSTRUCTURE
     1 FHB         1

