### 
### Created by X-TOOL on Mon Sep 10 21:12:46 2018
### 

@<TRIPOS>MOLECULE
3pcg_ligand
   18    18     1     0     0
SMALL
GAST_HUCK


@<TRIPOS>ATOM
      1 C8         15.5990   13.7890   40.4550 C.2       1 4HP         0.0446
      2 O1         16.7700   13.6750   40.0290 O.co2     1 4HP        -0.5667
      3 O2         15.3480   14.4780   41.4700 O.co2     1 4HP        -0.5667
      4 C7         14.4470   12.9200   39.8720 C.3       1 4HP         0.0285
      5 C1         14.4130   11.5380   40.5330 C.ar      1 4HP        -0.0409
      6 C2         15.1060   10.4510   39.9400 C.ar      1 4HP        -0.0671
      7 C3         15.1060    9.1960   40.5500 C.ar      1 4HP        -0.0395
      8 C4         14.4920    9.0650   41.8080 C.ar      1 4HP         0.0807
      9 C5         13.8350   10.1460   42.4160 C.ar      1 4HP        -0.0395
     10 C6         13.8000   11.3790   41.7800 C.ar      1 4HP        -0.0671
     11 O4         14.4770    7.9050   42.5200 O.3       1 4HP        -0.3375
     12 H1         14.6012   12.7974   38.7898 H         1 4HP         0.0567
     13 H2         13.4877   13.4277   40.0505 H         1 4HP         0.0567
     14 H3         15.6388   10.5965   39.0072 H         1 4HP         0.0533
     15 H4         15.5680    8.3432   40.0659 H         1 4HP         0.0526
     16 H5         13.3561   10.0181   43.3800 H         1 4HP         0.0526
     17 H6         13.2983   12.2176   42.2491 H         1 4HP         0.0533
     18 H7         14.0405    7.2298   42.0140 H         1 4HP         0.2459
@<TRIPOS>BOND
     1    4    1 1  
     2    1    3 ar 
     3    1    2 ar 
     4    4    5 1  
     5    5   10 ar 
     6    5    6 ar 
     7    6    7 ar 
     8    7    8 ar 
     9    8   11 1  
    10    8    9 ar 
    11    9   10 ar 
    12    4   12 1  
    13    4   13 1  
    14    6   14 1  
    15    7   15 1  
    16    9   16 1  
    17   10   17 1  
    18   11   18 1  
@<TRIPOS>SUBSTRUCTURE
     1 4HP         1

