### 
### Created by X-TOOL on Mon Sep 10 21:12:46 2018
### 

@<TRIPOS>MOLECULE
3pch_ligand
   15    15     1     0     0
SMALL
GAST_HUCK


@<TRIPOS>ATOM
      1 H1         16.2328   11.8055   39.2033 H         1 CHB         0.0630
      2 H2         12.7446    8.6096   41.4795 H         1 CHB         0.2497
      3 H3         12.5135   10.7376   42.3158 H         1 CHB         0.0550
      4 H4         13.3367   13.0732   42.1359 H         1 CHB         0.0625
      5 C1         14.8430   12.5980   40.6780 C.ar      1 CHB        -0.0004
      6 C2         15.4100   11.5770   39.8710 C.ar      1 CHB        -0.0422
      7 C3         14.9130   10.3000   39.9390 C.ar      1 CHB         0.0715
      8 CL3        15.6960    9.0590   39.0190 Cl        1 CHB        -0.0780
      9 C4         13.8720    9.9890   40.8040 C.ar      1 CHB         0.1053
     10 O4         13.4560    8.6890   40.8550 O.3       1 CHB        -0.3301
     11 C5         13.3100   10.9840   41.6230 C.ar      1 CHB        -0.0287
     12 C6         13.7880   12.2920   41.5350 C.ar      1 CHB        -0.0560
     13 C7         15.4350   14.0050   40.5530 C.2       1 CHB         0.0557
     14 O1         16.3830   14.2430   39.7880 O.co2     1 CHB        -0.5636
     15 O2         14.9320   14.8710   41.2860 O.co2     1 CHB        -0.5636
@<TRIPOS>BOND
     1    6    1 1  
     2   10    2 1  
     3   11    3 1  
     4   12    4 1  
     5    6    5 ar 
     6    5   12 ar 
     7    5   13 1  
     8    7    6 ar 
     9    7    8 1  
    10    9    7 ar 
    11    9   10 1  
    12    9   11 ar 
    13   11   12 ar 
    14   13   14 ar 
    15   13   15 ar 
@<TRIPOS>SUBSTRUCTURE
     1 CHB         1

