### 
### Created by X-TOOL on Mon Sep 10 21:12:46 2018
### 

@<TRIPOS>MOLECULE
3pcj_ligand
   15    15     1     0     0
SMALL
GAST_HUCK


@<TRIPOS>ATOM
      1 N1         13.3610    9.7970   41.4810 N.am      1 INO        -0.0734
      2 C2         14.3500    9.5850   40.6410 C.2       1 INO         0.2305
      3 C3         15.1420   10.6250   40.1820 C.2       1 INO         0.0020
      4 C4         14.8770   11.9410   40.6080 C.2       1 INO        -0.0069
      5 C5         13.7720   12.1530   41.4500 C.2       1 INO        -0.0285
      6 C6         13.0390   11.0370   41.8950 C.2       1 INO         0.1018
      7 C7         15.7860   13.1060   40.1640 C.2       1 INO         0.0633
      8 O1         16.7390   12.8800   39.4340 O.co2     1 INO        -0.5576
      9 O2         15.5690   14.2670   40.5150 O.co2     1 INO        -0.5576
     10 O3         14.5980    8.4430   40.2390 O.2       1 INO        -0.4217
     11 O4         12.6050    8.7900   41.8880 O.3       1 INO        -0.2232
     12 H1         15.9642   10.4261   39.4962 H         1 INO         0.0439
     13 H2         13.4887   13.1602   41.7520 H         1 INO         0.0360
     14 H3         12.2042   11.1777   42.5801 H         1 INO         0.1254
     15 H4         12.9398    7.9778   41.5264 H         1 INO         0.2661
@<TRIPOS>BOND
     1    1   11 1  
     2    1    6 am 
     3    1    2 am 
     4    2   10 2  
     5    2    3 1  
     6    3    4 2  
     7    4    7 1  
     8    4    5 1  
     9    5    6 2  
    10    7    9 ar 
    11    7    8 ar 
    12    3   12 1  
    13    5   13 1  
    14    6   14 1  
    15   11   15 1  
@<TRIPOS>SUBSTRUCTURE
     1 INO         1

