### 
### Created by X-TOOL on Mon Sep 10 21:12:46 2018
### 

@<TRIPOS>MOLECULE
3pck_ligand
   15    15     1     0     0
SMALL
GAST_HUCK


@<TRIPOS>ATOM
      1 N1         14.1890    9.4890   40.7470 N.am      1 NNO        -0.0678
      2 C2         14.9550   10.4550   40.3000 C.2       1 NNO         0.1192
      3 C3         14.8000   11.8160   40.6900 C.2       1 NNO         0.0319
      4 C4         13.7500   12.1190   41.5570 C.2       1 NNO        -0.0658
      5 C5         12.9350   11.1110   42.0320 C.2       1 NNO        -0.0110
      6 C6         13.1750    9.7930   41.5940 C.2       1 NNO         0.2307
      7 C7         15.7760   12.9150   40.2280 C.2       1 NNO         0.0437
      8 O1         16.6970   12.6030   39.4700 O.co2     1 NNO        -0.5718
      9 O2         15.6570   14.0890   40.5750 O.co2     1 NNO        -0.5718
     10 O4         12.3610    8.8800   41.9840 O.2       1 NNO        -0.4203
     11 O3         14.3270    8.3100   40.3520 O.3       1 NNO        -0.2212
     12 H1         15.7478   10.2045   39.5967 H         1 NNO         0.1328
     13 H2         13.5733   13.1503   41.8590 H         1 NNO         0.0656
     14 H3         12.1264   11.3289   42.7281 H         1 NNO         0.0391
     15 H4         14.4664    7.7410   41.0998 H         1 NNO         0.2667
@<TRIPOS>BOND
     1    1   11 1  
     2    1    6 am 
     3    1    2 am 
     4    2    3 2  
     5    3    7 1  
     6    3    4 1  
     7    4    5 2  
     8    5    6 1  
     9    6   10 2  
    10    7    9 ar 
    11    7    8 ar 
    12    2   12 1  
    13    4   13 1  
    14    5   14 1  
    15   11   15 1  
@<TRIPOS>SUBSTRUCTURE
     1 NNO         1

