### 
### Created by X-TOOL on Mon Sep 10 21:12:46 2018
### 

@<TRIPOS>MOLECULE
3pcn_ligand
   19    19     1     0     0
SMALL
GAST_HUCK


@<TRIPOS>ATOM
      1 C1         14.0730   11.5350   40.5930 C.ar      1 DHY        -0.0497
      2 C2         14.3540   10.1820   40.2180 C.ar      1 DHY        -0.0384
      3 C3         14.1580    9.2130   41.1660 C.ar      1 DHY         0.1101
      4 C4         13.7400    9.5050   42.4530 C.ar      1 DHY         0.1090
      5 C5         13.4970   10.8170   42.8440 C.ar      1 DHY        -0.0479
      6 C6         13.6720   11.8540   41.8900 C.ar      1 DHY        -0.0784
      7 C7         14.4480   12.6880   39.6060 C.3       1 DHY         0.0261
      8 C8         15.6910   13.5590   40.1290 C.2       1 DHY         0.0445
      9 O1         16.8150   13.1380   39.7260 O.co2     1 DHY        -0.5667
     10 O2         15.4930   14.5000   40.8920 O.co2     1 DHY        -0.5667
     11 O3         14.3350    7.8810   40.8960 O.3       1 DHY        -0.3385
     12 O4         13.5820    8.3990   43.2670 O.3       1 DHY        -0.3413
     13 H1         14.7077    9.9345   39.2237 H         1 DHY         0.0453
     14 H2         13.1806   11.0434   43.8558 H         1 DHY         0.0493
     15 H3         13.4951   12.8867   42.1680 H         1 DHY         0.0439
     16 H4         13.5773   13.3498   39.4882 H         1 DHY         0.0566
     17 H5         14.7091   12.2487   38.6319 H         1 DHY         0.0566
     18 H6         14.1514    7.3734   41.6778 H         1 DHY         0.2442
     19 H7         12.9315    7.8191   42.8887 H         1 DHY         0.2420
@<TRIPOS>BOND
     1    1    7 1  
     2    1    6 ar 
     3    1    2 ar 
     4    2    3 ar 
     5    3   11 1  
     6    3    4 ar 
     7    4   12 1  
     8    4    5 ar 
     9    5    6 ar 
    10    7    8 1  
    11    8   10 ar 
    12    8    9 ar 
    13    2   13 1  
    14    5   14 1  
    15    6   15 1  
    16    7   16 1  
    17    7   17 1  
    18   11   18 1  
    19   12   19 1  
@<TRIPOS>SUBSTRUCTURE
     1 DHY         1

