### 
### Created by X-TOOL on Mon Sep 10 21:13:07 2018
### 

@<TRIPOS>MOLECULE
3pcu_ligand
   50    52     1     0     0
SMALL
GAST_HUCK


@<TRIPOS>ATOM
      1 CAA       -19.3250   -0.0320    7.4080 C.2       1 LX8        -0.0782
      2 CAB       -20.9670    9.7580    2.1320 C.3       1 LX8         0.0372
      3 CAC       -20.6690   -1.7170    5.6440 C.3       1 LX8        -0.1151
      4 CAD       -18.4110   -2.7370    5.1910 C.3       1 LX8        -0.1151
      5 CAE       -18.8480    7.4990    3.0840 C.3       1 LX8        -0.0285
      6 CAF       -17.4100    7.1880    1.0170 C.3       1 LX8        -0.0285
      7 OAG       -18.6320   10.0380    1.7100 O.2       1 LX8        -0.3707
      8 OAH       -19.3730   -2.1650    2.5310 O.2       1 LX8        -0.3636
      9 CAI       -18.6070   -0.7860    6.4790 C.2       1 LX8        -0.1297
     10 CAJ       -18.7200    2.9780    3.6680 C.ar      1 LX8        -0.0358
     11 CAK       -18.9610    2.1960    0.9820 C.ar      1 LX8         0.0245
     12 CAL       -18.8570    0.7780    4.3740 C.2       1 LX8        -0.0149
     13 CAM       -18.6430    5.3690    2.7370 C.3       1 LX8         0.0163
     14 OAN       -19.5860    8.1380    0.8820 O.3       1 LX8        -0.2677
     15 OAO       -18.8170    4.7240    0.5810 O.3       1 LX8        -0.2972
     16 OAP       -19.0840   -0.1010    1.7270 O.3       1 LX8        -0.2000
     17 CAQ       -19.6320    9.3280    1.5620 C.2       1 LX8         0.2312
     18 CAR       -18.7250    3.9010    2.6560 C.ar      1 LX8         0.0066
     19 CAS       -18.8460    3.5550    1.3130 C.ar      1 LX8         0.1160
     20 CAT       -19.0820   -0.5530    4.1280 C.2       1 LX8        -0.0013
     21 CAU       -19.1910   -0.9770    2.7900 C.2       1 LX8         0.2669
     22 CAV       -18.8120    1.6530    3.3280 C.ar      1 LX8         0.0540
     23 CAW       -18.9600    1.2350    2.0060 C.ar      1 LX8         0.1562
     24 CAX       -19.3690    5.7370    1.4810 C.3       1 LX8         0.1266
     25 CAY       -19.1840   -1.4420    5.3840 C.3       1 LX8        -0.0688
     26 CAZ       -18.8170    7.1560    1.5870 C.3       1 LX8         0.1253
     27 H         -20.4049    0.0744    7.3056 H         1 LX8         0.1011
     28 H         -18.8059    0.4506    8.2361 H         1 LX8         0.1011
     29 H         -20.8813    9.8653    3.2133 H         1 LX8         0.0483
     30 H         -21.2577   10.7123    1.6928 H         1 LX8         0.0483
     31 H         -21.7197    9.0049    1.8988 H         1 LX8         0.0483
     32 H         -20.7713   -2.3460    6.5283 H         1 LX8         0.0029
     33 H         -21.1891   -0.7729    5.8060 H         1 LX8         0.0029
     34 H         -21.0991   -2.2270    4.7820 H         1 LX8         0.0029
     35 H         -17.3631   -2.5077    4.9974 H         1 LX8         0.0029
     36 H         -18.4908   -3.3441    6.0927 H         1 LX8         0.0029
     37 H         -18.8268   -3.2842    4.3450 H         1 LX8         0.0029
     38 H         -18.4197    8.4895    3.2374 H         1 LX8         0.0262
     39 H         -19.8794    7.4892    3.4364 H         1 LX8         0.0262
     40 H         -18.2668    6.7608    3.6367 H         1 LX8         0.0262
     41 H         -17.4451    6.9549   -0.0472 H         1 LX8         0.0262
     42 H         -16.9844    8.1814    1.1588 H         1 LX8         0.0262
     43 H         -16.7940    6.4506    1.5317 H         1 LX8         0.0262
     44 H         -17.5286   -0.8699    6.6139 H         1 LX8         0.0429
     45 H         -18.6452    3.2871    4.7106 H         1 LX8         0.0645
     46 H         -19.0503    1.8893   -0.0601 H         1 LX8         0.0527
     47 H         -18.7156    1.1328    5.3949 H         1 LX8         0.1150
     48 H         -17.6282    5.7613    2.8031 H         1 LX8         0.0431
     49 H         -19.0684    5.7953    3.6455 H         1 LX8         0.0431
     50 H         -20.4289    5.7444    1.2268 H         1 LX8         0.0714
@<TRIPOS>BOND
     1    9    1 2  
     2   17    2 1  
     3   25    3 1  
     4   25    4 1  
     5   26    5 1  
     6   26    6 1  
     7   17    7 2  
     8   21    8 2  
     9   25    9 1  
    10   18   10 ar 
    11   10   22 ar 
    12   19   11 ar 
    13   11   23 ar 
    14   12   20 2  
    15   22   12 1  
    16   13   18 1  
    17   24   13 1  
    18   14   17 1  
    19   26   14 1  
    20   15   19 1  
    21   24   15 1  
    22   16   21 1  
    23   23   16 1  
    24   19   18 ar 
    25   21   20 1  
    26   20   25 1  
    27   23   22 ar 
    28   24   26 1  
    29    1   27 1  
    30    1   28 1  
    31    2   29 1  
    32    2   30 1  
    33    2   31 1  
    34    3   32 1  
    35    3   33 1  
    36    3   34 1  
    37    4   35 1  
    38    4   36 1  
    39    4   37 1  
    40    5   38 1  
    41    5   39 1  
    42    5   40 1  
    43    6   41 1  
    44    6   42 1  
    45    6   43 1  
    46    9   44 1  
    47   10   45 1  
    48   11   46 1  
    49   12   47 1  
    50   13   48 1  
    51   13   49 1  
    52   24   50 1  
@<TRIPOS>SUBSTRUCTURE
     1 LX8         1

