### 
### Created by X-TOOL on Mon Sep 10 21:13:03 2018
### 

@<TRIPOS>MOLECULE
3pd2_ligand
   45    47     1     0     0
SMALL
GAST_HUCK


@<TRIPOS>ATOM
      1 O5'         7.7240    8.7410  -15.5640 O.3       1 A3S        -0.3924
      2 C5'         6.6080    7.9570  -15.9960 C.3       1 A3S         0.0728
      3 C4'         7.0990    6.7880  -16.8520 C.3       1 A3S         0.1105
      4 O4'         7.8430    7.2900  -17.9770 O.3       1 A3S        -0.3371
      5 C1'         9.0900    6.5770  -18.0760 C.3       1 A3S         0.2007
      6 N9         10.1820    7.5110  -17.7120 N.pl3     1 A3S        -0.1919
      7 C4         11.4250    7.1940  -17.3550 C.ar      1 A3S         0.1613
      8 N3         12.0500    6.0320  -17.1110 N.ar      1 A3S        -0.2714
      9 C2         13.3250    6.0070  -16.7610 C.ar      1 A3S         0.0533
     10 N1         14.0220    7.1250  -16.6440 N.ar      1 A3S        -0.2698
     11 C6         13.4650    8.3230  -16.8750 C.ar      1 A3S         0.1298
     12 N6         14.1860    9.4380  -16.7830 N.pl3     1 A3S        -0.3152
     13 C5         12.1250    8.3860  -17.2390 C.ar      1 A3S         0.1045
     14 N7         11.2880    9.3800  -17.5180 N.2       1 A3S        -0.2958
     15 C8         10.1050    8.8360  -17.8010 C.2       1 A3S         0.1123
     16 C2'         8.9600    5.3640  -17.1520 C.3       1 A3S         0.1355
     17 O2'         8.2510    4.3230  -17.8300 O.3       1 A3S        -0.3839
     18 C3'         8.0860    5.9460  -16.0450 C.3       1 A3S         0.1016
     19 N8          7.3600    4.8860  -15.3260 N.am      1 A3S        -0.2740
     20 N           7.8150    2.1730  -12.9460 N.4       1 A3S         0.2396
     21 CA          6.9700    3.1460  -13.6540 C.3       1 A3S         0.0883
     22 CB          5.9660    3.7650  -12.6790 C.3       1 A3S         0.1041
     23 OG          5.0980    2.7380  -12.1920 O.3       1 A3S        -0.3870
     24 C           7.8450    4.2380  -14.2730 C.2       1 A3S         0.2271
     25 O           9.0580    4.4870  -13.7090 O.2       1 A3S        -0.3908
     26 H           8.1905    9.0815  -16.3309 H         1 A3S         0.2095
     27 H           5.9361    8.5798  -16.5865 H         1 A3S         0.0584
     28 H           6.0798    7.5698  -15.1247 H         1 A3S         0.0584
     29 H           6.2311    6.2089  -17.1674 H         1 A3S         0.0644
     30 H           9.3237    6.2143  -19.0770 H         1 A3S         0.0996
     31 H          13.8091    5.0501  -16.5659 H         1 A3S         0.0996
     32 H          13.7554   10.3415  -16.9798 H         1 A3S         0.1820
     33 H          15.1691    9.3890  -16.5157 H         1 A3S         0.1820
     34 H           9.2071    9.3941  -18.0662 H         1 A3S         0.1349
     35 H           9.9037    4.9358  -16.8140 H         1 A3S         0.0673
     36 H           8.1698    3.5624  -17.2499 H         1 A3S         0.2101
     37 H           8.6473    6.4915  -15.2864 H         1 A3S         0.0610
     38 H           6.4285    4.6341  -15.6565 H         1 A3S         0.1858
     39 H           8.4819    1.7639  -13.6005 H         1 A3S         0.2016
     40 H           8.3193    2.6451  -12.1955 H         1 A3S         0.2016
     41 H           7.2280    1.4374  -12.5526 H         1 A3S         0.2016
     42 H           6.4240    2.6379  -14.4489 H         1 A3S         0.1122
     43 H           5.3809    4.5300  -13.1895 H         1 A3S         0.0640
     44 H           6.4975    4.2237  -11.8452 H         1 A3S         0.0640
     45 H           4.4650    3.1195  -11.5793 H         1 A3S         0.2099
@<TRIPOS>BOND
     1    2    1 1  
     2    3    2 1  
     3    3    4 1  
     4   18    3 1  
     5    5    4 1  
     6    5    6 1  
     7   16    5 1  
     8    6    7 1  
     9    6   15 1  
    10    7    8 ar 
    11    7   13 ar 
    12    8    9 ar 
    13    9   10 ar 
    14   11   10 ar 
    15   11   12 1  
    16   13   11 ar 
    17   14   13 1  
    18   15   14 2  
    19   16   17 1  
    20   18   16 1  
    21   19   18 1  
    22   24   19 am 
    23   21   20 1  
    24   21   22 1  
    25   21   24 1  
    26   22   23 1  
    27   24   25 2  
    28    1   26 1  
    29    2   27 1  
    30    2   28 1  
    31    3   29 1  
    32    5   30 1  
    33    9   31 1  
    34   12   32 1  
    35   12   33 1  
    36   15   34 1  
    37   16   35 1  
    38   17   36 1  
    39   18   37 1  
    40   19   38 1  
    41   20   39 1  
    42   20   40 1  
    43   20   41 1  
    44   21   42 1  
    45   22   43 1  
    46   22   44 1  
    47   23   45 1  
@<TRIPOS>SUBSTRUCTURE
     1 A3S         1

