### 
### Created by X-TOOL on Mon Sep 10 21:13:03 2018
### 

@<TRIPOS>MOLECULE
3pd3_ligand
   48    50     1     0     0
SMALL
GAST_HUCK


@<TRIPOS>ATOM
      1 C           7.9710    4.2830  -14.2220 C.2       1 A3T         0.2274
      2 N           7.9690    2.1420  -13.0520 N.4       1 A3T         0.2398
      3 O           9.1750    4.5880  -13.6710 O.2       1 A3T        -0.3908
      4 N1         14.0130    7.1450  -16.8330 N.ar      1 A3T        -0.2698
      5 C2         13.3490    6.0040  -16.8930 C.ar      1 A3T         0.0533
      6 N3         12.0760    5.9550  -17.2430 N.ar      1 A3T        -0.2714
      7 C4         11.4080    7.0770  -17.5480 C.ar      1 A3T         0.1613
      8 C5         12.0710    8.2960  -17.4900 C.ar      1 A3T         0.1045
      9 C6         13.4110    8.3070  -17.1240 C.ar      1 A3T         0.1298
     10 N6         14.0880    9.4520  -17.0860 N.pl3     1 A3T        -0.3152
     11 N7         11.1990    9.2420  -17.8240 N.2       1 A3T        -0.2958
     12 C8         10.0370    8.6480  -18.0850 C.2       1 A3T         0.1123
     13 N8          7.4910    4.8310  -15.3360 N.am      1 A3T        -0.2739
     14 N9         10.1590    7.3320  -17.9270 N.pl3     1 A3T        -0.1919
     15 CA          7.1040    3.2320  -13.5260 C.3       1 A3T         0.0909
     16 CB          6.3590    3.8440  -12.3380 C.3       1 A3T         0.1120
     17 OG          5.3880    2.9000  -11.8760 O.3       1 A3T        -0.3840
     18 C1'         9.1040    6.3420  -18.2440 C.3       1 A3T         0.2007
     19 C2'         9.0220    5.1860  -17.2450 C.3       1 A3T         0.1355
     20 O2'         8.2680    4.1160  -17.8220 O.3       1 A3T        -0.3839
     21 C3'         8.2120    5.8380  -16.1280 C.3       1 A3T         0.1016
     22 C4'         7.2070    6.6810  -16.9140 C.3       1 A3T         0.1105
     23 O4'         7.8270    6.9990  -18.1730 O.3       1 A3T        -0.3371
     24 C5'         6.8910    7.9530  -16.1240 C.3       1 A3T         0.0728
     25 O5'         8.1040    8.6350  -15.7950 O.3       1 A3T        -0.3924
     26 CG2         5.7070    5.1790  -12.7060 C.3       1 A3T        -0.0314
     27 H           8.4654    1.7344  -13.8444 H         1 A3T         0.2016
     28 H           8.6425    2.5114  -12.3809 H         1 A3T         0.2016
     29 H           7.3972    1.4266  -12.6030 H         1 A3T         0.2016
     30 H          13.8664    5.0768  -16.6467 H         1 A3T         0.0996
     31 H          13.6232   10.3275  -17.3263 H         1 A3T         0.1820
     32 H          15.0718    9.4541  -16.8165 H         1 A3T         0.1820
     33 H           9.1231    9.1618  -18.3832 H         1 A3T         0.1349
     34 H           6.5698    4.5352  -15.6588 H         1 A3T         0.1858
     35 H           6.3685    2.8517  -14.2349 H         1 A3T         0.1124
     36 H           7.0693    4.0597  -11.5399 H         1 A3T         0.0674
     37 H           4.9122    3.2714  -11.1295 H         1 A3T         0.2102
     38 H           9.3505    5.9446  -19.2286 H         1 A3T         0.0996
     39 H           9.9810    4.7708  -16.9353 H         1 A3T         0.0673
     40 H           8.2154    3.3895  -17.1966 H         1 A3T         0.2101
     41 H           8.8270    6.3973  -15.4230 H         1 A3T         0.0610
     42 H           6.2702    6.1487  -17.0790 H         1 A3T         0.0644
     43 H           6.3683    7.6855  -15.2057 H         1 A3T         0.0584
     44 H           6.2640    8.6066  -16.7304 H         1 A3T         0.0584
     45 H           7.8979    9.4313  -15.2999 H         1 A3T         0.2095
     46 H           6.4762    5.8810  -13.0281 H         1 A3T         0.0258
     47 H           4.9939    5.0227  -13.5155 H         1 A3T         0.0258
     48 H           5.1882    5.5807  -11.8356 H         1 A3T         0.0258
@<TRIPOS>BOND
     1    1    3 2  
     2   13    1 am 
     3    1   15 1  
     4   15    2 1  
     5    5    4 ar 
     6    9    4 ar 
     7    6    5 ar 
     8    7    6 ar 
     9    7    8 ar 
    10   14    7 1  
    11    8    9 ar 
    12   11    8 1  
    13    9   10 1  
    14   12   11 2  
    15   14   12 1  
    16   21   13 1  
    17   18   14 1  
    18   15   16 1  
    19   16   17 1  
    20   16   26 1  
    21   19   18 1  
    22   18   23 1  
    23   19   20 1  
    24   19   21 1  
    25   21   22 1  
    26   22   23 1  
    27   22   24 1  
    28   24   25 1  
    29    2   27 1  
    30    2   28 1  
    31    2   29 1  
    32    5   30 1  
    33   10   31 1  
    34   10   32 1  
    35   12   33 1  
    36   13   34 1  
    37   15   35 1  
    38   16   36 1  
    39   17   37 1  
    40   18   38 1  
    41   19   39 1  
    42   20   40 1  
    43   21   41 1  
    44   22   42 1  
    45   24   43 1  
    46   24   44 1  
    47   25   45 1  
    48   26   46 1  
    49   26   47 1  
    50   26   48 1  
@<TRIPOS>SUBSTRUCTURE
     1 A3T         1

