### 
### Created by X-TOOL on Mon Sep 10 21:13:04 2018
### 

@<TRIPOS>MOLECULE
3pd4_ligand
   41    43     1     0     0
SMALL
GAST_HUCK


@<TRIPOS>ATOM
      1 C          10.2690    2.9110  -13.2890 C.2       1 A3G         0.2218
      2 N           9.0200    0.7700  -13.0340 N.4       1 A3G         0.2357
      3 O          11.5350    3.2640  -12.9790 O.2       1 A3G        -0.3912
      4 N1         16.3710    5.7050  -16.3700 N.ar      1 A3G        -0.2698
      5 C2         15.7270    4.5450  -16.3270 C.ar      1 A3G         0.0533
      6 N3         14.4270    4.4380  -16.6040 N.ar      1 A3G        -0.2714
      7 C4         13.7140    5.5320  -16.9270 C.ar      1 A3G         0.1613
      8 C5         14.3450    6.7620  -16.9960 C.ar      1 A3G         0.1045
      9 C6         15.7090    6.8330  -16.7160 C.ar      1 A3G         0.1298
     10 N6         16.3170    8.0210  -16.7980 N.pl3     1 A3G        -0.3152
     11 N7         13.4470    7.6760  -17.3410 N.2       1 A3G        -0.2958
     12 C8         12.2930    7.0720  -17.5060 C.2       1 A3G         0.1123
     13 N8          9.6090    3.3960  -14.3490 N.am      1 A3G        -0.2743
     14 N9         12.4370    5.7580  -17.2400 N.pl3     1 A3G        -0.1919
     15 CA          9.6040    1.9180  -12.3400 C.3       1 A3G         0.0543
     16 C1'        11.3030    4.7540  -17.3560 C.3       1 A3G         0.2007
     17 C2'        11.1780    3.7030  -16.2720 C.3       1 A3G         0.1355
     18 O2'        10.4830    2.6080  -16.8570 O.3       1 A3G        -0.3839
     19 C3'        10.2690    4.3870  -15.2490 C.3       1 A3G         0.1016
     20 C4'         9.2720    5.1760  -16.1370 C.3       1 A3G         0.1105
     21 O4'        10.0240    5.5000  -17.3630 O.3       1 A3G        -0.3371
     22 C5'         8.7410    6.4760  -15.5370 C.3       1 A3G         0.0728
     23 O5'         9.8240    7.3010  -15.1350 O.3       1 A3G        -0.3924
     24 H           8.5920    0.1437  -12.3521 H         1 A3G         0.2012
     25 H           8.3105    1.0959  -13.6904 H         1 A3G         0.2012
     26 H           9.7518    0.2728  -13.5417 H         1 A3G         0.2012
     27 H          16.2814    3.6467  -16.0552 H         1 A3G         0.0996
     28 H          15.7837    8.8498  -17.0607 H         1 A3G         0.1820
     29 H          17.3142    8.0985  -16.5979 H         1 A3G         0.1820
     30 H          11.3650    7.5563  -17.8100 H         1 A3G         0.1349
     31 H           8.6557    3.0882  -14.5410 H         1 A3G         0.1858
     32 H           8.7982    2.4398  -11.8236 H         1 A3G         0.1061
     33 H          10.3699    1.5422  -11.6615 H         1 A3G         0.1061
     34 H          11.5349    4.2071  -18.2699 H         1 A3G         0.0996
     35 H          12.1170    3.3545  -15.8420 H         1 A3G         0.0673
     36 H          10.3784    1.9115  -16.2046 H         1 A3G         0.2101
     37 H          10.8012    5.0399  -14.5571 H         1 A3G         0.0610
     38 H           8.3865    4.5577  -16.2843 H         1 A3G         0.0644
     39 H           8.1236    6.2452  -14.6689 H         1 A3G         0.0584
     40 H           8.1478    7.0012  -16.2855 H         1 A3G         0.0584
     41 H          10.3705    7.5039  -15.8977 H         1 A3G         0.2095
@<TRIPOS>BOND
     1    1    3 2  
     2   13    1 am 
     3    1   15 1  
     4   15    2 1  
     5    5    4 ar 
     6    9    4 ar 
     7    6    5 ar 
     8    7    6 ar 
     9    7    8 ar 
    10   14    7 1  
    11    8    9 ar 
    12   11    8 1  
    13    9   10 1  
    14   12   11 2  
    15   14   12 1  
    16   19   13 1  
    17   16   14 1  
    18   17   16 1  
    19   16   21 1  
    20   17   18 1  
    21   17   19 1  
    22   19   20 1  
    23   20   21 1  
    24   20   22 1  
    25   22   23 1  
    26    2   24 1  
    27    2   25 1  
    28    2   26 1  
    29    5   27 1  
    30   10   28 1  
    31   10   29 1  
    32   12   30 1  
    33   13   31 1  
    34   15   32 1  
    35   15   33 1  
    36   16   34 1  
    37   17   35 1  
    38   18   36 1  
    39   19   37 1  
    40   20   38 1  
    41   22   39 1  
    42   22   40 1  
    43   23   41 1  
@<TRIPOS>SUBSTRUCTURE
     1 A3G         1

