### 
### Created by X-TOOL on Mon Sep 10 21:13:02 2018
### 

@<TRIPOS>MOLECULE
3pd8_ligand
   21    22     1     0     0
SMALL
GAST_HUCK


@<TRIPOS>ATOM
      1 C1         45.0650   27.2480   40.7940 C.2       1 HA7         0.1873
      2 N1         45.0290   28.4860   41.2780 N.am      1 HA7        -0.1395
      3 O1         45.8960   28.5100   42.4220 O.3       1 HA7        -0.1682
      4 C2         45.9020   26.4610   41.5590 C.2       1 HA7         0.0415
      5 N2         47.8050   25.2590   43.2220 N.4       1 HA7         0.2577
      6 O2         45.8670   27.4050   45.2540 O.co2     1 HA7        -0.5613
      7 C3         46.2170   24.9930   41.3660 C.3       1 HA7         0.0057
      8 O3         47.4810   26.0150   45.8960 O.co2     1 HA7        -0.5613
      9 C4         46.6830   24.4470   42.7190 C.3       1 HA7        -0.0286
     10 O4         44.4490   26.8460   39.8120 O.2       1 HA7        -0.4257
     11 C5         47.4060   26.6370   43.5940 C.3       1 HA7         0.0986
     12 C6         46.4150   27.2500   42.5780 C.2       1 HA7         0.1861
     13 C7         46.8580   26.6780   45.0370 C.2       1 HA7         0.1029
     14 H1         44.4998   29.2529   40.9149 H         1 HA7         0.2313
     15 H2         48.5097   25.3123   42.5032 H         1 HA7         0.2050
     16 H3         48.1891   24.8057   44.0362 H         1 HA7         0.2050
     17 H4         47.0139   24.8740   40.6171 H         1 HA7         0.0364
     18 H5         45.3172   24.4553   41.0326 H         1 HA7         0.0364
     19 H6         45.8505   24.4891   43.4367 H         1 HA7         0.0825
     20 H7         47.0113   23.4040   42.5990 H         1 HA7         0.0825
     21 H8         48.3142   27.2571   43.5719 H         1 HA7         0.1255
@<TRIPOS>BOND
     1    1    2 am 
     2    4    1 1  
     3    1   10 2  
     4    3    2 1  
     5   12    3 1  
     6    4    7 1  
     7   12    4 2  
     8    5    9 1  
     9   11    5 1  
    10   13    6 ar 
    11    9    7 1  
    12   13    8 ar 
    13   11   12 1  
    14   11   13 1  
    15    2   14 1  
    16    5   15 1  
    17    5   16 1  
    18    7   17 1  
    19    7   18 1  
    20    9   19 1  
    21    9   20 1  
    22   11   21 1  
@<TRIPOS>SUBSTRUCTURE
     1 HA7         1

