### 
### Created by X-TOOL on Mon Sep 10 21:13:02 2018
### 

@<TRIPOS>MOLECULE
3pd9_ligand
   21    22     1     0     0
SMALL
GAST_HUCK


@<TRIPOS>ATOM
      1 N1         57.2580   27.2210   47.1710 N.am      1 HA5        -0.1397
      2 O2         58.4660   27.7040   46.4810 O.3       1 HA5        -0.1702
      3 C3         58.3340   27.3610   45.1770 C.2       1 HA5         0.1701
      4 C4         59.3880   27.6900   44.1780 C.3       1 HA5         0.0373
      5 N5         59.2440   26.6440   43.1010 N.4       1 HA5         0.2579
      6 C6         57.8430   26.7450   42.5430 C.3       1 HA5         0.0335
      7 C7         57.8150   26.1130   41.1300 C.2       1 HA5         0.0854
      8 O8         56.6760   25.7920   40.7560 O.co2     1 HA5        -0.5642
      9 O9         58.9150   25.9990   40.5230 O.co2     1 HA5        -0.5642
     10 C10        56.8270   26.1740   43.5650 C.3       1 HA5         0.0204
     11 C11        57.1940   26.6850   44.9240 C.2       1 HA5         0.0412
     12 C12        56.5080   26.6020   46.2160 C.2       1 HA5         0.1869
     13 O13        55.4020   26.0390   46.4390 O.2       1 HA5        -0.4259
     14 H1         57.0342   27.3256   48.1400 H         1 HA5         0.2313
     15 H2         60.3861   27.6373   44.6373 H         1 HA5         0.1047
     16 H3         59.2276   28.6963   43.7637 H         1 HA5         0.1047
     17 H4         59.3920   25.7267   43.4919 H         1 HA5         0.2050
     18 H5         59.9172   26.8102   42.3694 H         1 HA5         0.2050
     19 H6         57.6010   27.8109   42.4197 H         1 HA5         0.1036
     20 H7         56.8682   25.0748   43.5568 H         1 HA5         0.0385
     21 H8         55.8108   26.5049   43.3046 H         1 HA5         0.0385
@<TRIPOS>BOND
     1    1    2 1  
     2    1   12 am 
     3    2    3 1  
     4    3    4 1  
     5    3   11 2  
     6    4    5 1  
     7    5    6 1  
     8    6    7 1  
     9    6   10 1  
    10    7    8 ar 
    11    7    9 ar 
    12   10   11 1  
    13   11   12 1  
    14   12   13 2  
    15    1   14 1  
    16    4   15 1  
    17    4   16 1  
    18    5   17 1  
    19    5   18 1  
    20    6   19 1  
    21   10   20 1  
    22   10   21 1  
@<TRIPOS>SUBSTRUCTURE
     1 HA5         1

