### 
### Created by X-TOOL on Mon Sep 10 21:13:08 2018
### 

@<TRIPOS>MOLECULE
3pdc_ligand
   34    36     1     0     0
SMALL
GAST_HUCK


@<TRIPOS>ATOM
      1 N1         12.1640    5.0620   -1.9050 N.2       1 ZYI        -0.2979
      2 C2         11.0470    4.7220   -1.2900 C.2       1 ZYI         0.3039
      3 O3         10.9360    5.2690   -0.0340 O.3       1 ZYI        -0.1962
      4 C4         12.0590    6.0030    0.1260 C.ar      1 ZYI         0.1369
      5 C5         12.4330    6.7600    1.2310 C.ar      1 ZYI        -0.0332
      6 C6         13.6690    7.4360    1.1300 C.ar      1 ZYI        -0.0631
      7 C7         14.4520    7.3280   -0.0080 C.ar      1 ZYI         0.0217
      8 CL8        15.9870    8.1600   -0.1020 Cl        1 ZYI        -0.0815
      9 C9         14.0230    6.5460   -1.0930 C.ar      1 ZYI        -0.0534
     10 C10        12.8070    5.8720   -1.0060 C.ar      1 ZYI         0.0243
     11 N11        10.0290    3.9040   -1.8050 N.am      1 ZYI        -0.1731
     12 C12        10.2710    2.6660   -2.4050 C.2       1 ZYI         0.2170
     13 C13         9.1590    1.6780   -2.0570 C.3       1 ZYI         0.0481
     14 C14         8.7960    0.7110   -3.1740 C.3       1 ZYI        -0.0235
     15 C15         8.2630    1.3940   -4.4350 C.3       1 ZYI        -0.0481
     16 C16         7.4320    0.3280   -5.1530 C.3       1 ZYI        -0.0527
     17 C17         7.0620   -0.7120   -4.1060 C.3       1 ZYI        -0.0527
     18 C18         7.6750   -0.2470   -2.7860 C.3       1 ZYI        -0.0481
     19 O19        11.2260    2.3720   -3.1240 O.2       1 ZYI        -0.3800
     20 H          11.8092    6.8276    2.1223 H         1 ZYI         0.0548
     21 H          14.0124    8.0526    1.9607 H         1 ZYI         0.0521
     22 H          14.6341    6.4675   -1.9921 H         1 ZYI         0.0522
     23 H           9.0648    4.2298   -1.7377 H         1 ZYI         0.2432
     24 H           8.2666    2.2665   -1.8441 H         1 ZYI         0.0513
     25 H           9.5181    1.0773   -1.2213 H         1 ZYI         0.0513
     26 H           9.7425    0.2027   -3.3582 H         1 ZYI         0.0325
     27 H           9.0734    1.7615   -5.0645 H         1 ZYI         0.0269
     28 H           7.6647    2.2723   -4.1925 H         1 ZYI         0.0269
     29 H           7.9980   -0.1237   -5.9677 H         1 ZYI         0.0265
     30 H           6.5393    0.7656   -5.5998 H         1 ZYI         0.0265
     31 H           7.4420   -1.6948   -4.3848 H         1 ZYI         0.0265
     32 H           5.9796   -0.8060   -4.0188 H         1 ZYI         0.0265
     33 H           6.9349    0.2399   -2.1510 H         1 ZYI         0.0269
     34 H           8.0511   -1.0870   -2.2020 H         1 ZYI         0.0269
@<TRIPOS>BOND
     1    1    2 2  
     2    1   10 1  
     3    2    3 1  
     4    2   11 1  
     5    3    4 1  
     6    4    5 ar 
     7    4   10 ar 
     8    5    6 ar 
     9    6    7 ar 
    10    7    8 1  
    11    7    9 ar 
    12    9   10 ar 
    13   11   12 am 
    14   12   13 1  
    15   12   19 2  
    16   13   14 1  
    17   14   15 1  
    18   14   18 1  
    19   15   16 1  
    20   16   17 1  
    21   17   18 1  
    22    5   20 1  
    23    6   21 1  
    24    9   22 1  
    25   11   23 1  
    26   13   24 1  
    27   13   25 1  
    28   14   26 1  
    29   15   27 1  
    30   15   28 1  
    31   16   29 1  
    32   16   30 1  
    33   17   31 1  
    34   17   32 1  
    35   18   33 1  
    36   18   34 1  
@<TRIPOS>SUBSTRUCTURE
     1 ZYI         1

