### 
### Created by X-TOOL on Mon Sep 10 21:13:05 2018
### 

@<TRIPOS>MOLECULE
3pdq_ligand
   35    36     1     0     0
SMALL
GAST_HUCK


@<TRIPOS>ATOM
      1 O01       -24.6260  -22.4220  -25.7740 O.co2     1 KC6        -0.5574
      2 C02       -24.4650  -21.9260  -24.6570 C.2       1 KC6         0.0723
      3 C03       -25.7250  -21.8030  -23.7840 C.ar      1 KC6         0.0315
      4 C04       -26.7090  -22.7490  -24.0090 C.ar      1 KC6        -0.0190
      5 C05       -27.8650  -22.6870  -23.2270 C.ar      1 KC6         0.0154
      6 N06       -28.0640  -21.7880  -22.2550 N.ar      1 KC6        -0.2851
      7 C07       -27.0930  -20.8510  -22.0180 C.ar      1 KC6         0.0746
      8 C08       -27.3790  -19.7870  -20.9640 C.ar      1 KC6         0.0762
      9 C09       -26.3720  -18.8780  -20.5220 C.ar      1 KC6        -0.0041
     10 C10       -26.6450  -17.8550  -19.6080 C.ar      1 KC6         0.0712
     11 C11       -25.5860  -16.8910  -19.1330 C.2       1 KC6         0.2153
     12 N12       -25.8430  -15.5150  -18.9860 N.am      1 KC6        -0.2793
     13 C13       -24.8000  -14.4740  -18.9910 C.3       1 KC6         0.0704
     14 C14       -23.6690  -14.6320  -17.9320 C.3       1 KC6        -0.0148
     15 N15       -22.5610  -15.5000  -18.3580 N.4       1 KC6         0.2200
     16 O16       -24.4410  -17.3340  -18.9550 O.2       1 KC6        -0.3794
     17 C17       -27.9670  -17.6800  -19.1920 C.ar      1 KC6        -0.0136
     18 C18       -28.9290  -18.5670  -19.7100 C.ar      1 KC6         0.0173
     19 N19       -28.6790  -19.5650  -20.6050 N.ar      1 KC6        -0.2833
     20 C20       -25.9010  -20.8490  -22.7800 C.ar      1 KC6        -0.0096
     21 O21       -23.4070  -21.5240  -24.1130 O.co2     1 KC6        -0.5574
     22 H1        -26.5870  -23.5137  -24.7676 H         1 KC6         0.0750
     23 H2        -28.6487  -23.4109  -23.4189 H         1 KC6         0.0837
     24 H3        -25.3640  -18.9835  -20.9065 H         1 KC6         0.0782
     25 H4        -26.7933  -15.2256  -18.8709 H         1 KC6         0.1850
     26 H5        -25.2911  -13.5054  -18.8161 H         1 KC6         0.0573
     27 H6        -24.3309  -14.4730  -19.9860 H         1 KC6         0.0573
     28 H7        -24.1091  -15.0579  -17.0183 H         1 KC6         0.0833
     29 H8        -23.2607  -13.6346  -17.7119 H         1 KC6         0.0833
     30 H9        -21.8731  -15.5518  -17.6230 H         1 KC6         0.1995
     31 H10       -22.1365  -15.1194  -19.1893 H         1 KC6         0.1995
     32 H11       -22.9139  -16.4237  -18.5536 H         1 KC6         0.1995
     33 H12       -28.2407  -16.8931  -18.4985 H         1 KC6         0.0766
     34 H13       -29.9513  -18.4472  -19.3701 H         1 KC6         0.0841
     35 H14       -25.1300  -20.1122  -22.5857 H         1 KC6         0.0764
@<TRIPOS>BOND
     1    1    2 ar 
     2    2    3 1  
     3    2   21 ar 
     4    3    4 ar 
     5    3   20 ar 
     6    4    5 ar 
     7    5    6 ar 
     8    6    7 ar 
     9    7    8 1  
    10    7   20 ar 
    11    8    9 ar 
    12    8   19 ar 
    13    9   10 ar 
    14   10   11 1  
    15   10   17 ar 
    16   11   12 am 
    17   11   16 2  
    18   12   13 1  
    19   13   14 1  
    20   14   15 1  
    21   17   18 ar 
    22   18   19 ar 
    23    4   22 1  
    24    5   23 1  
    25    9   24 1  
    26   12   25 1  
    27   13   26 1  
    28   13   27 1  
    29   14   28 1  
    30   14   29 1  
    31   15   30 1  
    32   15   31 1  
    33   15   32 1  
    34   17   33 1  
    35   18   34 1  
    36   20   35 1  
@<TRIPOS>SUBSTRUCTURE
     1 KC6         1

