### 
### Created by X-TOOL on Mon Sep 10 21:13:06 2018
### 

@<TRIPOS>MOLECULE
3pe2_ligand
   37    40     1     0     0
SMALL
GAST_HUCK


@<TRIPOS>ATOM
      1 N1         23.4420  -27.8900   10.2610 N.ar      1 E1B        -0.2566
      2 C2         23.4000  -26.8690   11.1510 C.ar      1 E1B         0.0922
      3 N3         23.2050  -27.0940   12.4630 N.ar      1 E1B        -0.2517
      4 C4         23.0470  -28.3830   12.9440 C.ar      1 E1B         0.1245
      5 C5         23.0880  -29.4490   12.0650 C.ar      1 E1B         0.0502
      6 C6         23.2970  -29.1720   10.6780 C.ar      1 E1B         0.0434
      7 CAA        23.7750  -30.3870   20.4220 C.1       1 E1B        -0.1140
      8 OAB        22.5010  -34.7800   15.4990 O.co2     1 E1B        -0.5601
      9 OAC        22.1120  -35.5840   13.3210 O.co2     1 E1B        -0.5601
     10 CAD        23.3930  -29.4680   19.7470 C.1       1 E1B        -0.0725
     11 CAE        21.9580  -26.1610   18.6360 C.ar      1 E1B        -0.0695
     12 CAG        22.3810  -27.1860   19.4650 C.ar      1 E1B        -0.0574
     13 CAH        22.0540  -26.2790   17.2570 C.ar      1 E1B        -0.0371
     14 CAI        22.7880  -33.2180   12.3020 C.ar      1 E1B        -0.0469
     15 CAJ        22.9550  -31.9420   11.7510 C.ar      1 E1B        -0.0482
     16 CAL        23.0150  -28.4620   17.5480 C.ar      1 E1B        -0.0223
     17 CAM        22.5580  -32.3030   14.5300 C.ar      1 E1B        -0.0324
     18 NAP        22.6910  -29.9080   14.7930 N.ar      1 E1B        -0.2773
     19 NAQ        22.7310  -27.6880   15.3480 N.pl3     1 E1B        -0.2490
     20 CAR        22.4100  -34.7870   14.2440 C.2       1 E1B         0.0639
     21 CAS        22.9200  -28.3370   18.9130 C.ar      1 E1B         0.0156
     22 CAT        22.5850  -27.4390   16.7270 C.ar      1 E1B         0.0678
     23 CAU        22.6000  -33.4110   13.6860 C.ar      1 E1B         0.0111
     24 CAV        22.8320  -28.6630   14.3320 C.ar      1 E1B         0.1682
     25 CAW        22.7260  -31.0040   13.9650 C.ar      1 E1B         0.0354
     26 CAY        22.9100  -30.8090   12.6130 C.ar      1 E1B         0.0121
     27 H1         23.5259  -25.8515   10.7991 H         1 E1B         0.1131
     28 H2         23.3394  -29.9846    9.9618 H         1 E1B         0.0992
     29 H3         24.1104  -31.1940   21.0147 H         1 E1B         0.1233
     30 H4         21.5472  -25.2562   19.0692 H         1 E1B         0.0590
     31 H5         22.2910  -27.0886   20.5409 H         1 E1B         0.0537
     32 H6         21.7192  -25.4774   16.6087 H         1 E1B         0.0543
     33 H7         22.8036  -34.0814   11.6467 H         1 E1B         0.0637
     34 H8         23.1159  -31.8183   10.6862 H         1 E1B         0.0642
     35 H9         23.4284  -29.3657   17.1150 H         1 E1B         0.0550
     36 H10        22.4007  -32.4258   15.5955 H         1 E1B         0.0650
     37 H11        22.7883  -26.7697   14.8850 H         1 E1B         0.2200
@<TRIPOS>BOND
     1    1    2 ar 
     2    6    1 ar 
     3    3    2 ar 
     4    4    3 ar 
     5    5    4 ar 
     6   24    4 ar 
     7    5    6 ar 
     8   26    5 ar 
     9   10    7 3  
    10   20    8 ar 
    11   20    9 ar 
    12   21   10 1  
    13   11   12 ar 
    14   13   11 ar 
    15   21   12 ar 
    16   22   13 ar 
    17   14   15 ar 
    18   23   14 ar 
    19   15   26 ar 
    20   16   21 ar 
    21   22   16 ar 
    22   23   17 ar 
    23   17   25 ar 
    24   18   24 ar 
    25   25   18 ar 
    26   19   22 1  
    27   24   19 1  
    28   20   23 1  
    29   25   26 ar 
    30    2   27 1  
    31    6   28 1  
    32    7   29 1  
    33   11   30 1  
    34   12   31 1  
    35   13   32 1  
    36   14   33 1  
    37   15   34 1  
    38   16   35 1  
    39   17   36 1  
    40   19   37 1  
@<TRIPOS>SUBSTRUCTURE
     1 E1B         1

