### 
### Created by X-TOOL on Mon Sep 10 21:13:07 2018
### 

@<TRIPOS>MOLECULE
3peq_ligand
   68    71     1     0     0
SMALL
GAST_HUCK


@<TRIPOS>ATOM
      1 C1         31.6240    0.1810   60.9360 C.3       1 3EQ        -0.0652
      2 C2         32.5840    0.8410   59.9750 C.3       1 3EQ        -0.0539
      3 C3         32.6520    2.3400   60.1770 C.3       1 3EQ        -0.0303
      4 C4         33.7940    2.8790   59.3350 C.3       1 3EQ         0.0542
      5 N5         33.8360    4.3690   59.2570 N.am      1 3EQ        -0.1786
      6 C6         32.7260    4.9510   58.5280 C.ar      1 3EQ         0.0677
      7 C7         31.6490    5.4990   59.1920 C.ar      1 3EQ        -0.0520
      8 C8         30.5960    6.0290   58.4770 C.ar      1 3EQ        -0.0847
      9 C9         30.6200    5.9880   57.1000 C.ar      1 3EQ        -0.0789
     10 C10        31.6790    5.4320   56.4120 C.ar      1 3EQ        -0.0351
     11 C11        32.7430    4.9130   57.1420 C.ar      1 3EQ        -0.0208
     12 C12        33.9270    4.2950   56.4640 C.3       1 3EQ        -0.0355
     13 C13        31.5960    5.3970   54.9590 C.ar      1 3EQ        -0.0320
     14 C14        31.2290    6.5070   54.2250 C.ar      1 3EQ        -0.0614
     15 C15        31.1290    6.4580   52.8510 C.ar      1 3EQ        -0.0496
     16 C16        31.3940    5.2930   52.1670 C.ar      1 3EQ         0.0150
     17 S17        31.2640    5.2580   50.3880 S.3       1 3EQ        -0.1050
     18 C18        32.0740    3.6850   50.0730 C.3       1 3EQ        -0.0045
     19 C19        31.7600    4.1800   52.8940 C.ar      1 3EQ        -0.0496
     20 C20        31.8530    4.2290   54.2670 C.ar      1 3EQ        -0.0614
     21 S21        34.2960    5.0500   60.7570 S.o2      1 3EQ         0.0842
     22 O22        35.3690    4.2350   61.2910 O.2       1 3EQ        -0.1467
     23 O23        33.1260    5.2470   61.5970 O.2       1 3EQ        -0.1467
     24 C24        35.0150    6.6580   60.4440 C.ar      1 3EQ         0.1070
     25 C25        34.4060    7.7220   61.0710 C.ar      1 3EQ        -0.0473
     26 C26        34.8990    8.9990   60.9080 C.ar      1 3EQ        -0.0320
     27 C27        36.0100    9.2080   60.1180 C.ar      1 3EQ         0.1067
     28 O28        36.5460   10.4800   59.9330 O.3       1 3EQ        -0.2989
     29 C29        35.6150   11.4680   60.3820 C.3       1 3EQ         0.1245
     30 C30        35.8700   11.9090   61.8230 C.2       1 3EQ         0.0657
     31 O31        35.1810   12.8990   62.1740 O.co2     1 3EQ        -0.5662
     32 O32        36.6980   11.2520   62.5080 O.co2     1 3EQ        -0.5662
     33 C33        36.6250    8.1380   59.4930 C.ar      1 3EQ         0.0198
     34 C34        37.7380    8.3530   58.7050 C.ar      1 3EQ        -0.0531
     35 C35        38.3620    7.3030   58.0690 C.ar      1 3EQ        -0.0633
     36 C36        37.8750    6.0230   58.2190 C.ar      1 3EQ        -0.0640
     37 C37        36.7630    5.8090   59.0050 C.ar      1 3EQ        -0.0568
     38 C38        36.1280    6.8520   59.6490 C.ar      1 3EQ         0.0009
     39 H1         31.6084   -0.9034   60.7519 H         1 3EQ         0.0230
     40 H2         30.6149    0.5927   60.7870 H         1 3EQ         0.0230
     41 H3         31.9494    0.3728   61.9691 H         1 3EQ         0.0230
     42 H4         32.2527    0.6365   58.9462 H         1 3EQ         0.0263
     43 H5         33.5872    0.4167   60.1284 H         1 3EQ         0.0263
     44 H6         32.8330    2.5652   61.2384 H         1 3EQ         0.0286
     45 H7         31.7053    2.8020   59.8604 H         1 3EQ         0.0286
     46 H8         33.6899    2.4815   58.3147 H         1 3EQ         0.0550
     47 H9         34.7412    2.5280   59.7704 H         1 3EQ         0.0550
     48 H10        31.6302    5.5131   60.2757 H         1 3EQ         0.0456
     49 H11        29.7546    6.4751   58.9949 H         1 3EQ         0.0516
     50 H12        29.7870    6.4025   56.5438 H         1 3EQ         0.0453
     51 H13        34.6459    3.9516   57.2225 H         1 3EQ         0.0361
     52 H14        34.4080    5.0408   55.8141 H         1 3EQ         0.0361
     53 H15        33.5967    3.4387   55.8576 H         1 3EQ         0.0361
     54 H16        31.0150    7.4366   54.7398 H         1 3EQ         0.0599
     55 H17        30.8384    7.3469   52.3029 H         1 3EQ         0.0566
     56 H18        32.0874    3.4898   48.9905 H         1 3EQ         0.0366
     57 H19        31.5243    2.8807   50.5838 H         1 3EQ         0.0366
     58 H20        33.1061    3.7217   50.4517 H         1 3EQ         0.0366
     59 H21        31.9778    3.2525   52.3769 H         1 3EQ         0.0566
     60 H22        32.1326    3.3360   54.8143 H         1 3EQ         0.0599
     61 H23        33.5356    7.5548   61.6951 H         1 3EQ         0.0601
     62 H24        34.4153    9.8357   61.3989 H         1 3EQ         0.0499
     63 H25        34.5997   11.0499   60.3167 H         1 3EQ         0.0790
     64 H26        35.6922   12.3477   59.7262 H         1 3EQ         0.0790
     65 H27        38.1247    9.3586   58.5857 H         1 3EQ         0.0631
     66 H28        39.2346    7.4832   57.4516 H         1 3EQ         0.0591
     67 H29        38.3622    5.1912   57.7231 H         1 3EQ         0.0614
     68 H30        36.3795    4.8016   59.1197 H         1 3EQ         0.0600
@<TRIPOS>BOND
     1    1    2 1  
     2    2    3 1  
     3    3    4 1  
     4    4    5 1  
     5    5    6 1  
     6    5   21 am 
     7    6    7 ar 
     8    6   11 ar 
     9    7    8 ar 
    10    8    9 ar 
    11    9   10 ar 
    12   10   11 ar 
    13   10   13 1  
    14   11   12 1  
    15   13   14 ar 
    16   13   20 ar 
    17   14   15 ar 
    18   15   16 ar 
    19   16   17 1  
    20   16   19 ar 
    21   17   18 1  
    22   19   20 ar 
    23   21   22 2  
    24   21   23 2  
    25   21   24 1  
    26   24   25 ar 
    27   24   38 ar 
    28   25   26 ar 
    29   26   27 ar 
    30   27   28 1  
    31   27   33 ar 
    32   28   29 1  
    33   29   30 1  
    34   30   31 ar 
    35   30   32 ar 
    36   33   34 ar 
    37   33   38 ar 
    38   34   35 ar 
    39   35   36 ar 
    40   36   37 ar 
    41   37   38 ar 
    42    1   39 1  
    43    1   40 1  
    44    1   41 1  
    45    2   42 1  
    46    2   43 1  
    47    3   44 1  
    48    3   45 1  
    49    4   46 1  
    50    4   47 1  
    51    7   48 1  
    52    8   49 1  
    53    9   50 1  
    54   12   51 1  
    55   12   52 1  
    56   12   53 1  
    57   14   54 1  
    58   15   55 1  
    59   18   56 1  
    60   18   57 1  
    61   18   58 1  
    62   19   59 1  
    63   20   60 1  
    64   25   61 1  
    65   26   62 1  
    66   29   63 1  
    67   29   64 1  
    68   34   65 1  
    69   35   66 1  
    70   36   67 1  
    71   37   68 1  
@<TRIPOS>SUBSTRUCTURE
     1 3EQ         1

