### 
### Created by X-TOOL on Mon Sep 10 21:13:07 2018
### 

@<TRIPOS>MOLECULE
3pgl_ligand
   47    49     1     0     0
SMALL
GAST_HUCK


@<TRIPOS>ATOM
      1 C1          3.4510   11.3720   -3.1790 C.ar      1 RZX         0.0173
      2 C2          3.1650   11.7250   -4.4860 C.ar      1 RZX         0.1516
      3 C3          3.8770   12.8740   -5.1010 C.ar      1 RZX         0.1418
      4 C4          4.8200   13.5610   -4.3510 C.ar      1 RZX         0.0064
      5 C5          5.0840   13.1730   -3.0410 C.ar      1 RZX        -0.0184
      6 C6          4.4040   12.1030   -2.4750 C.ar      1 RZX        -0.0178
      7 N7          3.4150   13.0050   -6.3620 N.2       1 RZX        -0.1630
      8 C8          2.5100   12.0090   -6.4990 C.2       1 RZX         0.2988
      9 N9          2.3160   11.2310   -5.4170 N.pl3     1 RZX        -0.1843
     10 S10         1.6520   11.8460   -7.9610 S.3       1 RZX         0.0884
     11 C11         0.7200   10.4400   -8.3270 C.3       1 RZX         0.0879
     12 C12         0.5200    9.2660   -7.3910 C.ar      1 RZX         0.0355
     13 N13         0.5800    8.0950   -8.0410 N.ar      1 RZX        -0.3201
     14 C14         0.4320    6.9230   -7.4130 C.ar      1 RZX        -0.0152
     15 C15         0.1710    6.8500   -6.0490 C.ar      1 RZX        -0.0190
     16 C16         0.0730    8.0370   -5.3300 C.ar      1 RZX         0.1064
     17 C17         0.2430    9.2710   -5.9990 C.ar      1 RZX         0.0129
     18 O18         0.6010   12.9330   -7.9940 O.3       1 RZX        -0.2951
     19 O19        -0.1850    7.9650   -3.9690 O.3       1 RZX        -0.3137
     20 C20        -1.4220    7.4430   -3.4690 C.3       1 RZX         0.0736
     21 C21        -2.4260    8.5890   -3.4360 C.3       1 RZX        -0.0014
     22 C22        -3.7950    8.1420   -2.9570 C.3       1 RZX         0.0498
     23 O23        -4.7430    8.9200   -3.6980 O.3       1 RZX        -0.3829
     24 C24        -5.8490    8.1420   -4.1630 C.3       1 RZX         0.0364
     25 C25         0.1340   10.5440   -5.1780 C.3       1 RZX        -0.0297
     26 H1          2.9405   10.5385   -2.7101 H         1 RZX         0.0798
     27 H2          5.3513   14.4001   -4.7853 H         1 RZX         0.0980
     28 H3          5.8248   13.7092   -2.4591 H         1 RZX         0.0671
     29 H4          4.6226   11.8273   -1.4497 H         1 RZX         0.1011
     30 H5          1.6666   10.4374   -5.3198 H         1 RZX         0.2489
     31 H6          1.1710   10.0170   -9.2368 H         1 RZX         0.0630
     32 H7         -0.2907   10.8087   -8.5561 H         1 RZX         0.0630
     33 H8          0.5179    6.0050   -7.9831 H         1 RZX         0.0709
     34 H9          0.0469    5.8916   -5.5580 H         1 RZX         0.0561
     35 H10        -0.0658   12.7470   -7.3434 H         1 RZX         0.2408
     36 H11        -1.2773    7.0418   -2.4550 H         1 RZX         0.0617
     37 H12        -1.7868    6.6438   -4.1310 H         1 RZX         0.0617
     38 H13        -2.5240    9.0028   -4.4505 H         1 RZX         0.0314
     39 H14        -2.0508    9.3686   -2.7567 H         1 RZX         0.0314
     40 H15        -3.9039    8.3313   -1.8789 H         1 RZX         0.0560
     41 H16        -3.9395    7.0701   -3.1575 H         1 RZX         0.0560
     42 H17        -6.5418    8.7875   -4.7228 H         1 RZX         0.0523
     43 H18        -6.3736    7.6999   -3.3032 H         1 RZX         0.0523
     44 H19        -5.4825    7.3402   -4.8208 H         1 RZX         0.0523
     45 H20         0.2880   11.4157   -5.8310 H         1 RZX         0.0367
     46 H21         0.8996   10.5377   -4.3882 H         1 RZX         0.0367
     47 H22        -0.8646   10.6007   -4.7202 H         1 RZX         0.0367
@<TRIPOS>BOND
     1    1    2 ar 
     2    1    6 ar 
     3    2    3 ar 
     4    2    9 1  
     5    3    4 ar 
     6    3    7 1  
     7    4    5 ar 
     8    5    6 ar 
     9    7    8 2  
    10    8    9 1  
    11    8   10 1  
    12   10   11 1  
    13   10   18 1  
    14   11   12 1  
    15   12   13 ar 
    16   12   17 ar 
    17   13   14 ar 
    18   14   15 ar 
    19   15   16 ar 
    20   16   17 ar 
    21   16   19 1  
    22   17   25 1  
    23   19   20 1  
    24   20   21 1  
    25   21   22 1  
    26   22   23 1  
    27   23   24 1  
    28    1   26 1  
    29    4   27 1  
    30    5   28 1  
    31    6   29 1  
    32    9   30 1  
    33   11   31 1  
    34   11   32 1  
    35   14   33 1  
    36   15   34 1  
    37   18   35 1  
    38   20   36 1  
    39   20   37 1  
    40   21   38 1  
    41   21   39 1  
    42   22   40 1  
    43   22   41 1  
    44   24   42 1  
    45   24   43 1  
    46   24   44 1  
    47   25   45 1  
    48   25   46 1  
    49   25   47 1  
@<TRIPOS>SUBSTRUCTURE
     1 RZX         1

