### 
### Created by X-TOOL on Mon Sep 10 21:13:05 2018
### 

@<TRIPOS>MOLECULE
3pgu_ligand
   30    29     1     0     0
SMALL
GAST_HUCK


@<TRIPOS>ATOM
      1 C1        -26.7480    9.6610  -22.3670 C.2       1 OLA         0.0429
      2 O1        -27.8800    9.1050  -22.4220 O.co2     1 OLA        -0.5667
      3 O2        -26.4390   10.5290  -23.2140 O.co2     1 OLA        -0.5667
      4 C2        -25.7670    9.3270  -21.2960 C.3       1 OLA         0.0165
      5 C3        -26.1420    8.3300  -20.2550 C.2       1 OLA        -0.0859
      6 C4        -25.3120    8.1890  -19.1790 C.2       1 OLA        -0.0967
      7 C5        -25.7230    7.3380  -18.0300 C.3       1 OLA        -0.0359
      8 C6        -25.9630    5.8980  -18.3030 C.3       1 OLA        -0.0448
      9 C7        -25.5660    4.9430  -17.2300 C.3       1 OLA        -0.0449
     10 C8        -26.0270    5.2500  -15.8490 C.3       1 OLA        -0.0363
     11 C9        -27.4940    5.4110  -15.6270 C.2       1 OLA        -0.0989
     12 C10       -27.9390    6.4150  -14.8130 C.2       1 OLA        -0.1017
     13 C11       -29.3980    6.5840  -14.5520 C.3       1 OLA        -0.0486
     14 H1        -25.5302   10.2651  -20.7726 H         1 OLA         0.0550
     15 H2        -24.8631    8.9470  -21.7946 H         1 OLA         0.0550
     16 H3        -27.0480    7.7330  -20.3485 H         1 OLA         0.0464
     17 H4        -24.3501    8.6993  -19.1624 H         1 OLA         0.0457
     18 H5        -26.6554    7.7576  -17.6243 H         1 OLA         0.0390
     19 H6        -24.9304    7.4030  -17.2700 H         1 OLA         0.0390
     20 H7        -25.4025    5.6320  -19.2113 H         1 OLA         0.0286
     21 H8        -27.0399    5.7672  -18.4851 H         1 OLA         0.0286
     22 H9        -24.4669    4.9024  -17.2117 H         1 OLA         0.0286
     23 H10       -25.9650    3.9544  -17.5011 H         1 OLA         0.0286
     24 H11       -25.5434    6.1892  -15.5424 H         1 OLA         0.0388
     25 H12       -25.6843    4.4317  -15.1987 H         1 OLA         0.0388
     26 H13       -28.2014    4.7368  -16.1077 H         1 OLA         0.0450
     27 H14       -27.2243    7.0954  -14.3524 H         1 OLA         0.0447
     28 H15       -29.5532    7.4396  -13.8784 H         1 OLA         0.0353
     29 H16       -29.7947    5.6715  -14.0831 H         1 OLA         0.0353
     30 H17       -29.9219    6.7656  -15.5020 H         1 OLA         0.0353
@<TRIPOS>BOND
     1    1    2 ar 
     2    1    3 ar 
     3    1    4 1  
     4    4    5 1  
     5    5    6 2  
     6    6    7 1  
     7    7    8 1  
     8    8    9 1  
     9    9   10 1  
    10   10   11 1  
    11   11   12 2  
    12   12   13 1  
    13    4   14 1  
    14    4   15 1  
    15    5   16 1  
    16    6   17 1  
    17    7   18 1  
    18    7   19 1  
    19    8   20 1  
    20    8   21 1  
    21    9   22 1  
    22    9   23 1  
    23   10   24 1  
    24   10   25 1  
    25   11   26 1  
    26   12   27 1  
    27   13   28 1  
    28   13   29 1  
    29   13   30 1  
@<TRIPOS>SUBSTRUCTURE
     1 OLA         1

