### 
### Created by X-TOOL on Mon Sep 10 21:13:04 2018
### 

@<TRIPOS>MOLECULE
3phe_ligand
   71    75     1     0     0
SMALL
GAST_HUCK


@<TRIPOS>ATOM
      1 C1         36.0200   68.9140   19.1500 C.3       1 C9A        -0.0430
      2 N2         35.2550   70.0370   19.7010 N.4       1 C9A         0.2359
      3 C3         35.6430   71.3160   19.0310 C.3       1 C9A        -0.0119
      4 C4         34.9380   72.5400   19.6560 C.3       1 C9A         0.0672
      5 N5         35.1970   72.5870   21.1280 N.pl3     1 C9A        -0.2975
      6 C6         34.7740   71.3370   21.8240 C.3       1 C9A         0.0672
      7 C7         35.4820   70.1210   21.1820 C.3       1 C9A        -0.0119
      8 C8         34.6950   73.8340   21.6890 C.ar      1 C9A         0.0726
      9 C9         35.4630   75.0480   21.7260 C.ar      1 C9A         0.1445
     10 F10        36.7090   75.0900   21.2380 F         1 C9A        -0.1983
     11 C11        34.9580   76.2470   22.2670 C.ar      1 C9A        -0.0284
     12 C12        33.6460   76.2820   22.8060 C.ar      1 C9A         0.0370
     13 C13        33.1260   77.5660   23.3750 C.2       1 C9A         0.1152
     14 O14        33.8530   78.5500   23.3930 O.2       1 C9A        -0.4227
     15 C15        31.7390   77.6260   23.9460 C.2       1 C9A         0.1142
     16 C16        31.0320   76.4680   23.9130 C.2       1 C9A         0.0798
     17 N17        31.4630   75.2220   23.4000 N.pl3     1 C9A        -0.2276
     18 C18        30.5840   74.0170   23.5310 C.3       1 C9A         0.0912
     19 C19        30.8980   73.1650   24.7810 C.ar      1 C9A        -0.0139
     20 C20        31.7570   73.6430   25.8400 C.ar      1 C9A        -0.0560
     21 C21        32.0330   72.8500   26.9760 C.ar      1 C9A        -0.0437
     22 C22        31.4580   71.5600   27.0820 C.ar      1 C9A         0.0809
     23 C23        30.6090   71.0570   26.0600 C.ar      1 C9A        -0.0437
     24 C24        30.3330   71.8570   24.9170 C.ar      1 C9A        -0.0560
     25 S25        31.8080   70.5860   28.5030 S.o2      1 C9A        -0.0088
     26 C26        33.2230   69.6330   28.0210 C.3       1 C9A         0.0587
     27 O27        30.7130   69.6590   28.6970 O.2       1 C9A        -0.1705
     28 O28        32.2000   71.4900   29.5640 O.2       1 C9A        -0.1705
     29 C29        32.8040   75.1160   22.8190 C.ar      1 C9A         0.0831
     30 C30        33.3660   73.9130   22.2500 C.ar      1 C9A        -0.0126
     31 C31        31.1800   78.8900   24.5140 C.2       1 C9A         0.2423
     32 O32        31.7850   79.9650   24.5020 O.2       1 C9A        -0.3803
     33 O33        29.9140   78.6850   25.0430 O.3       1 C9A        -0.2707
     34 C34        29.3400   79.7470   25.8460 C.3       1 C9A         0.1088
     35 C35        29.7340   79.5740   27.3000 C.ar      1 C9A        -0.0128
     36 C36        29.3290   78.4180   28.0350 C.ar      1 C9A        -0.0572
     37 C37        29.7010   78.2650   29.4010 C.ar      1 C9A        -0.0545
     38 C38        30.4820   79.2670   30.0360 C.ar      1 C9A         0.0330
     39 CL39       30.9230   79.0850   31.6730 Cl        1 C9A        -0.0771
     40 C40        30.8940   80.4190   29.3210 C.ar      1 C9A        -0.0545
     41 C41        30.5210   80.5700   27.9570 C.ar      1 C9A        -0.0572
     42 H1         35.8525   68.8538   18.0645 H         1 C9A         0.0778
     43 H2         35.6903   67.9779   19.6243 H         1 C9A         0.0778
     44 H3         37.0911   69.0678   19.3478 H         1 C9A         0.0778
     45 H4         34.2745   69.8735   19.5337 H         1 C9A         0.2032
     46 H5         35.3703   71.2554   17.9671 H         1 C9A         0.0834
     47 H6         36.7310   71.4485   19.1237 H         1 C9A         0.0834
     48 H7         33.8548   72.4652   19.4796 H         1 C9A         0.0568
     49 H8         35.3229   73.4588   19.1895 H         1 C9A         0.0568
     50 H9         33.6845   71.2171   21.7314 H         1 C9A         0.0568
     51 H10        35.0469   71.3999   22.8877 H         1 C9A         0.0568
     52 H11        36.5629   70.2037   21.3687 H         1 C9A         0.0834
     53 H12        35.0983   69.2024   21.6500 H         1 C9A         0.0834
     54 H13        35.5708   77.1412   22.2714 H         1 C9A         0.0593
     55 H14        30.0248   76.5015   24.3257 H         1 C9A         0.1321
     56 H15        30.7171   73.3889   22.6379 H         1 C9A         0.0767
     57 H16        29.5381   74.3525   23.5908 H         1 C9A         0.0767
     58 H17        32.1985   74.6299   25.7612 H         1 C9A         0.0558
     59 H18        32.6798   73.2259   27.7605 H         1 C9A         0.0618
     60 H19        30.1737   70.0684   26.1509 H         1 C9A         0.0618
     61 H20        29.6857   71.4708   24.1380 H         1 C9A         0.0558
     62 H21        33.5263   68.9804   28.8530 H         1 C9A         0.0467
     63 H22        34.0514   70.3101   27.7654 H         1 C9A         0.0467
     64 H23        32.9694   69.0171   27.1456 H         1 C9A         0.0467
     65 H24        32.7551   73.0176   22.2436 H         1 C9A         0.0441
     66 H25        28.2438   79.7157   25.7602 H         1 C9A         0.0776
     67 H26        29.7087   80.7175   25.4825 H         1 C9A         0.0776
     68 H27        28.7346   77.6523   27.5497 H         1 C9A         0.0558
     69 H28        29.3891   77.3866   29.9544 H         1 C9A         0.0606
     70 H29        31.4899   81.1806   29.8108 H         1 C9A         0.0606
     71 H30        30.8371   81.4505   27.4093 H         1 C9A         0.0558
@<TRIPOS>BOND
     1    1    2 1  
     2    2    3 1  
     3    2    7 1  
     4    3    4 1  
     5    4    5 1  
     6    5    6 1  
     7    5    8 1  
     8    6    7 1  
     9    8    9 ar 
    10    8   30 ar 
    11    9   10 1  
    12    9   11 ar 
    13   11   12 ar 
    14   12   13 1  
    15   12   29 ar 
    16   13   14 2  
    17   13   15 1  
    18   15   16 2  
    19   15   31 1  
    20   16   17 1  
    21   17   18 1  
    22   17   29 1  
    23   18   19 1  
    24   19   20 ar 
    25   19   24 ar 
    26   20   21 ar 
    27   21   22 ar 
    28   22   23 ar 
    29   22   25 1  
    30   23   24 ar 
    31   25   26 1  
    32   25   27 2  
    33   25   28 2  
    34   29   30 ar 
    35   31   32 2  
    36   31   33 1  
    37   33   34 1  
    38   34   35 1  
    39   35   36 ar 
    40   35   41 ar 
    41   36   37 ar 
    42   37   38 ar 
    43   38   39 1  
    44   38   40 ar 
    45   40   41 ar 
    46    1   42 1  
    47    1   43 1  
    48    1   44 1  
    49    2   45 1  
    50    3   46 1  
    51    3   47 1  
    52    4   48 1  
    53    4   49 1  
    54    6   50 1  
    55    6   51 1  
    56    7   52 1  
    57    7   53 1  
    58   11   54 1  
    59   16   55 1  
    60   18   56 1  
    61   18   57 1  
    62   20   58 1  
    63   21   59 1  
    64   23   60 1  
    65   24   61 1  
    66   26   62 1  
    67   26   63 1  
    68   26   64 1  
    69   30   65 1  
    70   34   66 1  
    71   34   67 1  
    72   36   68 1  
    73   37   69 1  
    74   40   70 1  
    75   41   71 1  
@<TRIPOS>SUBSTRUCTURE
     1 C9A         1

