### 
### Created by X-TOOL on Mon Sep 10 21:13:07 2018
### 

@<TRIPOS>MOLECULE
3pi5_ligand
   56    59     1     0     0
SMALL
GAST_HUCK


@<TRIPOS>ATOM
      1 BR1        30.8570    9.7680   19.7320 Br        1 3P5        -0.0597
      2 C2         31.2840    9.6140   17.9000 C.ar      1 3P5         0.0339
      3 C3         31.0820   10.7050   17.0480 C.ar      1 3P5         0.0907
      4 C4         31.4590   10.6060   15.7050 C.ar      1 3P5        -0.0368
      5 C6         32.0160    9.4230   15.1980 C.ar      1 3P5        -0.0658
      6 C8         32.1800    8.3210   16.0470 C.ar      1 3P5        -0.0505
      7 C9         31.8120    8.4120   17.4020 C.ar      1 3P5        -0.0592
      8 C11        32.7660    7.0140   15.4730 C.3       1 3P5        -0.0168
      9 C14        31.6480    6.2010   14.7520 C.3       1 3P5         0.0179
     10 C16        32.1840    4.8130   14.4050 C.3       1 3P5         0.1050
     11 C18        31.2290    3.9860   13.5560 C.3       1 3P5         0.0254
     12 C20        29.8940    3.7330   14.2590 C.3       1 3P5         0.1107
     13 S23        29.1090    5.3160   14.5550 S.o2      1 3P5        -0.0252
     14 C24        30.3920    6.0960   15.6250 C.3       1 3P5         0.0729
     15 O27        27.9310    5.1400   15.3120 O.2       1 3P5        -0.1741
     16 O28        29.0540    6.0510   13.3160 O.2       1 3P5        -0.1741
     17 N29        31.9180    2.6970   13.2510 N.4       1 3P5         0.2442
     18 C31        31.3020    1.9300   12.1490 C.3       1 3P5        -0.0011
     19 C34        31.2410    2.6960   10.8010 C.ar      1 3P5        -0.0054
     20 C35        32.3910    3.1890   10.1530 C.ar      1 3P5        -0.0539
     21 C37        32.2610    3.8950    8.9290 C.ar      1 3P5        -0.0466
     22 C38        31.0000    4.0830    8.3640 C.ar      1 3P5        -0.0670
     23 C40        29.8650    3.5750    9.0030 C.ar      1 3P5        -0.0750
     24 C42        29.9800    2.8930   10.2190 C.ar      1 3P5        -0.0622
     25 C44        33.4420    4.4980    8.1460 C.3       1 3P5        -0.0087
     26 C46        34.7160    3.6590    8.3150 C.3       1 3P5        -0.0385
     27 C49        34.5520    4.9610    9.1010 C.3       1 3P5        -0.0385
     28 O52        33.4000    4.9620   13.6700 O.3       1 3P5        -0.3857
     29 O54        30.5130   11.8790   17.5320 O.3       1 3P5        -0.3354
     30 H1         31.3187   11.4556   15.0466 H         1 3P5         0.0533
     31 H2         32.3169    9.3620   14.1584 H         1 3P5         0.0555
     32 H3         31.9355    7.5582   18.0584 H         1 3P5         0.0556
     33 H4         33.1840    6.4111   16.2926 H         1 3P5         0.0409
     34 H5         33.5618    7.2565   14.7534 H         1 3P5         0.0409
     35 H6         31.3799    6.7200   13.8199 H         1 3P5         0.0363
     36 H7         32.3817    4.2714   15.3418 H         1 3P5         0.0655
     37 H8         31.0283    4.5227   12.6171 H         1 3P5         0.0893
     38 H9         30.0684    3.2191   15.2158 H         1 3P5         0.0557
     39 H10        29.2490    3.1110   13.6209 H         1 3P5         0.0557
     40 H11        30.0655    7.0949   15.9500 H         1 3P5         0.0505
     41 H12        30.5889    5.4694   16.5074 H         1 3P5         0.0505
     42 H13        31.9029    2.1257   14.0813 H         1 3P5         0.2032
     43 H14        32.8729    2.9001   13.0002 H         1 3P5         0.2032
     44 H15        30.2754    1.6663   12.4432 H         1 3P5         0.0979
     45 H16        31.8876    1.0112   11.9980 H         1 3P5         0.0979
     46 H17        33.3711    3.0296   10.5878 H         1 3P5         0.0496
     47 H18        30.8998    4.6230    7.4294 H         1 3P5         0.0500
     48 H19        28.8883    3.7106    8.5527 H         1 3P5         0.0582
     49 H20        29.0920    2.5156   10.7130 H         1 3P5         0.0501
     50 H21        33.1625    5.0186    7.2182 H         1 3P5         0.0460
     51 H22        35.4479    3.6000    7.4959 H         1 3P5         0.0291
     52 H23        34.6720    2.6922    8.8378 H         1 3P5         0.0291
     53 H24        34.3899    4.9299   10.1885 H         1 3P5         0.0291
     54 H25        35.1658    5.8377    8.8467 H         1 3P5         0.0291
     55 H26        34.0155    5.4761   14.1792 H         1 3P5         0.2101
     56 H27        31.1228   12.5977   17.4129 H         1 3P5         0.2473
@<TRIPOS>BOND
     1    1    2 1  
     2    2    3 ar 
     3    2    7 ar 
     4    3    4 ar 
     5    3   29 1  
     6    4    5 ar 
     7    5    6 ar 
     8    6    7 ar 
     9    6    8 1  
    10    8    9 1  
    11    9   10 1  
    12    9   14 1  
    13   10   11 1  
    14   10   28 1  
    15   11   12 1  
    16   11   17 1  
    17   12   13 1  
    18   13   14 1  
    19   13   15 2  
    20   13   16 2  
    21   17   18 1  
    22   18   19 1  
    23   19   20 ar 
    24   19   24 ar 
    25   20   21 ar 
    26   21   22 ar 
    27   21   25 1  
    28   22   23 ar 
    29   23   24 ar 
    30   25   26 1  
    31   25   27 1  
    32   26   27 1  
    33    4   30 1  
    34    5   31 1  
    35    7   32 1  
    36    8   33 1  
    37    8   34 1  
    38    9   35 1  
    39   10   36 1  
    40   11   37 1  
    41   12   38 1  
    42   12   39 1  
    43   14   40 1  
    44   14   41 1  
    45   17   42 1  
    46   17   43 1  
    47   18   44 1  
    48   18   45 1  
    49   20   46 1  
    50   22   47 1  
    51   23   48 1  
    52   24   49 1  
    53   25   50 1  
    54   26   51 1  
    55   26   52 1  
    56   27   53 1  
    57   27   54 1  
    58   28   55 1  
    59   29   56 1  
@<TRIPOS>SUBSTRUCTURE
     1 3P5         1

