### 
### Created by X-TOOL on Mon Sep 10 21:13:07 2018
### 

@<TRIPOS>MOLECULE
3pix_ligand
   56    59     1     0     0
SMALL
GAST_HUCK


@<TRIPOS>ATOM
      1 N1         18.3760    5.8870   -0.3900 N.2       1 027        -0.1819
      2 N2         19.7020    6.3580   -0.4590 N.am      1 027        -0.1688
      3 C3         17.6450    5.6140   -1.4770 C.2       1 027         0.1484
      4 C4         20.3470    6.5850   -1.7080 C.2       1 027         0.2304
      5 C5         19.6610    6.3310   -2.8880 C.ar      1 027         0.0525
      6 C6         18.2640    5.8230   -2.8130 C.ar      1 027         0.0257
      7 C7         15.5630    5.1030   -0.3030 C.2       1 027         0.1661
      8 N8         16.3700    5.1480   -1.3990 N.pl3     1 027        -0.2411
      9 C9         15.9010    5.2960    0.9650 C.2       1 027        -0.0302
     10 N10        13.7530    4.8590    0.8970 N.2       1 027        -0.2548
     11 N11        14.2540    4.8210   -0.4200 N.pl3     1 027        -0.2130
     12 N12        20.1320    6.4760   -6.4660 N.pl3     1 027        -0.2977
     13 C13        20.2070    6.5200   -4.0420 C.ar      1 027        -0.0250
     14 C14        19.5180    6.2650   -5.1930 C.ar      1 027         0.0462
     15 C15        14.7930    5.1510    1.6970 C.2       1 027        -0.0173
     16 C16        17.6180    5.5790   -3.9000 C.ar      1 027        -0.0565
     17 N17        20.7070    8.1740   -8.7130 N.4       1 027         0.2359
     18 O18        21.5290    7.0120   -1.7490 O.2       1 027        -0.3958
     19 C19        20.4240    6.6300    0.7900 C.3       1 027         0.0749
     20 C20        18.2350    5.7950   -5.1220 C.ar      1 027        -0.0387
     21 C21        21.1170    7.5760   -6.3930 C.3       1 027         0.0672
     22 C22        19.1070    6.7750   -7.4910 C.3       1 027         0.0672
     23 C23        19.7370    7.0780   -8.8500 C.3       1 027        -0.0119
     24 C24        21.7600    7.7940   -7.7600 C.3       1 027        -0.0119
     25 C25        21.3290    8.4620  -10.0170 C.3       1 027        -0.0430
     26 C26        14.9140    5.3240    3.1880 C.3       1 027        -0.0330
     27 C27        19.8180    7.8470    1.4790 C.3       1 027        -0.0345
     28 C28        20.4070    5.4100    1.7050 C.3       1 027        -0.0345
     29 H1         15.9659    4.7854   -2.2743 H         1 027         0.2134
     30 H2         16.8966    5.5293    1.3396 H         1 027         0.0163
     31 H3         13.7307    4.6207   -1.2842 H         1 027         0.2456
     32 H4         21.2258    6.8859   -4.0983 H         1 027         0.0555
     33 H5         16.6003    5.2078   -3.8595 H         1 027         0.0601
     34 H6         20.2322    8.9978   -8.3783 H         1 027         0.2032
     35 H7         21.4715    6.8577    0.5434 H         1 027         0.0645
     36 H8         17.6919    5.5881   -6.0371 H         1 027         0.0559
     37 H9         21.8966    7.3187   -5.6609 H         1 027         0.0568
     38 H10        20.6089    8.4994   -6.0783 H         1 027         0.0568
     39 H11        18.5227    7.6486   -7.1664 H         1 027         0.0568
     40 H12        18.4408    5.9056   -7.5930 H         1 027         0.0568
     41 H13        20.2505    6.1797   -9.2234 H         1 027         0.0834
     42 H14        18.9503    7.3725   -9.5602 H         1 027         0.0834
     43 H15        22.5090    8.5969   -7.6944 H         1 027         0.0834
     44 H16        22.2460    6.8655   -8.0942 H         1 027         0.0834
     45 H17        20.5503    8.7479  -10.7395 H         1 027         0.0778
     46 H18        21.8537    7.5655  -10.3790 H         1 027         0.0778
     47 H19        22.0473    9.2877   -9.9063 H         1 027         0.0778
     48 H20        13.9291    5.1768    3.6553 H         1 027         0.0372
     49 H21        15.2778    6.3378    3.4112 H         1 027         0.0372
     50 H22        15.6233    4.5838    3.5867 H         1 027         0.0372
     51 H23        20.3616    8.0474    2.4141 H         1 027         0.0259
     52 H24        18.7594    7.6512    1.7050 H         1 027         0.0259
     53 H25        19.8957    8.7207    0.8153 H         1 027         0.0259
     54 H26        20.9533    5.6392    2.6318 H         1 027         0.0259
     55 H27        20.8889    4.5627    1.1954 H         1 027         0.0259
     56 H28        19.3666    5.1482    1.9479 H         1 027         0.0259
@<TRIPOS>BOND
     1    2    1 1  
     2    3    1 2  
     3    4    2 am 
     4    2   19 1  
     5    6    3 1  
     6    3    8 1  
     7    5    4 1  
     8    4   18 2  
     9    5    6 ar 
    10   13    5 ar 
    11   16    6 ar 
    12    8    7 1  
    13    7    9 2  
    14    7   11 1  
    15    9   15 1  
    16   11   10 1  
    17   10   15 2  
    18   12   14 1  
    19   21   12 1  
    20   12   22 1  
    21   14   13 ar 
    22   14   20 ar 
    23   15   26 1  
    24   20   16 ar 
    25   17   23 1  
    26   24   17 1  
    27   17   25 1  
    28   19   27 1  
    29   19   28 1  
    30   21   24 1  
    31   22   23 1  
    32    8   29 1  
    33    9   30 1  
    34   11   31 1  
    35   13   32 1  
    36   16   33 1  
    37   17   34 1  
    38   19   35 1  
    39   20   36 1  
    40   21   37 1  
    41   21   38 1  
    42   22   39 1  
    43   22   40 1  
    44   23   41 1  
    45   23   42 1  
    46   24   43 1  
    47   24   44 1  
    48   25   45 1  
    49   25   46 1  
    50   25   47 1  
    51   26   48 1  
    52   26   49 1  
    53   26   50 1  
    54   27   51 1  
    55   27   52 1  
    56   27   53 1  
    57   28   54 1  
    58   28   55 1  
    59   28   56 1  
@<TRIPOS>SUBSTRUCTURE
     1 027         1

