### 
### Created by X-TOOL on Mon Sep 10 21:13:07 2018
### 

@<TRIPOS>MOLECULE
3piy_ligand
   57    60     1     0     0
SMALL
GAST_HUCK


@<TRIPOS>ATOM
      1 N1        -14.2190    7.6380  -13.4350 N.am      1 585        -0.2201
      2 N2        -18.2980    5.8380  -18.1290 N.ar      1 585        -0.2368
      3 C3        -14.7430    7.0630  -14.6100 C.ar      1 585         0.1593
      4 C4        -18.7070    5.6880  -16.8800 C.ar      1 585         0.1700
      5 C5        -12.9830    8.2340  -13.4950 C.2       1 585         0.2582
      6 N6        -16.0250    6.7300  -14.6950 N.ar      1 585        -0.2758
      7 C7        -19.1340    5.6630  -19.1480 C.ar      1 585         0.1889
      8 O8        -12.5700    7.1580  -15.6670 O.3       1 585        -0.3117
      9 C9        -12.2420    8.2720  -14.8230 C.3       1 585         0.1659
     10 N10       -17.8790    5.8620  -15.7850 N.pl3     1 585        -0.2503
     11 C11       -20.0350    5.3130  -16.6400 C.ar      1 585         0.1903
     12 C12       -15.0390    7.4070  -21.7750 C.ar      1 585         0.1350
     13 C13       -13.8910    6.8410  -15.7060 C.ar      1 585         0.1279
     14 C14       -16.5370    6.1930  -15.8070 C.ar      1 585         0.1071
     15 C15       -15.7620    6.5020  -22.5810 C.ar      1 585         0.1025
     16 C16       -15.5400    7.7940  -20.5350 C.ar      1 585         0.1025
     17 N17       -20.3940    5.3170  -18.9640 N.ar      1 585        -0.2721
     18 C18       -17.4700    6.3860  -20.8580 C.ar      1 585         0.0369
     19 C19       -16.9750    5.9990  -22.0970 C.ar      1 585        -0.0289
     20 C20       -16.7570    7.2910  -20.0820 C.ar      1 585        -0.0289
     21 N21       -18.7030    5.8510  -20.4550 N.pl3     1 585        -0.2568
     22 C22       -20.8690    5.1280  -17.7340 C.ar      1 585         0.0345
     23 O23       -12.5060    8.7620  -12.4990 O.2       1 585        -0.3321
     24 C24       -14.4070    6.2610  -16.8650 C.ar      1 585        -0.0361
     25 F25       -20.4590    5.1440  -15.3530 F         1 585        -0.1858
     26 C26       -15.7490    5.9320  -16.9200 C.ar      1 585        -0.0355
     27 O27       -13.8490    7.9400  -22.1790 O.3       1 585        -0.3368
     28 O28       -14.7930    8.6670  -19.8020 O.3       1 585        -0.3307
     29 O29       -15.2720    6.1180  -23.8120 O.3       1 585        -0.3307
     30 C30       -12.6120    9.5910  -15.5020 C.3       1 585        -0.0252
     31 C31       -10.7150    8.2480  -14.6750 C.3       1 585        -0.0252
     32 C32       -12.7680    7.1930  -21.6020 C.3       1 585         0.0517
     33 C33       -15.5710    9.2630  -18.7520 C.3       1 585         0.0562
     34 C34       -16.2620    5.4450  -24.6150 C.3       1 585         0.0562
     35 H         -14.7448    7.6122  -12.5613 H         1 585         0.2297
     36 H         -18.3029    5.7326  -14.8663 H         1 585         0.2162
     37 H         -17.5411    5.2914  -22.7027 H         1 585         0.0345
     38 H         -17.1509    7.6081  -19.1164 H         1 585         0.0345
     39 H         -19.3468    5.5724  -21.1955 H         1 585         0.2136
     40 H         -21.9071    4.8297  -17.5874 H         1 585         0.0829
     41 H         -13.7582    6.0689  -17.7196 H         1 585         0.0576
     42 H         -16.1773    5.4793  -17.8143 H         1 585         0.0473
     43 H         -12.0615    9.6832  -16.4382 H         1 585         0.0246
     44 H         -13.6827    9.6055  -15.7057 H         1 585         0.0246
     45 H         -12.3547   10.4214  -14.8445 H         1 585         0.0246
     46 H         -10.4099    7.3046  -14.2223 H         1 585         0.0246
     47 H         -10.2544    8.3465  -15.6580 H         1 585         0.0246
     48 H         -10.3997    9.0759  -14.0400 H         1 585         0.0246
     49 H         -12.8362    7.2384  -20.5151 H         1 585         0.0564
     50 H         -12.8306    6.1549  -21.9282 H         1 585         0.0564
     51 H         -11.8191    7.6204  -21.9260 H         1 585         0.0564
     52 H         -16.4117    9.8038  -19.1866 H         1 585         0.0572
     53 H         -15.9434    8.4818  -18.0893 H         1 585         0.0572
     54 H         -14.9463    9.9540  -18.1861 H         1 585         0.0572
     55 H         -16.6026    4.5498  -24.0947 H         1 585         0.0572
     56 H         -17.1069    6.1128  -24.7830 H         1 585         0.0572
     57 H         -15.8224    5.1652  -25.5724 H         1 585         0.0572
@<TRIPOS>BOND
     1    3    1 1  
     2    1    5 am 
     3    2    4 ar 
     4    7    2 ar 
     5    6    3 ar 
     6    3   13 ar 
     7    4   10 1  
     8    4   11 ar 
     9    5    9 1  
    10    5   23 2  
    11   14    6 ar 
    12    7   17 ar 
    13   21    7 1  
    14    8    9 1  
    15   13    8 1  
    16    9   30 1  
    17    9   31 1  
    18   10   14 1  
    19   22   11 ar 
    20   11   25 1  
    21   15   12 ar 
    22   16   12 ar 
    23   12   27 1  
    24   13   24 ar 
    25   14   26 ar 
    26   19   15 ar 
    27   15   29 1  
    28   20   16 ar 
    29   16   28 1  
    30   17   22 ar 
    31   18   19 ar 
    32   18   20 ar 
    33   18   21 1  
    34   24   26 ar 
    35   27   32 1  
    36   28   33 1  
    37   29   34 1  
    38    1   35 1  
    39   10   36 1  
    40   19   37 1  
    41   20   38 1  
    42   21   39 1  
    43   22   40 1  
    44   24   41 1  
    45   26   42 1  
    46   30   43 1  
    47   30   44 1  
    48   30   45 1  
    49   31   46 1  
    50   31   47 1  
    51   31   48 1  
    52   32   49 1  
    53   32   50 1  
    54   32   51 1  
    55   33   52 1  
    56   33   53 1  
    57   33   54 1  
    58   34   55 1  
    59   34   56 1  
    60   34   57 1  
@<TRIPOS>SUBSTRUCTURE
     1 585         1

