### 
### Created by X-TOOL on Mon Sep 10 21:13:07 2018
### 

@<TRIPOS>MOLECULE
3piz_ligand
   57    60     1     0     0
SMALL
GAST_HUCK


@<TRIPOS>ATOM
      1 N1        -19.7270    5.2440  -14.8630 N.pl3     1 03C        -0.1395
      2 C2        -20.2550    5.1980  -13.6320 C.ar      1 03C         0.1137
      3 C3        -20.3860    5.2290  -16.0840 C.2       1 03C         0.1935
      4 N4        -18.3610    5.3140  -15.1180 N.2       1 03C        -0.2224
      5 C5        -20.1330    4.0370  -12.8620 C.ar      1 03C        -0.0100
      6 C6        -20.8980    6.3280  -13.1080 C.ar      1 03C        -0.0329
      7 C7        -19.4220    5.2900  -17.0940 C.2       1 03C         0.0652
      8 N8        -21.7300    5.1590  -16.2510 N.pl3     1 03C        -0.2997
      9 C9        -18.1730    5.3390  -16.4900 C.2       1 03C        -0.0053
     10 C10       -20.6610    3.9980  -11.5730 C.ar      1 03C        -0.0648
     11 C11       -19.4430    2.8120  -13.4130 C.3       1 03C        -0.0308
     12 C12       -21.4320    6.2930  -11.8160 C.ar      1 03C        -0.0734
     13 C13       -19.6680    5.2980  -18.5650 C.2       1 03C         0.1249
     14 C14       -21.3100    5.1280  -11.0540 C.ar      1 03C        -0.0760
     15 C15       -18.5810    5.6310  -19.5520 C.ar      1 03C         0.0176
     16 O16       -20.7760    5.0230  -18.9910 O.2       1 03C        -0.3957
     17 C17       -17.5360    6.5230  -19.2710 C.ar      1 03C        -0.0429
     18 C18       -18.6420    5.0160  -20.8030 C.ar      1 03C        -0.0514
     19 C19       -16.5640    6.7880  -20.2500 C.ar      1 03C        -0.0345
     20 C20       -17.6830    5.2740  -21.7710 C.ar      1 03C        -0.0630
     21 C21       -15.4160    7.7130  -20.0280 C.3       1 03C        -0.0035
     22 C22       -16.6500    6.1580  -21.4890 C.ar      1 03C        -0.0558
     23 C23       -15.7660    8.8380  -19.0430 C.3       1 03C        -0.0232
     24 C24       -14.2150    6.8720  -19.5640 C.3       1 03C        -0.0232
     25 C25       -14.5410    9.5450  -18.4600 C.3       1 03C         0.0313
     26 C26       -13.0840    7.7140  -18.9730 C.3       1 03C         0.0313
     27 N27       -13.6430    8.5250  -17.8740 N.am      1 03C        -0.2384
     28 S28       -12.4590    9.1470  -16.9530 S.o2      1 03C         0.0385
     29 O29       -11.3860    8.1800  -16.8700 O.2       1 03C        -0.1556
     30 O30       -11.9620   10.3850  -17.5040 O.2       1 03C        -0.1556
     31 C31       -13.0300    9.4410  -15.4170 C.3       1 03C         0.0734
     32 H         -20.9818    7.2343  -13.7078 H         1 03C         0.0560
     33 H         -22.1272    5.1468  -17.1904 H         1 03C         0.1832
     34 H         -22.3436    5.1185  -15.4372 H         1 03C         0.1832
     35 H         -17.2135    5.3884  -17.0048 H         1 03C         0.0647
     36 H         -20.5701    3.0939  -10.9710 H         1 03C         0.0536
     37 H         -19.9668    2.4726  -14.3066 H         1 03C         0.0377
     38 H         -18.4124    3.0603  -13.6667 H         1 03C         0.0377
     39 H         -19.4534    2.0220  -12.6620 H         1 03C         0.0377
     40 H         -21.9390    7.1669  -11.4069 H         1 03C         0.0541
     41 H         -21.7234    5.0971  -10.0459 H         1 03C         0.0536
     42 H         -17.4782    7.0087  -18.2969 H         1 03C         0.0605
     43 H         -19.4545    4.3233  -21.0224 H         1 03C         0.0610
     44 H         -17.7397    4.7871  -22.7446 H         1 03C         0.0611
     45 H         -15.1620    8.2219  -20.9578 H         1 03C         0.0462
     46 H         -15.8953    6.3618  -22.2486 H         1 03C         0.0592
     47 H         -16.3094    8.3877  -18.2124 H         1 03C         0.0305
     48 H         -16.3438    9.5831  -19.5899 H         1 03C         0.0305
     49 H         -13.8190    6.3517  -20.4361 H         1 03C         0.0305
     50 H         -14.5661    6.1959  -18.7844 H         1 03C         0.0305
     51 H         -14.8513   10.2526  -17.6912 H         1 03C         0.0479
     52 H         -14.0193   10.0924  -19.2450 H         1 03C         0.0479
     53 H         -12.6579    8.3618  -19.7391 H         1 03C         0.0479
     54 H         -12.2909    7.0675  -18.5973 H         1 03C         0.0479
     55 H         -13.4002    8.5116  -14.9843 H         1 03C         0.0482
     56 H         -12.2224    9.8343  -14.7996 H         1 03C         0.0482
     57 H         -13.8399   10.1689  -15.4650 H         1 03C         0.0482
@<TRIPOS>BOND
     1    1    2 1  
     2    1    3 1  
     3    1    4 1  
     4    2    5 ar 
     5    2    6 ar 
     6    3    7 2  
     7    3    8 1  
     8    4    9 2  
     9    5   10 ar 
    10    5   11 1  
    11    6   12 ar 
    12    7    9 1  
    13    7   13 1  
    14   10   14 ar 
    15   12   14 ar 
    16   13   15 1  
    17   13   16 2  
    18   15   17 ar 
    19   15   18 ar 
    20   17   19 ar 
    21   18   20 ar 
    22   19   21 1  
    23   19   22 ar 
    24   20   22 ar 
    25   21   23 1  
    26   21   24 1  
    27   23   25 1  
    28   24   26 1  
    29   25   27 1  
    30   26   27 1  
    31   27   28 am 
    32   28   29 2  
    33   28   30 2  
    34   28   31 1  
    35    6   32 1  
    36    8   33 1  
    37    8   34 1  
    38    9   35 1  
    39   10   36 1  
    40   11   37 1  
    41   11   38 1  
    42   11   39 1  
    43   12   40 1  
    44   14   41 1  
    45   17   42 1  
    46   18   43 1  
    47   20   44 1  
    48   21   45 1  
    49   22   46 1  
    50   23   47 1  
    51   23   48 1  
    52   24   49 1  
    53   24   50 1  
    54   25   51 1  
    55   25   52 1  
    56   26   53 1  
    57   26   54 1  
    58   31   55 1  
    59   31   56 1  
    60   31   57 1  
@<TRIPOS>SUBSTRUCTURE
     1 03C         1

