### 
### Created by X-TOOL on Mon Sep 10 21:13:07 2018
### 

@<TRIPOS>MOLECULE
3pj2_ligand
   64    67     1     0     0
SMALL
GAST_HUCK


@<TRIPOS>ATOM
      1 N1        -20.7200    5.0010  -19.0360 N.ar      1 04K        -0.2724
      2 C2        -19.5120    5.4970  -19.2960 C.ar      1 04K         0.1881
      3 N3        -18.6470    5.7880  -18.3260 N.ar      1 04K        -0.2394
      4 C4        -21.1230    4.7740  -17.7960 C.ar      1 04K         0.0050
      5 C5        -20.2440    5.0590  -16.7420 C.ar      1 04K         0.0317
      6 C6        -18.9630    5.5910  -17.0430 C.ar      1 04K         0.1547
      7 N7        -18.0910    5.8730  -16.0100 N.am      1 04K        -0.1974
      8 C8        -18.4330    5.6300  -14.7170 C.2       1 04K         0.2664
      9 C9        -19.7050    5.0930  -14.3620 C.2       1 04K         0.1914
     10 C10       -20.6080    4.8080  -15.3470 C.2       1 04K        -0.0145
     11 O11       -20.0090    4.8320  -13.0490 O.3       1 04K        -0.2514
     12 C12       -20.7550    5.7360  -12.3440 C.ar      1 04K         0.1139
     13 N13       -19.2040    5.7010  -20.6310 N.pl3     1 04K        -0.2521
     14 C14       -17.9480    5.9990  -21.1960 C.ar      1 04K         0.0547
     15 C15       -17.7210    5.6070  -22.5160 C.ar      1 04K        -0.0461
     16 C16       -16.5160    5.8880  -23.1400 C.ar      1 04K        -0.0419
     17 C17       -15.5140    6.5660  -22.4540 C.ar      1 04K         0.0800
     18 C18       -15.7390    6.9760  -21.1360 C.ar      1 04K        -0.0419
     19 C19       -16.9470    6.6940  -20.5100 C.ar      1 04K        -0.0461
     20 O20       -14.3380    6.8350  -23.1010 O.3       1 04K        -0.3199
     21 C21       -13.2400    6.2870  -22.3680 C.3       1 04K         0.1077
     22 C22       -11.9320    6.4620  -23.1490 C.3       1 04K        -0.0038
     23 N23       -11.8790    5.5680  -24.3190 N.4       1 04K         0.2367
     24 C24       -10.7190    6.0120  -25.1130 C.3       1 04K        -0.0347
     25 C25       -11.0750    6.0610  -26.6020 C.3       1 04K        -0.0245
     26 C26       -11.5590    4.2110  -23.8390 C.3       1 04K        -0.0347
     27 C27       -12.5090    3.1910  -24.4760 C.3       1 04K        -0.0245
     28 O28       -17.6350    5.8750  -13.8230 O.2       1 04K        -0.3858
     29 C29       -16.7650    6.4240  -16.3300 C.3       1 04K         0.0533
     30 C30       -20.5020    5.8290  -10.9770 C.ar      1 04K        -0.0295
     31 C31       -21.2200    6.7030  -10.1780 C.ar      1 04K        -0.0358
     32 C32       -22.2140    7.4910  -10.7410 C.ar      1 04K         0.1212
     33 C33       -22.4850    7.3950  -12.1020 C.ar      1 04K        -0.0358
     34 C34       -21.7640    6.5190  -12.9030 C.ar      1 04K        -0.0295
     35 F35       -22.9170    8.3480   -9.9620 F         1 04K        -0.1922
     36 H1        -22.1120    4.3761  -17.5996 H         1 04K         0.0825
     37 H2        -21.5860    4.3993  -15.0972 H         1 04K         0.0500
     38 H3        -19.9901    5.6256  -21.2923 H         1 04K         0.2148
     39 H4        -18.4954    5.0772  -23.0589 H         1 04K         0.0512
     40 H5        -16.3539    5.5784  -24.1661 H         1 04K         0.0516
     41 H6        -14.9671    7.5165  -20.6001 H         1 04K         0.0516
     42 H7        -17.1139    7.0134  -19.4877 H         1 04K         0.0512
     43 H8        -13.4183    5.2152  -22.1962 H         1 04K         0.0663
     44 H9        -13.1561    6.8044  -21.4009 H         1 04K         0.0663
     45 H10       -11.0856    6.2325  -22.4850 H         1 04K         0.0841
     46 H11       -11.8569    7.5045  -23.4919 H         1 04K         0.0841
     47 H12       -12.7363    5.5874  -24.8489 H         1 04K         0.2034
     48 H13        -9.8869    5.3084  -24.9628 H         1 04K         0.0812
     49 H14       -10.4153    7.0155  -24.7803 H         1 04K         0.0812
     50 H15       -10.1988    6.3938  -27.1777 H         1 04K         0.0281
     51 H16       -11.9051    6.7657  -26.7576 H         1 04K         0.0281
     52 H17       -11.3767    5.0587  -26.9401 H         1 04K         0.0281
     53 H18       -11.6683    4.1765  -22.7450 H         1 04K         0.0812
     54 H19       -10.5226    3.9632  -24.1120 H         1 04K         0.0812
     55 H20       -12.2622    2.1828  -24.1118 H         1 04K         0.0281
     56 H21       -12.4005    3.2223  -25.5702 H         1 04K         0.0281
     57 H22       -13.5462    3.4357  -24.2032 H         1 04K         0.0281
     58 H23       -16.6737    6.5508  -17.4188 H         1 04K         0.0579
     59 H24       -15.9856    5.7339  -15.9747 H         1 04K         0.0579
     60 H25       -16.6442    7.3993  -15.8359 H         1 04K         0.0579
     61 H26       -19.7323    5.2084  -10.5326 H         1 04K         0.0545
     62 H27       -21.0065    6.7713   -9.1174 H         1 04K         0.0579
     63 H28       -23.2642    8.0080  -12.5403 H         1 04K         0.0579
     64 H29       -21.9855    6.4442  -13.9615 H         1 04K         0.0545
@<TRIPOS>BOND
     1    1    2 ar 
     2    1    4 ar 
     3    2    3 ar 
     4    2   13 1  
     5    3    6 ar 
     6    4    5 ar 
     7    5    6 ar 
     8    5   10 1  
     9    6    7 1  
    10    7    8 am 
    11    7   29 1  
    12    8    9 1  
    13    8   28 2  
    14    9   10 2  
    15    9   11 1  
    16   11   12 1  
    17   12   30 ar 
    18   12   34 ar 
    19   13   14 1  
    20   14   15 ar 
    21   14   19 ar 
    22   15   16 ar 
    23   16   17 ar 
    24   17   18 ar 
    25   17   20 1  
    26   18   19 ar 
    27   20   21 1  
    28   21   22 1  
    29   22   23 1  
    30   23   24 1  
    31   23   26 1  
    32   24   25 1  
    33   26   27 1  
    34   30   31 ar 
    35   31   32 ar 
    36   32   33 ar 
    37   32   35 1  
    38   33   34 ar 
    39    4   36 1  
    40   10   37 1  
    41   13   38 1  
    42   15   39 1  
    43   16   40 1  
    44   18   41 1  
    45   19   42 1  
    46   21   43 1  
    47   21   44 1  
    48   22   45 1  
    49   22   46 1  
    50   23   47 1  
    51   24   48 1  
    52   24   49 1  
    53   25   50 1  
    54   25   51 1  
    55   25   52 1  
    56   26   53 1  
    57   26   54 1  
    58   27   55 1  
    59   27   56 1  
    60   27   57 1  
    61   29   58 1  
    62   29   59 1  
    63   29   60 1  
    64   30   61 1  
    65   31   62 1  
    66   33   63 1  
    67   34   64 1  
@<TRIPOS>SUBSTRUCTURE
     1 04K         1

