### 
### Created by X-TOOL on Mon Sep 10 21:13:08 2018
### 

@<TRIPOS>MOLECULE
3pj3_ligand
   59    63     1     0     0
SMALL
GAST_HUCK


@<TRIPOS>ATOM
      1 C1        -18.1040    5.8430  -20.4070 C.2       1 04L         0.1415
      2 N2        -19.4110    5.5190  -20.5390 N.2       1 04L        -0.2949
      3 N3        -17.8100    5.8760  -19.0880 N.pl3     1 04L        -0.2472
      4 C4        -19.9410    5.3390  -19.3170 C.ar      1 04L         0.0886
      5 C5        -20.1110    5.3690  -14.2500 C.2       1 04L         0.2247
      6 C6        -18.9260    5.5720  -18.3960 C.ar      1 04L         0.0947
      7 C7        -20.6560    5.1520  -12.8700 C.ar      1 04L         0.0445
      8 N8        -21.1930    5.0080  -18.9020 N.ar      1 04L        -0.3127
      9 N9        -20.8320    4.9910  -15.3130 N.am      1 04L        -0.2327
     10 C10       -19.1950    5.4560  -17.0350 C.ar      1 04L        -0.0010
     11 C11       -23.0900    8.0760  -10.7740 C.2       1 04L         0.2175
     12 C12       -23.5970    9.0820  -10.0030 C.2       1 04L         0.0169
     13 N13       -22.2710    7.1580  -10.2330 N.am      1 04L        -0.2384
     14 C14       -20.4880    5.1190  -16.6220 C.ar      1 04L         0.0824
     15 C15       -24.8090    9.4170  -10.1300 C.2       1 04L        -0.0375
     16 C16       -21.2010    6.2430  -12.1940 C.ar      1 04L        -0.0271
     17 C17       -17.1650    6.1230  -21.5330 C.ar      1 04L         0.0341
     18 O18       -19.0180    5.9000  -14.3530 O.2       1 04L        -0.3767
     19 C19       -20.6050    3.9000  -12.2590 C.ar      1 04L        -0.0394
     20 C20       -21.7220    6.1040  -10.9070 C.ar      1 04L         0.0644
     21 O21       -23.3980    8.0280  -11.9610 O.2       1 04L        -0.3803
     22 C22       -21.4750    4.9000  -17.5900 C.ar      1 04L         0.0188
     23 C23       -21.1160    3.7520  -10.9680 C.ar      1 04L        -0.0672
     24 C24       -21.6730    4.8470  -10.2980 C.ar      1 04L        -0.0427
     25 C25       -25.4630   10.4980   -9.3440 C.ar      1 04L        -0.0148
     26 C26       -20.0160    2.7110  -12.9770 C.3       1 04L        -0.0343
     27 C27       -17.5000    5.7490  -22.8340 C.ar      1 04L        -0.0444
     28 C28       -15.9480    6.7710  -21.2940 C.ar      1 04L        -0.0444
     29 C29       -26.1140   11.5330  -10.0160 C.ar      1 04L        -0.0502
     30 C30       -25.4580   10.4820   -7.9460 C.ar      1 04L        -0.0502
     31 C31       -16.6310    6.0130  -23.8920 C.ar      1 04L        -0.0569
     32 C32       -15.0760    7.0360  -22.3510 C.ar      1 04L        -0.0569
     33 C33       -26.7430   12.5560   -9.3010 C.ar      1 04L        -0.0581
     34 C34       -26.0870   11.5010   -7.2280 C.ar      1 04L        -0.0581
     35 C35       -15.4190    6.6560  -23.6520 C.ar      1 04L        -0.0581
     36 C36       -26.7320   12.5380   -7.9070 C.ar      1 04L        -0.0589
     37 H1        -16.8897    6.0960  -18.6810 H         1 04L         0.2309
     38 H2        -21.7187    4.5692  -15.1237 H         1 04L         0.2257
     39 H3        -18.4121    5.6248  -16.3045 H         1 04L         0.0532
     40 H4        -22.9605    9.5932   -9.2823 H         1 04L         0.0673
     41 H5        -22.0463    7.2537   -9.2633 H         1 04L         0.2224
     42 H6        -25.4127    8.8807  -10.8607 H         1 04L         0.0745
     43 H7        -21.2202    7.2139  -12.6756 H         1 04L         0.0535
     44 H8        -22.4803    4.6398  -17.2790 H         1 04L         0.0666
     45 H9        -21.0810    2.7836  -10.4821 H         1 04L         0.0533
     46 H10       -22.0701    4.7191   -9.2975 H         1 04L         0.0525
     47 H11       -19.6682    3.0200  -13.9738 H         1 04L         0.0377
     48 H12       -20.7828    1.9294  -13.0823 H         1 04L         0.0377
     49 H13       -19.1675    2.3167  -12.3985 H         1 04L         0.0377
     50 H14       -18.4430    5.2493  -23.0242 H         1 04L         0.0662
     51 H15       -15.6820    7.0677  -20.2859 H         1 04L         0.0662
     52 H16       -26.1321   11.5438  -11.0998 H         1 04L         0.0650
     53 H17       -24.9637    9.6751   -7.4173 H         1 04L         0.0650
     54 H18       -16.8984    5.7181  -24.9003 H         1 04L         0.0628
     55 H19       -14.1329    7.5364  -22.1633 H         1 04L         0.0628
     56 H20       -27.2387   13.3622   -9.8295 H         1 04L         0.0625
     57 H21       -26.0750   11.4876   -6.1441 H         1 04L         0.0625
     58 H22       -14.7422    6.8617  -24.4734 H         1 04L         0.0648
     59 H23       -27.2234   13.3278   -7.3504 H         1 04L         0.0641
@<TRIPOS>BOND
     1    2    1 2  
     2    3    1 1  
     3    1   17 1  
     4    4    2 1  
     5    6    3 1  
     6    6    4 ar 
     7    8    4 ar 
     8    7    5 1  
     9    5    9 am 
    10    5   18 2  
    11   10    6 ar 
    12   16    7 ar 
    13    7   19 ar 
    14   22    8 ar 
    15    9   14 1  
    16   14   10 ar 
    17   11   12 1  
    18   13   11 am 
    19   11   21 2  
    20   12   15 2  
    21   20   13 1  
    22   14   22 ar 
    23   15   25 1  
    24   16   20 ar 
    25   17   27 ar 
    26   17   28 ar 
    27   19   23 ar 
    28   19   26 1  
    29   20   24 ar 
    30   23   24 ar 
    31   25   29 ar 
    32   25   30 ar 
    33   27   31 ar 
    34   28   32 ar 
    35   29   33 ar 
    36   30   34 ar 
    37   31   35 ar 
    38   32   35 ar 
    39   33   36 ar 
    40   34   36 ar 
    41    3   37 1  
    42    9   38 1  
    43   10   39 1  
    44   12   40 1  
    45   13   41 1  
    46   15   42 1  
    47   16   43 1  
    48   22   44 1  
    49   23   45 1  
    50   24   46 1  
    51   26   47 1  
    52   26   48 1  
    53   26   49 1  
    54   27   50 1  
    55   28   51 1  
    56   29   52 1  
    57   30   53 1  
    58   31   54 1  
    59   32   55 1  
    60   33   56 1  
    61   34   57 1  
    62   35   58 1  
    63   36   59 1  
@<TRIPOS>SUBSTRUCTURE
     1 04L         1

