### 
### Created by X-TOOL on Mon Sep 10 21:13:07 2018
### 

@<TRIPOS>MOLECULE
3pj8_ligand
   52    54     1     0     0
SMALL
GAST_HUCK


@<TRIPOS>ATOM
      1 C1         11.1770   10.3100  -11.5830 C.ar      1 404         0.1131
      2 C2         12.0910   10.3960  -12.7450 C.ar      1 404         0.0166
      3 C3         13.3190    9.5920  -12.6890 C.ar      1 404         0.1094
      4 N4         13.6010    8.7900  -11.6140 N.ar      1 404        -0.2527
      5 C5         12.6980    8.7580  -10.5770 C.ar      1 404         0.1749
      6 N6         11.5490    9.5020  -10.5730 N.ar      1 404        -0.2425
      7 N7         12.0930   11.0730  -13.9130 N.2       1 404        -0.3974
      8 N8         13.2450   10.7550  -14.6600 N.pl3     1 404        -0.2557
      9 C9         14.0070    9.8830  -13.9780 C.2       1 404         0.1602
     10 C10        15.3130    9.2500  -14.3210 C.3       1 404         0.0542
     11 C11        15.1580    7.7330  -14.4780 C.3       1 404        -0.0387
     12 C12        16.3970    9.5970  -13.2980 C.3       1 404        -0.0387
     13 N13        10.0270   11.0220  -11.5370 N.pl3     1 404        -0.2925
     14 C14         9.0420   10.7800  -10.4920 C.3       1 404         0.0626
     15 C15         9.0530   11.9090   -9.4830 C.ar      1 404        -0.0208
     16 C16         9.3700   11.6450   -8.1570 C.ar      1 404        -0.0584
     17 C17         9.3860   12.6750   -7.2270 C.ar      1 404        -0.0685
     18 C18         9.0850   13.9710   -7.6260 C.ar      1 404        -0.0687
     19 C19         8.7680   14.2410   -8.9500 C.ar      1 404        -0.0685
     20 C20         8.7570   13.2100   -9.8780 C.ar      1 404        -0.0584
     21 N21        12.8930    8.0020   -9.4650 N.pl3     1 404        -0.2870
     22 C22        13.7100    6.8020   -9.3950 C.3       1 404         0.0644
     23 C23        15.1040    7.1570   -8.8900 C.3       1 404        -0.0303
     24 C24        15.0160    8.1630   -7.7660 C.3       1 404        -0.0631
     25 C25        13.8180    6.0990  -10.7430 C.3       1 404         0.0674
     26 O26        15.0520    6.4970  -11.3520 O.3       1 404        -0.3927
     27 H1         13.4696   11.1347  -15.5908 H         1 404         0.2721
     28 H2         15.6337    9.6549  -15.2922 H         1 404         0.0658
     29 H3         16.1323    7.2891  -14.7304 H         1 404         0.0276
     30 H4         14.4384    7.5192  -15.2820 H         1 404         0.0276
     31 H5         14.7922    7.3022  -13.5343 H         1 404         0.0276
     32 H6         16.4818   10.6902  -13.2102 H         1 404         0.0276
     33 H7         17.3598    9.1799  -13.6282 H         1 404         0.0276
     34 H8         16.1286    9.1704  -12.3203 H         1 404         0.0276
     35 H9          9.8463   11.7435  -12.2495 H         1 404         0.1870
     36 H10         9.2804    9.8354   -9.9812 H         1 404         0.0687
     37 H11         8.0424   10.7094  -10.9457 H         1 404         0.0687
     38 H12         9.6053   10.6330   -7.8479 H         1 404         0.0557
     39 H13         9.6328   12.4686   -6.1918 H         1 404         0.0599
     40 H14         9.0977   14.7756   -6.8997 H         1 404         0.0559
     41 H15         8.5301   15.2529   -9.2575 H         1 404         0.0599
     42 H16         8.5170   13.4185  -10.9143 H         1 404         0.0557
     43 H17        12.4228    8.3044   -8.5999 H         1 404         0.1864
     44 H18        13.2417    6.1082   -8.6814 H         1 404         0.0583
     45 H19        15.6903    7.5864   -9.7157 H         1 404         0.0286
     46 H20        15.5997    6.2461   -8.5232 H         1 404         0.0286
     47 H21        16.0287    8.4083   -7.4133 H         1 404         0.0231
     48 H22        14.4324    7.7364   -6.9369 H         1 404         0.0231
     49 H23        14.5230    9.0767   -8.1294 H         1 404         0.0231
     50 H24        12.9738    6.3908  -11.3849 H         1 404         0.0580
     51 H25        13.8082    5.0087  -10.5973 H         1 404         0.0580
     52 H26        15.0553    7.4394  -11.4716 H         1 404         0.2095
@<TRIPOS>BOND
     1    1    2 ar 
     2    1    6 ar 
     3    1   13 1  
     4    2    3 ar 
     5    2    7 2  
     6    3    4 ar 
     7    3    9 2  
     8    4    5 ar 
     9    5    6 ar 
    10    5   21 1  
    11    7    8 1  
    12    8    9 1  
    13    9   10 1  
    14   10   11 1  
    15   10   12 1  
    16   13   14 1  
    17   14   15 1  
    18   15   16 ar 
    19   15   20 ar 
    20   16   17 ar 
    21   17   18 ar 
    22   18   19 ar 
    23   19   20 ar 
    24   21   22 1  
    25   22   23 1  
    26   22   25 1  
    27   23   24 1  
    28   25   26 1  
    29    8   27 1  
    30   10   28 1  
    31   11   29 1  
    32   11   30 1  
    33   11   31 1  
    34   12   32 1  
    35   12   33 1  
    36   12   34 1  
    37   13   35 1  
    38   14   36 1  
    39   14   37 1  
    40   16   38 1  
    41   17   39 1  
    42   18   40 1  
    43   19   41 1  
    44   20   42 1  
    45   21   43 1  
    46   22   44 1  
    47   23   45 1  
    48   23   46 1  
    49   24   47 1  
    50   24   48 1  
    51   24   49 1  
    52   25   50 1  
    53   25   51 1  
    54   26   52 1  
@<TRIPOS>SUBSTRUCTURE
     1 404         1

