### 
### Created by X-TOOL on Mon Sep 10 21:13:02 2018
### 

@<TRIPOS>MOLECULE
3pjc_ligand
   49    53     1     0     0
SMALL
GAST_HUCK


@<TRIPOS>ATOM
      1 C5          6.9060   -4.9890    8.4100 C.ar      1 PJC         0.0625
      2 C6          7.8390   -4.3930    9.2970 C.ar      1 PJC         0.0708
      3 C8          6.3930   -4.9250   11.1290 C.ar      1 PJC         0.2125
      4 C10         5.7720   -5.6080    8.9690 C.ar      1 PJC         0.0365
      5 N12         6.2410   -4.9710   12.4880 N.pl3     1 PJC        -0.2581
      6 C13         7.1870   -4.2920   13.3850 C.3       1 PJC         0.0553
      7 C20         6.1520   -7.1230   13.5760 C.3       1 PJC         0.0431
      8 C28        10.3840   -3.9280    9.3560 C.2       1 PJC         0.0952
      9 F1          6.3820   -4.2730    6.1850 F         1 PJC        -0.2506
     10 C2          7.0970   -5.1730    6.9060 C.3       1 PJC         0.3504
     11 F3          8.4040   -5.1100    6.5590 F         1 PJC        -0.2506
     12 F4          6.7030   -6.4360    6.6030 F         1 PJC        -0.2506
     13 N7          7.5200   -4.3750   10.6040 N.ar      1 PJC        -0.2379
     14 N9          5.5640   -5.6010   10.2960 N.ar      1 PJC        -0.2257
     15 C16         8.1780   -5.4090   13.8430 C.3       1 PJC         0.0431
     16 C19         7.4190   -6.6550   14.2810 C.2       1 PJC         0.1091
     17 C23         5.2930   -5.8960   13.1330 C.3       1 PJC         0.0553
     18 O26         7.8330   -7.2830   15.2290 O.2       1 PJC        -0.3915
     19 C27         9.1260   -3.6660    8.9310 C.2       1 PJC         0.1043
     20 C29        11.2240   -2.8940    8.7150 C.2       1 PJC         0.2594
     21 N30        10.4940   -2.1540    7.8620 N.am      1 PJC        -0.1963
     22 C32         9.2240   -2.5860    7.9510 C.2       1 PJC         0.2336
     23 O33         8.2700   -2.1470    7.3370 O.2       1 PJC        -0.3747
     24 O34        12.4200   -2.7620    8.9020 O.2       1 PJC        -0.3497
     25 C35        10.8720   -4.8370   10.4280 C.2       1 PJC         0.0431
     26 C36        11.9670   -4.6160   11.1910 C.2       1 PJC         0.0748
     27 N38        12.1360   -5.5780   12.0590 N.pl3     1 PJC        -0.2524
     28 C40        11.2000   -6.5310   11.9160 C.ar      1 PJC         0.0798
     29 C41        10.3360   -6.1800   10.8690 C.ar      1 PJC         0.0032
     30 C42         9.2930   -7.0330   10.4880 C.ar      1 PJC        -0.0680
     31 C44         9.1190   -8.2100   11.2460 C.ar      1 PJC        -0.0747
     32 C46         9.9780   -8.5420   12.3290 C.ar      1 PJC        -0.0722
     33 C48        11.0580   -7.7080   12.6720 C.ar      1 PJC        -0.0372
     34 H           5.0520   -6.1003    8.3153 H         1 PJC         0.1112
     35 H           6.6806   -3.8279   14.2314 H         1 PJC         0.0568
     36 H           7.7033   -3.4730   12.8842 H         1 PJC         0.0568
     37 H           5.5686   -7.7363   14.2628 H         1 PJC         0.0516
     38 H           6.4284   -7.7008   12.6940 H         1 PJC         0.0516
     39 H           8.7626   -5.0381   14.6849 H         1 PJC         0.0516
     40 H           8.8281   -5.6678   13.0073 H         1 PJC         0.0516
     41 H           4.4936   -6.1902   12.4529 H         1 PJC         0.0568
     42 H           4.7915   -5.4299   13.9812 H         1 PJC         0.0568
     43 H          10.8389   -1.4058    7.2606 H         1 PJC         0.2213
     44 H          12.6218   -3.7499   11.0945 H         1 PJC         0.1291
     45 H          12.8816   -5.6022   12.7546 H         1 PJC         0.2420
     46 H           8.6447   -6.7982    9.6438 H         1 PJC         0.0564
     47 H           8.3013   -8.8852   10.9937 H         1 PJC         0.0533
     48 H           9.7979   -9.4528   12.9000 H         1 PJC         0.0554
     49 H          11.7462   -7.9602   13.4788 H         1 PJC         0.0565
@<TRIPOS>BOND
     1    2    1 ar 
     2    4    1 ar 
     3    1   10 1  
     4   13    2 ar 
     5    2   19 1  
     6    5    3 1  
     7    3   13 ar 
     8    3   14 ar 
     9   14    4 ar 
    10    5    6 1  
    11   17    5 1  
    12    6   15 1  
    13    7   16 1  
    14    7   17 1  
    15   19    8 2  
    16    8   20 1  
    17    8   25 1  
    18   10    9 1  
    19   10   11 1  
    20   10   12 1  
    21   15   16 1  
    22   16   18 2  
    23   19   22 1  
    24   20   21 am 
    25   20   24 2  
    26   21   22 am 
    27   22   23 2  
    28   25   26 2  
    29   25   29 1  
    30   26   27 1  
    31   27   28 1  
    32   28   29 ar 
    33   28   33 ar 
    34   29   30 ar 
    35   30   31 ar 
    36   31   32 ar 
    37   32   33 ar 
    38    4   34 1  
    39    6   35 1  
    40    6   36 1  
    41    7   37 1  
    42    7   38 1  
    43   15   39 1  
    44   15   40 1  
    45   17   41 1  
    46   17   42 1  
    47   21   43 1  
    48   26   44 1  
    49   27   45 1  
    50   30   46 1  
    51   31   47 1  
    52   32   48 1  
    53   33   49 1  
@<TRIPOS>SUBSTRUCTURE
     1 PJC         1

