### 
### Created by X-TOOL on Mon Sep 10 21:13:05 2018
### 

@<TRIPOS>MOLECULE
3pka_ligand
   67    67     1     0     0
SMALL
GAST_HUCK


@<TRIPOS>ATOM
      1 N         -39.0750  -18.3020    3.0920 N.am      1 Y02        -0.2822
      2 O1        -43.5630  -12.7910    2.4480 O.3       1 Y02        -0.3559
      3 O2        -41.8820  -16.4960    1.8670 O.3       1 Y02        -0.3837
      4 O3        -41.4110  -13.9150    1.4100 O.3       1 Y02        -0.3810
      5 O4        -40.0680  -17.4710    4.9850 O.2       1 Y02        -0.3941
      6 O5        -39.3350  -14.9680    3.9930 O.3       1 Y02        -0.3568
      7 O6        -39.8790  -21.7280    3.9970 O.3       1 Y02        -0.3283
      8 C01       -44.6040  -15.2820    6.4780 C.3       1 Y02        -0.0754
      9 C02       -44.3210  -15.0860    4.9900 C.2       1 Y02        -0.0830
     10 C03       -43.6080  -14.1090    4.4770 C.2       1 Y02         0.0149
     11 C04       -43.2240  -14.0920    3.0360 C.3       1 Y02         0.1593
     12 C05       -41.7400  -14.2610    2.7640 C.3       1 Y02         0.1379
     13 C06       -41.3860  -15.7230    3.0080 C.3       1 Y02         0.1313
     14 C07       -39.8790  -16.0130    3.1530 C.3       1 Y02         0.1751
     15 C08       -46.1230  -15.3620    6.6690 C.3       1 Y02        -0.1011
     16 C09       -43.9700  -16.6250    6.8650 C.3       1 Y02        -0.1011
     17 C10       -44.0910  -14.1760    7.3870 C.3       1 Y02        -0.1011
     18 C11       -39.6900  -17.3190    3.7900 C.2       1 Y02         0.2079
     19 C19       -38.8800  -19.6570    3.6050 C.3       1 Y02         0.0580
     20 C20       -40.0860  -20.5370    3.2650 C.3       1 Y02         0.0856
     21 C21       -37.9320  -14.8470    3.9070 C.3       1 Y02         0.0399
     22 C22       -40.7820  -22.7880    3.6420 C.ar      1 Y02         0.0864
     23 C23       -42.0280  -22.8220    4.1890 C.ar      1 Y02        -0.0296
     24 C24       -42.8470  -23.8510    3.8600 C.ar      1 Y02        -0.0744
     25 C25       -42.4720  -24.8330    3.0000 C.ar      1 Y02        -0.0699
     26 C26       -41.2250  -24.7930    2.4350 C.ar      1 Y02        -0.0744
     27 C27       -40.3310  -23.7530    2.7430 C.ar      1 Y02        -0.0296
     28 C28       -42.4610  -21.7450    5.1730 C.3       1 Y02        -0.0362
     29 C29       -43.3880  -25.9940    2.6550 C.3       1 Y02        -0.0393
     30 C30       -38.9080  -23.6480    2.1840 C.3       1 Y02        -0.0362
     31 H1        -38.7355  -18.0899    2.1756 H         1 Y02         0.1852
     32 H2        -44.4981  -12.6432    2.5267 H         1 Y02         0.2179
     33 H3        -41.4690  -16.1835    1.0707 H         1 Y02         0.2102
     34 H4        -40.4782  -14.0311    1.2724 H         1 Y02         0.2106
     35 H5        -44.7439  -15.8140    4.2993 H         1 Y02         0.0465
     36 H6        -43.2892  -13.2904    5.1206 H         1 Y02         0.1558
     37 H7        -43.7766  -14.8946    2.5257 H         1 Y02         0.1059
     38 H8        -41.1675  -13.6186    3.4492 H         1 Y02         0.0707
     39 H9        -41.8909  -16.0520    3.9283 H         1 Y02         0.0676
     40 H10       -39.3897  -16.0054    2.1679 H         1 Y02         0.0867
     41 H11       -46.3515  -15.5034    7.7357 H         1 Y02         0.0084
     42 H12       -46.5208  -16.2106    6.0932 H         1 Y02         0.0084
     43 H13       -46.5867  -14.4293    6.3153 H         1 Y02         0.0084
     44 H14       -42.8800  -16.5688    6.7283 H         1 Y02         0.0084
     45 H15       -44.3790  -17.4213    6.2258 H         1 Y02         0.0084
     46 H16       -44.1965  -16.8475    7.9182 H         1 Y02         0.0084
     47 H17       -44.5532  -13.2204    7.0985 H         1 Y02         0.0084
     48 H18       -42.9980  -14.0988    7.2897 H         1 Y02         0.0084
     49 H19       -44.3508  -14.4087    8.4302 H         1 Y02         0.0084
     50 H20       -38.7578  -19.6166    4.6974 H         1 Y02         0.0546
     51 H21       -37.9765  -20.0897    3.1507 H         1 Y02         0.0546
     52 H22       -41.0218  -20.0490    3.5748 H         1 Y02         0.0625
     53 H23       -40.1214  -20.7462    2.1857 H         1 Y02         0.0625
     54 H24       -37.5926  -14.0370    4.5693 H         1 Y02         0.0526
     55 H25       -37.6467  -14.6164    2.8700 H         1 Y02         0.0526
     56 H26       -37.4628  -15.7931    4.2147 H         1 Y02         0.0526
     57 H27       -43.8372  -23.8915    4.2993 H         1 Y02         0.0412
     58 H28       -40.9244  -25.5715    1.7431 H         1 Y02         0.0412
     59 H29       -41.6499  -21.0119    5.2945 H         1 Y02         0.0365
     60 H30       -42.6870  -22.2064    6.1456 H         1 Y02         0.0365
     61 H31       -43.3590  -21.2381    4.7901 H         1 Y02         0.0365
     62 H32       -44.3438  -25.8775    3.1869 H         1 Y02         0.0368
     63 H33       -42.9127  -26.9386    2.9578 H         1 Y02         0.0368
     64 H34       -43.5712  -26.0068    1.5704 H         1 Y02         0.0368
     65 H35       -38.4237  -22.7438    2.5815 H         1 Y02         0.0365
     66 H36       -38.9486  -23.5897    1.0863 H         1 Y02         0.0365
     67 H37       -38.3302  -24.5350    2.4830 H         1 Y02         0.0365
@<TRIPOS>BOND
     1    1   18 am 
     2   19    1 1  
     3   11    2 1  
     4   13    3 1  
     5   12    4 1  
     6   18    5 2  
     7   14    6 1  
     8    6   21 1  
     9   20    7 1  
    10    7   22 1  
    11    9    8 1  
    12    8   15 1  
    13    8   16 1  
    14    8   17 1  
    15   10    9 2  
    16   11   10 1  
    17   12   11 1  
    18   13   12 1  
    19   14   13 1  
    20   18   14 1  
    21   19   20 1  
    22   22   23 ar 
    23   22   27 ar 
    24   23   24 ar 
    25   23   28 1  
    26   24   25 ar 
    27   25   26 ar 
    28   25   29 1  
    29   26   27 ar 
    30   27   30 1  
    31    1   31 1  
    32    2   32 1  
    33    3   33 1  
    34    4   34 1  
    35    9   35 1  
    36   10   36 1  
    37   11   37 1  
    38   12   38 1  
    39   13   39 1  
    40   14   40 1  
    41   15   41 1  
    42   15   42 1  
    43   15   43 1  
    44   16   44 1  
    45   16   45 1  
    46   16   46 1  
    47   17   47 1  
    48   17   48 1  
    49   17   49 1  
    50   19   50 1  
    51   19   51 1  
    52   20   52 1  
    53   20   53 1  
    54   21   54 1  
    55   21   55 1  
    56   21   56 1  
    57   24   57 1  
    58   26   58 1  
    59   28   59 1  
    60   28   60 1  
    61   28   61 1  
    62   29   62 1  
    63   29   63 1  
    64   29   64 1  
    65   30   65 1  
    66   30   66 1  
    67   30   67 1  
@<TRIPOS>SUBSTRUCTURE
     1 Y02         1

