### 
### Created by X-TOOL on Mon Sep 10 21:13:05 2018
### 

@<TRIPOS>MOLECULE
3pkb_ligand
   48    47     1     0     0
SMALL
GAST_HUCK


@<TRIPOS>ATOM
      1 N1         -3.7590  -43.1910    2.8600 N.am      1 Y16        -0.2661
      2 O1        -10.7900  -43.9830    2.5320 O.3       1 Y16        -0.3559
      3 N2         -0.9380  -43.6850    5.1000 N.am      1 Y16        -0.2992
      4 O2         -6.8030  -44.4650    1.8180 O.3       1 Y16        -0.3837
      5 O3         -8.7410  -42.7190    1.4440 O.3       1 Y16        -0.3810
      6 O4         -4.8490  -43.6130    4.8310 O.2       1 Y16        -0.3940
      7 O5         -2.0020  -41.8150    4.4420 O.2       1 Y16        -0.3951
      8 O6         -6.5870  -41.5750    4.0780 O.3       1 Y16        -0.3568
      9 C01        -9.1620  -46.1980    6.5320 C.3       1 Y16        -0.0754
     10 C02        -9.2480  -45.7950    5.0640 C.2       1 Y16        -0.0830
     11 C03        -9.6470  -44.6570    4.5690 C.2       1 Y16         0.0149
     12 C04        -9.5110  -44.3110    3.1020 C.3       1 Y16         0.1593
     13 C05        -8.5670  -43.2040    2.7960 C.3       1 Y16         0.1379
     14 C06        -7.1630  -43.6610    2.9970 C.3       1 Y16         0.1313
     15 C07        -6.0890  -42.5740    3.1320 C.3       1 Y16         0.1752
     16 C08        -7.7050  -46.4100    6.8840 C.3       1 Y16        -0.1011
     17 C09        -9.7970  -45.1680    7.4940 C.3       1 Y16        -0.1011
     18 C10        -9.9060  -47.4800    6.7620 C.3       1 Y16        -0.1011
     19 C11        -4.8500  -43.2060    3.6490 C.2       1 Y16         0.2099
     20 C12        -2.5050  -43.8050    3.2500 C.3       1 Y16         0.1198
     21 C13        -1.8150  -42.9930    4.3050 C.2       1 Y16         0.1960
     22 C14        -5.8480  -40.3800    4.0530 C.3       1 Y16         0.0399
     23 H1         -3.8160  -42.7385    1.9700 H         1 Y16         0.1881
     24 H2        -11.3741  -44.7273    2.6181 H         1 Y16         0.2179
     25 H3         -0.8043  -44.6662    4.9608 H         1 Y16         0.1815
     26 H4         -0.4321  -43.2085    5.8191 H         1 Y16         0.1815
     27 H5         -6.8747  -43.9292    1.0368 H         1 Y16         0.2102
     28 H6         -8.1253  -42.0144    1.2798 H         1 Y16         0.2106
     29 H7         -8.9387  -46.5490    4.3417 H         1 Y16         0.0465
     30 H8        -10.0966  -43.9253    5.2386 H         1 Y16         0.1558
     31 H9         -9.1320  -45.2120    2.5974 H         1 Y16         0.1059
     32 H10        -8.7693  -42.3748    3.4899 H         1 Y16         0.0707
     33 H11        -7.1341  -44.2836    3.9034 H         1 Y16         0.0676
     34 H12        -5.8914  -42.1046    2.1570 H         1 Y16         0.0868
     35 H13        -7.6220  -46.7019    7.9413 H         1 Y16         0.0084
     36 H14        -7.1477  -45.4765    6.7166 H         1 Y16         0.0084
     37 H15        -7.2866  -47.2056    6.2500 H         1 Y16         0.0084
     38 H16       -10.8546  -45.0222    7.2289 H         1 Y16         0.0084
     39 H17        -9.2626  -44.2102    7.4104 H         1 Y16         0.0084
     40 H18        -9.7258  -45.5387    8.5272 H         1 Y16         0.0084
     41 H19        -9.5009  -48.2622    6.1032 H         1 Y16         0.0084
     42 H20       -10.9728  -47.3298    6.5399 H         1 Y16         0.0084
     43 H21        -9.7898  -47.7882    7.8115 H         1 Y16         0.0084
     44 H22        -1.8513  -43.8795    2.3685 H         1 Y16         0.0763
     45 H23        -2.7048  -44.8122    3.6445 H         1 Y16         0.0763
     46 H24        -6.2696  -39.6729    4.7825 H         1 Y16         0.0526
     47 H25        -5.8961  -39.9401    3.0460 H         1 Y16         0.0526
     48 H26        -4.7998  -40.5916    4.3110 H         1 Y16         0.0526
@<TRIPOS>BOND
     1    1   19 am 
     2   20    1 1  
     3   12    2 1  
     4   21    3 am 
     5   14    4 1  
     6   13    5 1  
     7   19    6 2  
     8   21    7 2  
     9   15    8 1  
    10    8   22 1  
    11   10    9 1  
    12    9   16 1  
    13    9   17 1  
    14    9   18 1  
    15   11   10 2  
    16   12   11 1  
    17   13   12 1  
    18   14   13 1  
    19   15   14 1  
    20   19   15 1  
    21   20   21 1  
    22    1   23 1  
    23    2   24 1  
    24    3   25 1  
    25    3   26 1  
    26    4   27 1  
    27    5   28 1  
    28   10   29 1  
    29   11   30 1  
    30   12   31 1  
    31   13   32 1  
    32   14   33 1  
    33   15   34 1  
    34   16   35 1  
    35   16   36 1  
    36   16   37 1  
    37   17   38 1  
    38   17   39 1  
    39   17   40 1  
    40   18   41 1  
    41   18   42 1  
    42   18   43 1  
    43   20   44 1  
    44   20   45 1  
    45   22   46 1  
    46   22   47 1  
    47   22   48 1  
@<TRIPOS>SUBSTRUCTURE
     1 Y16         1

