### 
### Created by X-TOOL on Mon Sep 10 21:13:06 2018
### 

@<TRIPOS>MOLECULE
3pkc_ligand
   68    69     1     0     0
SMALL
GAST_HUCK


@<TRIPOS>ATOM
      1 N1        -25.0830   -3.8440  -11.3840 N.am      1 Y08        -0.2844
      2 O1        -25.7780    1.8460  -15.3460 O.3       1 Y08        -0.3559
      3 N2        -28.3820   -4.7900   -7.8240 N.am      1 Y08        -0.2727
      4 O2        -26.5520   -1.7170  -13.5510 O.3       1 Y08        -0.3837
      5 O3        -25.1310   -0.7100  -15.4290 O.3       1 Y08        -0.3810
      6 O4        -23.9180   -2.1920  -10.4760 O.2       1 Y08        -0.3941
      7 O5        -29.4440   -6.6510   -8.4060 O.2       1 Y08        -0.3966
      8 O6        -22.9960   -1.3710  -12.9720 O.3       1 Y08        -0.3568
      9 C01       -26.0730    2.9020  -10.6020 C.3       1 Y08        -0.0754
     10 C02       -26.3270    2.1160  -11.8640 C.2       1 Y08        -0.0830
     11 C03       -25.5180    2.0730  -12.9230 C.2       1 Y08         0.0149
     12 C04       -25.9440    1.1720  -14.0330 C.3       1 Y08         0.1593
     13 C05       -25.0070   -0.0460  -14.1040 C.3       1 Y08         0.1379
     14 C06       -25.3130   -1.0540  -13.0110 C.3       1 Y08         0.1313
     15 C07       -24.2340   -2.1010  -12.8330 C.3       1 Y08         0.1751
     16 C08       -26.1070    1.9040   -9.4510 C.3       1 Y08        -0.1011
     17 C09       -24.7530    3.6400  -10.6570 C.3       1 Y08        -0.1011
     18 C10       -27.1700    3.9890  -10.4350 C.3       1 Y08        -0.1011
     19 C11       -24.3860   -2.7260  -11.4770 C.2       1 Y08         0.2079
     20 C12       -25.3740   -4.5240  -10.0790 C.3       1 Y08         0.0356
     21 C13       -26.7650   -4.1970   -9.5720 C.3       1 Y08        -0.0004
     22 C14       -26.6100   -2.7520   -9.0200 C.3       1 Y08        -0.0447
     23 C15       -27.8380   -2.3620   -8.1560 C.3       1 Y08        -0.0321
     24 C16       -28.2710   -3.4800   -7.1400 C.3       1 Y08         0.0339
     25 C17       -27.1060   -5.2210   -8.4360 C.3       1 Y08         0.0385
     26 C18       -29.5220   -5.5490   -7.8380 C.2       1 Y08         0.1815
     27 C19       -30.7420   -5.1500   -6.9530 C.3       1 Y08         0.0491
     28 C20       -32.1430   -5.7080   -7.4480 C.3       1 Y08        -0.0309
     29 C21       -31.9070   -4.2190   -7.1850 C.3       1 Y08        -0.0309
     30 C22       -21.8450   -2.2930  -13.0610 C.3       1 Y08         0.0399
     31 H1        -25.4338   -4.2572  -12.2244 H         1 Y08         0.1851
     32 H2        -26.3098    2.6330  -15.3662 H         1 Y08         0.2179
     33 H3        -26.3550   -2.1193  -14.3888 H         1 Y08         0.2102
     34 H4        -24.5487   -1.4599  -15.4619 H         1 Y08         0.2106
     35 H5        -27.2471    1.5357  -11.9144 H         1 Y08         0.0465
     36 H6        -24.6021    2.6598  -12.9745 H         1 Y08         0.1558
     37 H7        -26.9877    0.8597  -13.8812 H         1 Y08         0.1059
     38 H8        -23.9722    0.3047  -13.9771 H         1 Y08         0.0707
     39 H9        -25.5000   -0.5504  -12.0511 H         1 Y08         0.0676
     40 H10       -24.3067   -2.8801  -13.6061 H         1 Y08         0.0867
     41 H11       -25.9259    2.4315   -8.5029 H         1 Y08         0.0084
     42 H12       -25.3270    1.1433   -9.6021 H         1 Y08         0.0084
     43 H13       -27.0926    1.4168   -9.4171 H         1 Y08         0.0084
     44 H14       -24.7645    4.3497  -11.4974 H         1 Y08         0.0084
     45 H15       -23.9349    2.9182  -10.7978 H         1 Y08         0.0084
     46 H16       -24.6001    4.1886   -9.7159 H         1 Y08         0.0084
     47 H17       -28.1584    3.5084  -10.3887 H         1 Y08         0.0084
     48 H18       -27.1371    4.6779  -11.2919 H         1 Y08         0.0084
     49 H19       -26.9915    4.5505   -9.5061 H         1 Y08         0.0084
     50 H20       -24.6363   -4.1936   -9.3330 H         1 Y08         0.0523
     51 H21       -25.2925   -5.6121  -10.2184 H         1 Y08         0.0523
     52 H22       -27.5205   -4.2418  -10.3702 H         1 Y08         0.0340
     53 H23       -26.5238   -2.0505   -9.8629 H         1 Y08         0.0270
     54 H24       -25.7014   -2.6966   -8.4024 H         1 Y08         0.0270
     55 H25       -28.6844   -2.1552   -8.8274 H         1 Y08         0.0285
     56 H26       -27.5897   -1.4531   -7.5883 H         1 Y08         0.0285
     57 H27       -27.5197   -3.5522   -6.3398 H         1 Y08         0.0522
     58 H28       -29.2460   -3.2153   -6.7048 H         1 Y08         0.0522
     59 H29       -27.2135   -6.2306   -8.8592 H         1 Y08         0.0526
     60 H30       -26.3075   -5.2236   -7.6794 H         1 Y08         0.0526
     61 H31       -30.4275   -5.2617   -5.9049 H         1 Y08         0.0538
     62 H32       -32.7770   -6.2984   -6.7702 H         1 Y08         0.0294
     63 H33       -32.2615   -6.0787   -8.4768 H         1 Y08         0.0294
     64 H34       -31.8793   -3.5172   -8.0316 H         1 Y08         0.0294
     65 H35       -32.3948   -3.7370   -6.3249 H         1 Y08         0.0294
     66 H36       -20.9170   -1.7118  -13.1660 H         1 Y08         0.0526
     67 H37       -21.9676   -2.9492  -13.9352 H         1 Y08         0.0526
     68 H38       -21.7934   -2.9043  -12.1480 H         1 Y08         0.0526
@<TRIPOS>BOND
     1    1   19 am 
     2   20    1 1  
     3   12    2 1  
     4    3   24 1  
     5   25    3 1  
     6    3   26 am 
     7   14    4 1  
     8   13    5 1  
     9   19    6 2  
    10   26    7 2  
    11   15    8 1  
    12    8   30 1  
    13   10    9 1  
    14    9   16 1  
    15    9   17 1  
    16    9   18 1  
    17   11   10 2  
    18   12   11 1  
    19   13   12 1  
    20   14   13 1  
    21   15   14 1  
    22   19   15 1  
    23   21   20 1  
    24   21   22 1  
    25   21   25 1  
    26   22   23 1  
    27   23   24 1  
    28   26   27 1  
    29   27   28 1  
    30   27   29 1  
    31   28   29 1  
    32    1   31 1  
    33    2   32 1  
    34    4   33 1  
    35    5   34 1  
    36   10   35 1  
    37   11   36 1  
    38   12   37 1  
    39   13   38 1  
    40   14   39 1  
    41   15   40 1  
    42   16   41 1  
    43   16   42 1  
    44   16   43 1  
    45   17   44 1  
    46   17   45 1  
    47   17   46 1  
    48   18   47 1  
    49   18   48 1  
    50   18   49 1  
    51   20   50 1  
    52   20   51 1  
    53   21   52 1  
    54   22   53 1  
    55   22   54 1  
    56   23   55 1  
    57   23   56 1  
    58   24   57 1  
    59   24   58 1  
    60   25   59 1  
    61   25   60 1  
    62   27   61 1  
    63   28   62 1  
    64   28   63 1  
    65   29   64 1  
    66   29   65 1  
    67   30   66 1  
    68   30   67 1  
    69   30   68 1  
@<TRIPOS>SUBSTRUCTURE
     1 Y08         1

