### 
### Created by X-TOOL on Mon Sep 10 21:13:05 2018
### 

@<TRIPOS>MOLECULE
3pkd_ligand
   58    59     1     0     0
SMALL
GAST_HUCK


@<TRIPOS>ATOM
      1 N          25.0240   -3.7110   11.1940 N.am      1 Y10        -0.2781
      2 O1         25.5920    1.9260   15.2210 O.3       1 Y10        -0.3559
      3 O2         26.3730   -1.6360   13.3520 O.3       1 Y10        -0.3837
      4 O3         24.9880   -0.6680   15.3290 O.3       1 Y10        -0.3810
      5 O4         23.9870   -1.8900   10.2950 O.2       1 Y10        -0.3941
      6 O5         22.8750   -1.2990   12.6910 O.3       1 Y10        -0.3568
      7 C01        25.8490    3.0370   10.4920 C.3       1 Y10        -0.0754
      8 C02        26.1540    2.2770   11.7630 C.2       1 Y10        -0.0830
      9 C03        25.2870    2.1310   12.7760 C.2       1 Y10         0.0149
     10 C04        25.7650    1.2360   13.9130 C.3       1 Y10         0.1593
     11 C05        24.8190    0.0280   14.0460 C.3       1 Y10         0.1379
     12 C06        25.1640   -0.9640   12.9270 C.3       1 Y10         0.1313
     13 C07        24.0740   -2.0460   12.6550 C.3       1 Y10         0.1751
     14 C08        24.4960    3.7400   10.5120 C.3       1 Y10        -0.1011
     15 C09        25.8560    2.0120    9.3610 C.3       1 Y10        -0.1011
     16 C10        26.9550    4.0740   10.2270 C.3       1 Y10        -0.1011
     17 C11        24.3420   -2.5670   11.2900 C.2       1 Y10         0.2084
     18 C12        25.4710   -4.2520    9.9480 C.3       1 Y10         0.0590
     19 C13        26.1630   -5.6050   10.2410 C.3       1 Y10         0.0032
     20 C14        27.2130   -5.7040    9.2000 C.ar      1 Y10        -0.0386
     21 C15        27.4420   -4.4880    8.6190 C.ar      1 Y10        -0.0386
     22 C16        26.5020   -3.4370    9.1840 C.3       1 Y10         0.0032
     23 C17        27.9430   -6.8940    8.8750 C.ar      1 Y10        -0.0668
     24 C18        28.9530   -6.7410    7.8840 C.ar      1 Y10        -0.0755
     25 C19        29.1240   -5.4810    7.2720 C.ar      1 Y10        -0.0755
     26 C20        28.3910   -4.3080    7.5930 C.ar      1 Y10        -0.0668
     27 C21        21.7350   -2.1770   12.7850 C.3       1 Y10         0.0399
     28 H1         25.2320   -4.2133   12.0333 H         1 Y10         0.1858
     29 H2         26.0992    2.7293   15.2235 H         1 Y10         0.2179
     30 H3         26.2121   -2.0855   14.1733 H         1 Y10         0.2102
     31 H4         24.3884   -1.4037   15.3703 H         1 Y10         0.2106
     32 H5         27.1376    1.8203   11.8621 H         1 Y10         0.0465
     33 H6         24.3124    2.6167   12.7852 H         1 Y10         0.1558
     34 H7         26.8078    0.9274   13.7476 H         1 Y10         0.1059
     35 H8         23.7771    0.3668   13.9478 H         1 Y10         0.0707
     36 H9         25.3435   -0.4061   11.9962 H         1 Y10         0.0676
     37 H10        24.0764   -2.8559   13.3994 H         1 Y10         0.0867
     38 H11        24.3437    4.2692    9.5598 H         1 Y10         0.0084
     39 H12        24.4703    4.4624   11.3411 H         1 Y10         0.0084
     40 H13        23.6979    2.9955   10.6494 H         1 Y10         0.0084
     41 H14        26.8285    1.4985    9.3376 H         1 Y10         0.0084
     42 H15        25.6882    2.5233    8.4017 H         1 Y10         0.0084
     43 H16        25.0564    1.2754    9.5287 H         1 Y10         0.0084
     44 H17        26.9603    4.8192   11.0361 H         1 Y10         0.0084
     45 H18        26.7643    4.5763    9.2672 H         1 Y10         0.0084
     46 H19        27.9308    3.5677   10.1885 H         1 Y10         0.0084
     47 H20        24.5920   -4.4008    9.3037 H         1 Y10         0.0598
     48 H21        25.4480   -6.4365   10.1553 H         1 Y10         0.0435
     49 H22        26.6084   -5.6066   11.2468 H         1 Y10         0.0435
     50 H23        27.0382   -2.7519    9.8572 H         1 Y10         0.0435
     51 H24        26.0269   -2.8605    8.3766 H         1 Y10         0.0435
     52 H25        27.7396   -7.8460    9.3518 H         1 Y10         0.0537
     53 H26        29.5809   -7.5790    7.6038 H         1 Y10         0.0541
     54 H27        29.8752   -5.4023    6.4945 H         1 Y10         0.0541
     55 H28        28.5475   -3.3588    7.0934 H         1 Y10         0.0537
     56 H29        20.8125   -1.5785   12.8118 H         1 Y10         0.0526
     57 H30        21.8093   -2.7774   13.7037 H         1 Y10         0.0526
     58 H31        21.7135   -2.8448   11.9112 H         1 Y10         0.0526
@<TRIPOS>BOND
     1   17    1 am 
     2    1   18 1  
     3   10    2 1  
     4   12    3 1  
     5   11    4 1  
     6   17    5 2  
     7   13    6 1  
     8    6   27 1  
     9    8    7 1  
    10    7   14 1  
    11    7   15 1  
    12    7   16 1  
    13    9    8 2  
    14   10    9 1  
    15   11   10 1  
    16   12   11 1  
    17   13   12 1  
    18   13   17 1  
    19   18   19 1  
    20   18   22 1  
    21   19   20 1  
    22   20   21 ar 
    23   20   23 ar 
    24   21   22 1  
    25   21   26 ar 
    26   23   24 ar 
    27   24   25 ar 
    28   25   26 ar 
    29    1   28 1  
    30    2   29 1  
    31    3   30 1  
    32    4   31 1  
    33    8   32 1  
    34    9   33 1  
    35   10   34 1  
    36   11   35 1  
    37   12   36 1  
    38   13   37 1  
    39   14   38 1  
    40   14   39 1  
    41   14   40 1  
    42   15   41 1  
    43   15   42 1  
    44   15   43 1  
    45   16   44 1  
    46   16   45 1  
    47   16   46 1  
    48   18   47 1  
    49   19   48 1  
    50   19   49 1  
    51   22   50 1  
    52   22   51 1  
    53   23   52 1  
    54   24   53 1  
    55   25   54 1  
    56   26   55 1  
    57   27   56 1  
    58   27   57 1  
    59   27   58 1  
@<TRIPOS>SUBSTRUCTURE
     1 Y10         1

