### 
### Created by X-TOOL on Mon Sep 10 21:13:05 2018
### 

@<TRIPOS>MOLECULE
3pke_ligand
   58    59     1     0     0
SMALL
GAST_HUCK


@<TRIPOS>ATOM
      1 N         -35.1810  -24.7210   -2.9600 N.am      1 Y10        -0.2781
      2 O1        -32.5650  -31.2720   -2.2300 O.3       1 Y10        -0.3559
      3 O2        -34.8600  -27.8360   -1.7110 O.3       1 Y10        -0.3837
      4 O3        -32.3800  -28.8000   -1.2600 O.3       1 Y10        -0.3810
      5 O4        -34.6470  -25.7590   -4.9530 O.2       1 Y10        -0.3941
      6 O5        -32.1960  -26.4540   -3.8290 O.3       1 Y10        -0.3568
      7 C01       -35.2370  -30.8870   -6.3490 C.3       1 Y10        -0.0754
      8 C02       -34.9010  -30.6450   -4.8830 C.2       1 Y10        -0.0830
      9 C03       -33.6830  -30.5560   -4.3170 C.2       1 Y10         0.0149
     10 C04       -33.4350  -30.2740   -2.8300 C.3       1 Y10         0.1593
     11 C05       -32.8730  -28.8420   -2.6450 C.3       1 Y10         0.1379
     12 C06       -33.9470  -27.7790   -2.9110 C.3       1 Y10         0.1313
     13 C07       -33.3790  -26.3670   -2.9990 C.3       1 Y10         0.1751
     14 C08       -36.1730  -32.0940   -6.5590 C.3       1 Y10        -0.1011
     15 C09       -33.9840  -31.0560   -7.1960 C.3       1 Y10        -0.1011
     16 C10       -35.9650  -29.6370   -6.8130 C.3       1 Y10        -0.1011
     17 C11       -34.4480  -25.5710   -3.7330 C.2       1 Y10         0.2084
     18 C12       -36.3020  -23.9940   -3.5460 C.3       1 Y10         0.0590
     19 C13       -37.1740  -23.4980   -2.3930 C.3       1 Y10         0.0032
     20 C14       -37.6740  -22.2150   -3.0080 C.ar      1 Y10        -0.0386
     21 C15       -36.9340  -21.8500   -4.1160 C.ar      1 Y10        -0.0386
     22 C16       -35.8060  -22.8260   -4.4180 C.3       1 Y10         0.0032
     23 C17       -38.7640  -21.4700   -2.5490 C.ar      1 Y10        -0.0668
     24 C18       -39.0270  -20.2850   -3.2590 C.ar      1 Y10        -0.0755
     25 C19       -38.2810  -19.8690   -4.3860 C.ar      1 Y10        -0.0755
     26 C20       -37.1970  -20.6620   -4.8290 C.ar      1 Y10        -0.0668
     27 C21       -31.5070  -25.1740   -3.8350 C.3       1 Y10         0.0399
     28 H1        -34.9514  -24.5961   -1.9948 H         1 Y10         0.1858
     29 H2        -32.4342  -31.0657   -1.3120 H         1 Y10         0.2179
     30 H3        -34.3616  -27.6423   -0.9258 H         1 Y10         0.2102
     31 H4        -32.0186  -27.9402   -1.0796 H         1 Y10         0.2106
     32 H5        -35.7500  -30.5299   -4.2108 H         1 Y10         0.0465
     33 H6        -32.8141  -30.6937   -4.9589 H         1 Y10         0.1558
     34 H7        -34.4040  -30.3251   -2.3119 H         1 Y10         0.1059
     35 H8        -32.0379  -28.6753   -3.3413 H         1 Y10         0.0707
     36 H9        -34.4920  -28.0152   -3.8368 H         1 Y10         0.0676
     37 H10       -33.1517  -25.9398   -2.0112 H         1 Y10         0.0867
     38 H11       -36.3778  -32.2167   -7.6328 H         1 Y10         0.0084
     39 H12       -37.1180  -31.9228   -6.0227 H         1 Y10         0.0084
     40 H13       -35.6910  -33.0036   -6.1714 H         1 Y10         0.0084
     41 H14       -33.3191  -30.1931   -7.0433 H         1 Y10         0.0084
     42 H15       -34.2648  -31.1192   -8.2577 H         1 Y10         0.0084
     43 H16       -33.4623  -31.9778   -6.8992 H         1 Y10         0.0084
     44 H17       -36.8752  -29.4981   -6.2111 H         1 Y10         0.0084
     45 H18       -36.2392  -29.7444   -7.8728 H         1 Y10         0.0084
     46 H19       -35.3079  -28.7633   -6.6909 H         1 Y10         0.0084
     47 H20       -36.8892  -24.6769   -4.1774 H         1 Y10         0.0598
     48 H21       -36.5868  -23.3163   -1.4807 H         1 Y10         0.0435
     49 H22       -37.9951  -24.1945   -2.1680 H         1 Y10         0.0435
     50 H23       -35.7582  -23.0919   -5.4843 H         1 Y10         0.0435
     51 H24       -34.8268  -22.4467   -4.0904 H         1 Y10         0.0435
     52 H25       -39.3654  -21.7842   -1.7036 H         1 Y10         0.0537
     53 H26       -39.8450  -19.6571   -2.9247 H         1 Y10         0.0541
     54 H27       -38.5372  -18.9523   -4.9047 H         1 Y10         0.0541
     55 H28       -36.5937  -20.3690   -5.6807 H         1 Y10         0.0537
     56 H29       -30.6090  -25.2440   -4.4664 H         1 Y10         0.0526
     57 H30       -31.2135  -24.9107   -2.8081 H         1 Y10         0.0526
     58 H31       -32.1770  -24.3988   -4.2351 H         1 Y10         0.0526
@<TRIPOS>BOND
     1   17    1 am 
     2    1   18 1  
     3   10    2 1  
     4   12    3 1  
     5   11    4 1  
     6   17    5 2  
     7   13    6 1  
     8    6   27 1  
     9    8    7 1  
    10    7   14 1  
    11    7   15 1  
    12    7   16 1  
    13    9    8 2  
    14   10    9 1  
    15   11   10 1  
    16   12   11 1  
    17   13   12 1  
    18   13   17 1  
    19   18   19 1  
    20   18   22 1  
    21   19   20 1  
    22   20   21 ar 
    23   20   23 ar 
    24   21   22 1  
    25   21   26 ar 
    26   23   24 ar 
    27   24   25 ar 
    28   25   26 ar 
    29    1   28 1  
    30    2   29 1  
    31    3   30 1  
    32    4   31 1  
    33    8   32 1  
    34    9   33 1  
    35   10   34 1  
    36   11   35 1  
    37   12   36 1  
    38   13   37 1  
    39   14   38 1  
    40   14   39 1  
    41   14   40 1  
    42   15   41 1  
    43   15   42 1  
    44   15   43 1  
    45   16   44 1  
    46   16   45 1  
    47   16   46 1  
    48   18   47 1  
    49   19   48 1  
    50   19   49 1  
    51   22   50 1  
    52   22   51 1  
    53   23   52 1  
    54   24   53 1  
    55   25   54 1  
    56   26   55 1  
    57   27   56 1  
    58   27   57 1  
    59   27   58 1  
@<TRIPOS>SUBSTRUCTURE
     1 Y10         1

