### 
### Created by X-TOOL on Mon Sep 10 21:13:07 2018
### 

@<TRIPOS>MOLECULE
3pm1_ligand
   45    48     1     0     0
SMALL
GAST_HUCK


@<TRIPOS>ATOM
      1 C1         35.0340   -7.5820   11.2230 C.ar      1 ET         -0.0789
      2 C2         35.6410   -6.5500   11.9350 C.ar      1 ET         -0.0582
      3 C3         37.0230   -6.4120   11.9240 C.ar      1 ET          0.0225
      4 C4         37.7980   -7.3050   11.1940 C.ar      1 ET         -0.0279
      5 N5         38.0050   -9.2330    9.7390 N.pl3     1 ET         -0.2864
      6 C6         37.3990  -10.2680    9.0190 C.3       1 ET          0.1019
      7 C7         35.4180  -11.4640    8.3100 C.ar      1 ET         -0.0409
      8 C8         34.0430  -11.6250    8.3020 C.ar      1 ET          0.0271
      9 C9         33.2440  -10.7430    9.0230 C.ar      1 ET         -0.0530
     10 C10        33.8270   -9.7060    9.7460 C.ar      1 ET         -0.0760
     11 C11        36.0120  -10.4230    9.0300 C.ar      1 ET         -0.0145
     12 C12        35.2150   -9.5340    9.7590 C.ar      1 ET         -0.0361
     13 C13        35.8090   -8.4870   10.4860 C.ar      1 ET         -0.0206
     14 C14        37.2010   -8.3390   10.4740 C.ar      1 ET          0.0395
     15 C15        38.1760  -11.1690    8.3100 C.ar      1 ET         -0.0075
     16 C16        38.3680  -11.0330    6.9380 C.ar      1 ET         -0.0562
     17 C17        39.1420  -11.9760    6.2640 C.ar      1 ET         -0.0681
     18 C18        39.7110  -13.0430    6.9550 C.ar      1 ET         -0.0685
     19 C19        39.5080  -13.1750    8.3260 C.ar      1 ET         -0.0681
     20 C20        38.7350  -12.2390    9.0020 C.ar      1 ET         -0.0562
     21 C21        39.4860   -9.0880    9.7310 C.3       1 ET          0.0287
     22 C22        39.9510   -8.0350    8.7170 C.3       1 ET         -0.0449
     23 N23        37.6090   -5.4290   12.6010 N.pl3     1 ET         -0.3397
     24 N24        33.5040  -12.6260    7.6090 N.pl3     1 ET         -0.3390
     25 H          33.9491   -7.6861   11.2394 H         1 ET          0.0537
     26 H          35.0295   -5.8486   12.5026 H         1 ET          0.0412
     27 H          38.8825   -7.1961   11.1842 H         1 ET          0.0403
     28 H          37.3794   -9.2897    8.5387 H         1 ET          0.0872
     29 H          36.0448  -12.1568    7.7485 H         1 ET          0.0452
     30 H          32.1608  -10.8641    9.0217 H         1 ET          0.0460
     31 H          33.1941   -9.0198   10.3088 H         1 ET          0.0544
     32 H          37.9188  -10.1997    6.3977 H         1 ET          0.0561
     33 H          39.3028  -11.8779    5.1904 H         1 ET          0.0600
     34 H          40.3162  -13.7759    6.4215 H         1 ET          0.0561
     35 H          39.9538  -14.0096    8.8671 H         1 ET          0.0600
     36 H          38.5666  -12.3428   10.0739 H         1 ET          0.0561
     37 H          39.9223  -10.0473    9.4526 H         1 ET          0.0516
     38 H          39.8041   -8.7707   10.7241 H         1 ET          0.0516
     39 H          39.6303   -8.3285    7.7174 H         1 ET          0.0249
     40 H          39.5138   -7.0695    8.9714 H         1 ET          0.0249
     41 H          41.0382   -7.9615    8.7442 H         1 ET          0.0249
     42 H          38.6242   -5.3323   12.5834 H         1 ET          0.1719
     43 H          37.0433   -4.7717   13.1379 H         1 ET          0.1719
     44 H          32.4922  -12.7545    7.6017 H         1 ET          0.1716
     45 H          34.1029  -13.2644    7.0854 H         1 ET          0.1716
@<TRIPOS>BOND
     1    2    1 ar 
     2    1   13 ar 
     3    3    2 ar 
     4    4    3 ar 
     5    3   23 1  
     6   14    4 ar 
     7    6    5 1  
     8    5   14 1  
     9    5   21 1  
    10   11    6 1  
    11    6   15 1  
    12    7    8 ar 
    13    7   11 ar 
    14    8    9 ar 
    15    8   24 1  
    16    9   10 ar 
    17   10   12 ar 
    18   11   12 ar 
    19   12   13 1  
    20   13   14 ar 
    21   15   16 ar 
    22   15   20 ar 
    23   16   17 ar 
    24   17   18 ar 
    25   18   19 ar 
    26   19   20 ar 
    27   21   22 1  
    28    1   25 1  
    29    2   26 1  
    30    4   27 1  
    31    6   28 1  
    32    7   29 1  
    33    9   30 1  
    34   10   31 1  
    35   16   32 1  
    36   17   33 1  
    37   18   34 1  
    38   19   35 1  
    39   20   36 1  
    40   21   37 1  
    41   21   38 1  
    42   22   39 1  
    43   22   40 1  
    44   22   41 1  
    45   23   42 1  
    46   23   43 1  
    47   24   44 1  
    48   24   45 1  
@<TRIPOS>SUBSTRUCTURE
     1 ET          1

