### 
### Created by X-TOOL on Mon Sep 10 21:13:07 2018
### 

@<TRIPOS>MOLECULE
3pn1_ligand
   45    47     1     0     0
SMALL
GAST_HUCK


@<TRIPOS>ATOM
      1 S         110.6990   91.2810   24.4730 S.3       1 IVH        -0.0670
      2 C1        108.9230   94.9930   23.1840 C.3       1 IVH        -0.0652
      3 N1        111.3870   89.0600   25.5020 N.ar      1 IVH        -0.2587
      4 O1        111.4120   92.1060   30.1480 O.3       1 IVH        -0.3369
      5 C2        109.2290   93.7130   23.9540 C.3       1 IVH        -0.0550
      6 N2        111.6530   90.9400   26.8820 N.ar      1 IVH        -0.2638
      7 O2        109.3610   93.6200   31.0420 O.3       1 IVH        -0.3924
      8 C3        110.3770   93.9700   24.9240 C.3       1 IVH        -0.0416
      9 N3        112.5920   90.3600   29.0850 N.pl3     1 IVH        -0.1949
     10 O3        112.9900   95.1110   29.1310 O.3       1 IVH        -0.3864
     11 C4        111.3970   92.8480   24.9410 C.3       1 IVH         0.0122
     12 N4        112.6920   88.1790   28.7150 N.2       1 IVH        -0.3003
     13 O4        114.4470   93.1240   30.0100 O.3       1 IVH        -0.3836
     14 C5        111.2840   90.3780   25.7460 C.ar      1 IVH         0.1286
     15 N5        111.8640   86.8950   26.0870 N.pl3     1 IVH        -0.3163
     16 C6        111.8310   88.2360   26.4070 C.ar      1 IVH         0.1237
     17 C7        112.2180   88.7690   27.6080 C.ar      1 IVH         0.0977
     18 C8        112.1230   90.1540   27.8490 C.ar      1 IVH         0.1526
     19 C9        112.9280   89.1550   29.5890 C.2       1 IVH         0.1096
     20 C10       112.7310   91.6050   29.8850 C.3       1 IVH         0.2004
     21 C11       113.4320   92.6970   29.1340 C.3       1 IVH         0.1384
     22 C12       112.4050   93.8380   29.0030 C.3       1 IVH         0.1145
     23 C13       111.4640   93.5620   30.1150 C.3       1 IVH         0.1135
     24 C14       110.0530   94.0250   29.8340 C.3       1 IVH         0.0730
     25 H1        108.0949   94.8103   22.4833 H         1 IVH         0.0230
     26 H2        109.8159   95.3057   22.6228 H         1 IVH         0.0230
     27 H3        108.6373   95.7864   23.8903 H         1 IVH         0.0230
     28 H4        109.5152   92.9193   23.2483 H         1 IVH         0.0263
     29 H5        108.3366   93.4000   24.5158 H         1 IVH         0.0263
     30 H6        109.4317   92.6783   31.1456 H         1 IVH         0.2095
     31 H7        109.9624   94.0829   25.9366 H         1 IVH         0.0275
     32 H8        110.8839   94.9007   24.6294 H         1 IVH         0.0275
     33 H9        113.4012   95.1850   29.9841 H         1 IVH         0.2100
     34 H10       112.2061   93.0970   24.2386 H         1 IVH         0.0408
     35 H11       111.8078   92.7610   25.9577 H         1 IVH         0.0408
     36 H12       115.0254   92.3953   30.2019 H         1 IVH         0.2101
     37 H13       112.2082   86.2098   26.7746 H         1 IVH         0.1820
     38 H14       111.5444   86.5786   25.1603 H         1 IVH         0.1820
     39 H15       113.3402   89.0000   30.5850 H         1 IVH         0.1328
     40 H16       113.2657   91.3861   30.8210 H         1 IVH         0.0995
     41 H17       113.8225   92.3703   28.1589 H         1 IVH         0.0676
     42 H18       111.8890   93.7812   28.0332 H         1 IVH         0.0648
     43 H19       111.8297   93.9932   31.0586 H         1 IVH         0.0647
     44 H20       110.0098   95.1152   29.6942 H         1 IVH         0.0584
     45 H21       109.6367   93.5248   28.9472 H         1 IVH         0.0584
@<TRIPOS>BOND
     1    1   11 1  
     2   14    1 1  
     3    5    2 1  
     4   14    3 ar 
     5   16    3 ar 
     6    4   20 1  
     7   23    4 1  
     8    8    5 1  
     9    6   14 ar 
    10   18    6 ar 
    11   24    7 1  
    12   11    8 1  
    13    9   18 1  
    14    9   19 1  
    15   20    9 1  
    16   22   10 1  
    17   12   17 1  
    18   19   12 2  
    19   21   13 1  
    20   16   15 1  
    21   17   16 ar 
    22   18   17 ar 
    23   21   20 1  
    24   22   21 1  
    25   23   22 1  
    26   23   24 1  
    27    2   25 1  
    28    2   26 1  
    29    2   27 1  
    30    5   28 1  
    31    5   29 1  
    32    7   30 1  
    33    8   31 1  
    34    8   32 1  
    35   10   33 1  
    36   11   34 1  
    37   11   35 1  
    38   13   36 1  
    39   15   37 1  
    40   15   38 1  
    41   19   39 1  
    42   20   40 1  
    43   21   41 1  
    44   22   42 1  
    45   23   43 1  
    46   24   44 1  
    47   24   45 1  
@<TRIPOS>SUBSTRUCTURE
     1 IVH         1

