### 
### Created by X-TOOL on Mon Sep 10 21:13:05 2018
### 

@<TRIPOS>MOLECULE
3pn3_ligand
   43    43     1     0     0
SMALL
GAST_HUCK


@<TRIPOS>ATOM
      1 C1          1.1440    5.7410   38.2310 C.2       1 PN3         0.1950
      2 O2          1.3750    6.2520   39.4640 O.2       1 PN3        -0.3830
      3 N3          2.1160    5.7250   37.3290 N.am      1 PN3        -0.1499
      4 O4          3.3360    6.2480   37.6520 O.3       1 PN3        -0.2685
      5 C5          1.8930    5.1710   35.9930 C.3       1 PN3         0.0878
      6 C6          2.6340    3.8460   35.8450 C.3       1 PN3         0.0764
      7 C7          2.5910    3.3630   34.3940 C.3       1 PN3         0.0059
      8 C8          3.4340    2.0900   34.2410 C.ar      1 PN3        -0.0408
      9 C9          4.8140    2.2030   34.0670 C.ar      1 PN3        -0.0603
     10 C10         5.6010    1.0610   33.9290 C.ar      1 PN3        -0.0686
     11 C11         5.0040   -0.2030   33.9630 C.ar      1 PN3        -0.0687
     12 C12         3.6240   -0.3180   34.1380 C.ar      1 PN3        -0.0686
     13 C13         2.8370    0.8250   34.2780 C.ar      1 PN3        -0.0603
     14 N14         2.0150    2.7950   36.6510 N.am      1 PN3        -0.2554
     15 C15         2.5190    2.3800   37.7980 C.2       1 PN3         0.3204
     16 O16         3.6160    2.9490   38.3470 O.2       1 PN3        -0.3775
     17 O17         1.8530    1.3740   38.4180 O.3       1 PN3        -0.2581
     18 C18         2.5730    0.3520   39.1530 C.3       1 PN3         0.0905
     19 C19         2.9430    0.8770   40.5430 C.3       1 PN3        -0.0320
     20 C20         1.5720   -0.7930   39.2780 C.3       1 PN3        -0.0320
     21 C21         3.8170   -0.1360   38.4080 C.3       1 PN3        -0.0320
     22 H           0.1605    5.3435   37.9805 H         1 PN3         0.1560
     23 H           3.6986    5.7716   38.4025 H         1 PN3         0.2496
     24 H           2.2646    5.8740   35.2475 H         1 PN3         0.0578
     25 H           0.8258    5.0022   35.8492 H         1 PN3         0.0578
     26 H           3.6576    4.0272   36.1727 H         1 PN3         0.0599
     27 H           2.9935    4.1405   33.7446 H         1 PN3         0.0449
     28 H           1.5591    3.1457   34.1183 H         1 PN3         0.0449
     29 H           5.2784    3.1887   34.0389 H         1 PN3         0.0557
     30 H           6.6788    1.1529   33.7950 H         1 PN3         0.0599
     31 H           5.6161   -1.0982   33.8529 H         1 PN3         0.0559
     32 H           3.1600   -1.3039   34.1653 H         1 PN3         0.0599
     33 H           1.7597    0.7331   34.4159 H         1 PN3         0.0557
     34 H           1.1554    2.3633   36.3118 H         1 PN3         0.1873
     35 H           3.5737    1.7601   40.4404 H         1 PN3         0.0260
     36 H           2.0342    1.1389   41.0848 H         1 PN3         0.0260
     37 H           3.4836    0.1044   41.0898 H         1 PN3         0.0260
     38 H           0.6900   -0.4457   39.8162 H         1 PN3         0.0260
     39 H           1.2824   -1.1310   38.2830 H         1 PN3         0.0260
     40 H           2.0311   -1.6173   39.8238 H         1 PN3         0.0260
     41 H           3.5216   -0.5571   37.4470 H         1 PN3         0.0260
     42 H           4.4942    0.7026   38.2459 H         1 PN3         0.0260
     43 H           4.3184   -0.8999   39.0022 H         1 PN3         0.0260
@<TRIPOS>BOND
     1    1    2 2  
     2    1    3 am 
     3    3    4 1  
     4    3    5 1  
     5    5    6 1  
     6    6    7 1  
     7    6   14 1  
     8    7    8 1  
     9    8    9 ar 
    10    8   13 ar 
    11    9   10 ar 
    12   10   11 ar 
    13   11   12 ar 
    14   12   13 ar 
    15   14   15 am 
    16   15   16 2  
    17   15   17 1  
    18   17   18 1  
    19   18   19 1  
    20   18   20 1  
    21   18   21 1  
    22    1   22 1  
    23    4   23 1  
    24    5   24 1  
    25    5   25 1  
    26    6   26 1  
    27    7   27 1  
    28    7   28 1  
    29    9   29 1  
    30   10   30 1  
    31   11   31 1  
    32   12   32 1  
    33   13   33 1  
    34   14   34 1  
    35   19   35 1  
    36   19   36 1  
    37   19   37 1  
    38   20   38 1  
    39   20   39 1  
    40   20   40 1  
    41   21   41 1  
    42   21   42 1  
    43   21   43 1  
@<TRIPOS>SUBSTRUCTURE
     1 PN3         1

