### 
### Created by X-TOOL on Mon Sep 10 21:13:06 2018
### 

@<TRIPOS>MOLECULE
3pn4_ligand
   62    62     1     0     0
SMALL
GAST_HUCK


@<TRIPOS>ATOM
      1 C5          2.3850   16.7890   64.8010 C.3       1 BB2         0.0585
      2 C3          2.0600   16.6550   63.3460 C.2       1 BB2         0.2013
      3 O4          2.7830   17.1300   62.4710 O.2       1 BB2        -0.3968
      4 N1          0.9110   16.0520   63.0730 N.am      1 BB2        -0.1641
      5 O2          0.5820   15.9830   61.7500 O.3       1 BB2        -0.2717
      6 C6          1.9650   18.1950   65.2730 C.3       1 BB2         0.0654
      7 C12         2.6800   18.5460   66.5810 C.2       1 BB2         0.1836
      8 O13         2.7860   17.7490   67.5370 O.2       1 BB2        -0.3965
      9 C7          0.4250   18.2850   65.5240 C.3       1 BB2        -0.0311
     10 C8          0.0180   19.7780   65.7070 C.3       1 BB2        -0.0506
     11 C9         -1.4690   19.9300   66.0850 C.3       1 BB2        -0.0532
     12 C10        -1.9350   21.4030   65.9100 C.3       1 BB2        -0.0559
     13 C11        -1.5390   22.2130   67.1500 C.3       1 BB2        -0.0653
     14 N14         3.1940   19.7800   66.5900 N.am      1 BB2        -0.2650
     15 C15         3.8420   20.3250   67.7780 C.3       1 BB2         0.1332
     16 C16         5.3800   20.4780   67.6750 C.3       1 BB2        -0.0063
     17 C18         6.0720   19.1300   67.4160 C.3       1 BB2        -0.0584
     18 C17         5.7960   21.4590   66.5910 C.3       1 BB2        -0.0584
     19 C19         3.0560   21.6300   68.0720 C.2       1 BB2         0.2047
     20 O20         2.6600   22.3360   67.1400 O.2       1 BB2        -0.3943
     21 N21         2.7570   21.9720   69.3460 N.am      1 BB2        -0.2661
     22 C22         1.9830   23.1760   69.7560 C.3       1 BB2         0.0681
     23 C23         3.1710   21.1460   70.5240 C.3       1 BB2         0.0344
     24 C24         2.5510   21.8270   71.7570 C.3       1 BB2        -0.0303
     25 C25         1.5480   22.8660   71.2070 C.3       1 BB2        -0.0257
     26 C26         2.8420   24.4630   69.7190 C.3       1 BB2         0.0673
     27 O27         2.0280   25.6170   69.9880 O.3       1 BB2        -0.3927
     28 H1          3.4662   16.6551   64.9528 H         1 BB2         0.0529
     29 H2          1.8371   16.0269   65.3745 H         1 BB2         0.0529
     30 H3          0.3245   15.6730   63.7888 H         1 BB2         0.2216
     31 H4          1.2548   15.5023   61.2822 H         1 BB2         0.2490
     32 H5          2.2448   18.9236   64.4979 H         1 BB2         0.0563
     33 H6          0.1673   17.7202   66.4321 H         1 BB2         0.0294
     34 H7         -0.1128   17.8607   64.6633 H         1 BB2         0.0294
     35 H8          0.2011   20.3140   64.7641 H         1 BB2         0.0267
     36 H9          0.6339   20.2186   66.5048 H         1 BB2         0.0267
     37 H10        -1.6069   19.6304   67.1344 H         1 BB2         0.0265
     38 H11        -2.0745   19.2806   65.4356 H         1 BB2         0.0265
     39 H12        -3.0278   21.4302   65.7875 H         1 BB2         0.0263
     40 H13        -1.4554   21.8364   65.0200 H         1 BB2         0.0263
     41 H14        -1.8681   23.2554   67.0275 H         1 BB2         0.0230
     42 H15        -0.4462   22.1856   67.2723 H         1 BB2         0.0230
     43 H16        -2.0186   21.7793   68.0399 H         1 BB2         0.0230
     44 H17         3.1330   20.3415   65.7648 H         1 BB2         0.1883
     45 H18         3.6655   19.6290   68.6113 H         1 BB2         0.0802
     46 H19         5.7374   20.8665   68.6401 H         1 BB2         0.0343
     47 H20         7.1593   19.2828   67.3499 H         1 BB2         0.0234
     48 H21         5.7035   18.7042   66.4711 H         1 BB2         0.0234
     49 H22         5.8485   18.4384   68.2417 H         1 BB2         0.0234
     50 H23         5.3064   22.4283   66.7662 H         1 BB2         0.0234
     51 H24         5.4947   21.0685   65.6078 H         1 BB2         0.0234
     52 H25         6.8879   21.5902   66.6146 H         1 BB2         0.0234
     53 H26         1.1062   23.3079   69.1051 H         1 BB2         0.0581
     54 H27         4.2674   21.1248   70.6098 H         1 BB2         0.0522
     55 H28         2.7911   20.1186   70.4232 H         1 BB2         0.0522
     56 H29         3.3308   22.3254   72.3515 H         1 BB2         0.0285
     57 H30         2.0306   21.0864   72.3820 H         1 BB2         0.0285
     58 H31         0.5290   22.4520   71.2174 H         1 BB2         0.0289
     59 H32         1.5780   23.7816   71.8159 H         1 BB2         0.0289
     60 H33         3.2984   24.5656   68.7234 H         1 BB2         0.0580
     61 H34         3.6334   24.3925   70.4797 H         1 BB2         0.0580
     62 H35         1.3449   25.6814   69.3310 H         1 BB2         0.2095
@<TRIPOS>BOND
     1    1    2 1  
     2    1    6 1  
     3    2    3 2  
     4    2    4 am 
     5    4    5 1  
     6    6    7 1  
     7    6    9 1  
     8    7    8 2  
     9    7   14 am 
    10    9   10 1  
    11   10   11 1  
    12   11   12 1  
    13   12   13 1  
    14   14   15 1  
    15   15   16 1  
    16   15   19 1  
    17   16   17 1  
    18   16   18 1  
    19   19   20 2  
    20   19   21 am 
    21   21   22 1  
    22   21   23 1  
    23   22   25 1  
    24   22   26 1  
    25   23   24 1  
    26   24   25 1  
    27   26   27 1  
    28    1   28 1  
    29    1   29 1  
    30    4   30 1  
    31    5   31 1  
    32    6   32 1  
    33    9   33 1  
    34    9   34 1  
    35   10   35 1  
    36   10   36 1  
    37   11   37 1  
    38   11   38 1  
    39   12   39 1  
    40   12   40 1  
    41   13   41 1  
    42   13   42 1  
    43   13   43 1  
    44   14   44 1  
    45   15   45 1  
    46   16   46 1  
    47   17   47 1  
    48   17   48 1  
    49   17   49 1  
    50   18   50 1  
    51   18   51 1  
    52   18   52 1  
    53   22   53 1  
    54   23   54 1  
    55   23   55 1  
    56   24   56 1  
    57   24   57 1  
    58   25   58 1  
    59   25   59 1  
    60   26   60 1  
    61   26   61 1  
    62   27   62 1  
@<TRIPOS>SUBSTRUCTURE
     1 BB2         1

