### 
### Created by X-TOOL on Mon Sep 10 21:13:05 2018
### 

@<TRIPOS>MOLECULE
3po6_ligand
   37    38     1     0     0
SMALL
GAST_HUCK


@<TRIPOS>ATOM
      1 CAA        -3.4630    4.7380    9.5310 C.3       1 DT9         0.0553
      2 CAB        -7.3150    7.2130   12.0570 C.3       1 DT9         0.0553
      3 CAC        -5.6020    4.2000   16.1210 C.3       1 DT9        -0.0377
      4 NAD        -5.3570   -0.6010   16.2180 N.am      1 DT9        -0.2486
      5 OAE        -5.1810    1.4280   17.7960 O.2       1 DT9        -0.1354
      6 OAF        -7.3630    1.2110   16.8330 O.2       1 DT9        -0.1354
      7 CAG        -4.5890    3.3020   11.6010 C.ar      1 DT9        -0.0459
      8 CAH        -6.3630    4.7990   13.1350 C.ar      1 DT9        -0.0442
      9 CAI        -4.1670    1.6360   13.4140 C.3       1 DT9        -0.0116
     10 CAJ        -4.1920    1.6420   14.9470 C.3       1 DT9         0.0399
     11 OAK        -4.8780    4.8630    9.7830 O.3       1 DT9        -0.3310
     12 OAL        -6.5970    6.3240   11.2080 O.3       1 DT9        -0.3310
     13 CAM        -4.8850    2.8850   12.8950 C.ar      1 DT9        -0.0569
     14 CAN        -5.1700    4.4520   11.0660 C.ar      1 DT9         0.1060
     15 CAO        -6.0530    5.2180   11.8250 C.ar      1 DT9         0.1061
     16 CAP        -5.7720    3.6500   13.6670 C.ar      1 DT9        -0.0389
     17 CAQ        -6.1250    3.2080   15.0950 C.3       1 DT9         0.0634
     18 NAR        -5.6230    1.8200   15.2950 N.am      1 DT9        -0.2097
     19 SAS        -5.9130    0.9810   16.6140 S.o2      1 DT9         0.1175
     20 H1         -3.2427    5.0686    8.5052 H         1 DT9         0.0570
     21 H2         -3.1607    3.6871    9.6504 H         1 DT9         0.0570
     22 H3         -2.9067    5.3630   10.2451 H         1 DT9         0.0570
     23 H4         -7.7027    8.0540   11.4633 H         1 DT9         0.0570
     24 H5         -6.6432    7.5955   12.8395 H         1 DT9         0.0570
     25 H6         -8.1540    6.6765   12.5241 H         1 DT9         0.0570
     26 H7         -6.0140    5.1978   15.9095 H         1 DT9         0.0266
     27 H8         -4.5040    4.2379   16.0678 H         1 DT9         0.0266
     28 H9         -5.9096    3.8823   17.1282 H         1 DT9         0.0266
     29 H10        -4.3820   -0.7655   16.0687 H         1 DT9         0.1648
     30 H11        -6.0093   -1.3547   16.1375 H         1 DT9         0.1648
     31 H12        -3.8964    2.7245   10.9994 H         1 DT9         0.0434
     32 H13        -7.0634    5.3712   13.7326 H         1 DT9         0.0435
     33 H14        -4.6779    0.7361   13.0410 H         1 DT9         0.0405
     34 H15        -3.1246    1.6380   13.0628 H         1 DT9         0.0405
     35 H16        -3.5896    2.4731   15.3424 H         1 DT9         0.0499
     36 H17        -3.8105    0.6905   15.3457 H         1 DT9         0.0499
     37 H18        -7.2207    3.1867   15.1898 H         1 DT9         0.0637
@<TRIPOS>BOND
     1   11    1 1  
     2   12    2 1  
     3   17    3 1  
     4   19    4 am 
     5   19    5 2  
     6   19    6 2  
     7   13    7 ar 
     8    7   14 ar 
     9    8   15 ar 
    10   16    8 ar 
    11   10    9 1  
    12    9   13 1  
    13   18   10 1  
    14   14   11 1  
    15   15   12 1  
    16   16   13 ar 
    17   15   14 ar 
    18   17   16 1  
    19   18   17 1  
    20   18   19 am 
    21    1   20 1  
    22    1   21 1  
    23    1   22 1  
    24    2   23 1  
    25    2   24 1  
    26    2   25 1  
    27    3   26 1  
    28    3   27 1  
    29    3   28 1  
    30    4   29 1  
    31    4   30 1  
    32    7   31 1  
    33    8   32 1  
    34    9   33 1  
    35    9   34 1  
    36   10   35 1  
    37   10   36 1  
    38   17   37 1  
@<TRIPOS>SUBSTRUCTURE
     1 DT9         1

