### 
### Created by X-TOOL on Mon Sep 10 21:13:07 2018
### 

@<TRIPOS>MOLECULE
3poz_ligand
   63    66     1     0     0
SMALL
GAST_HUCK


@<TRIPOS>ATOM
      1 N1         14.7340   33.5590   13.1610 N.ar      1 03P        -0.2703
      2 N3         20.2250   35.7750   15.3950 N.am      1 03P        -0.2842
      3 C4         15.8900   35.0340   17.2350 C.2       1 03P         0.0345
      4 C5         14.5180   34.8540   17.0580 C.2       1 03P        -0.0449
      5 C6         18.0730   34.7880   16.0540 C.3       1 03P         0.0744
      6 C7         18.7830   36.0320   15.5310 C.3       1 03P         0.0579
      7 C8         20.7150   35.0010   14.4070 C.2       1 03P         0.1788
      8 C10        17.2240   33.5270   11.8350 C.ar      1 03P         0.0548
      9 C13        17.5500   32.9210    9.0980 C.ar      1 03P         0.1200
     10 C15        18.1350   32.5430   11.4220 C.ar      1 03P        -0.0448
     11 C17        18.4040   30.7430    6.4860 C.ar      1 03P         0.0005
     12 C20        16.0480   29.3940    7.1640 C.ar      1 03P         0.0394
     13 C21        16.2660   30.6950    7.6250 C.ar      1 03P         0.0004
     14 C22        14.8020   28.6230    7.5000 C.3       1 03P         0.3740
     15 C24        24.1210   33.2280   14.0430 C.3       1 03P        -0.0342
     16 F2         13.8670   29.3560    8.0560 F         1 03P        -0.2206
     17 F          14.2830   28.1180    6.3950 F         1 03P        -0.2206
     18 F1         15.1020   27.6320    8.3300 F         1 03P        -0.2206
     19 C19        17.0120   28.7820    6.3480 C.ar      1 03P        -0.0409
     20 C18        18.1880   29.4520    6.0170 C.ar      1 03P        -0.0385
     21 C16        17.4560   31.3660    7.3000 C.ar      1 03P         0.1418
     22 O1         17.6880   32.6400    7.7450 O.3       1 03P        -0.2571
     23 C12        16.6540   33.8950    9.5210 C.ar      1 03P         0.0641
     24 CL         15.6760   34.7660    8.3190 Cl        1 03P        -0.0803
     25 C11        16.4760   34.2030   10.8620 C.ar      1 03P        -0.0311
     26 C14        18.3170   32.2500   10.0520 C.ar      1 03P        -0.0363
     27 N4         17.0810   33.8100   13.1800 N.pl3     1 03P        -0.2596
     28 C1         15.8750   33.8860   13.8120 C.ar      1 03P         0.1675
     29 C          13.5190   33.6450   13.7380 C.ar      1 03P         0.0451
     30 C3         15.7330   34.3090   15.1460 C.ar      1 03P         0.1396
     31 C2         14.4750   34.4120   15.7050 C.ar      1 03P         0.0383
     32 N          13.3710   34.0640   15.0050 N.ar      1 03P        -0.3130
     33 N2         16.5930   34.7400   16.1000 N.pl3     1 03P        -0.2518
     34 O          20.0140   34.4420   13.5830 O.2       1 03P        -0.3970
     35 C9         22.2200   34.8250   14.3240 C.3       1 03P         0.0655
     36 C23        22.6070   33.3860   13.9560 C.3       1 03P         0.0771
     37 O2         22.0200   32.5000   14.9190 O.3       1 03P        -0.3868
     38 C25        22.1470   32.9560   12.5610 C.3       1 03P        -0.0342
     39 H1         20.8574   36.1850   16.0523 H         1 03P         0.1852
     40 H2         16.3462   35.3685   18.1655 H         1 03P         0.1013
     41 H3         13.7022   35.0092   17.7625 H         1 03P         0.0320
     42 H4         18.4272   34.6302   17.0834 H         1 03P         0.0629
     43 H5         18.3977   33.9485   15.4217 H         1 03P         0.0629
     44 H6         18.3677   36.3012   14.5486 H         1 03P         0.0547
     45 H7         18.6268   36.8624   16.2352 H         1 03P         0.0547
     46 H8         18.7075   31.9997   12.1650 H         1 03P         0.0517
     47 H9         19.3134   31.2687    6.2182 H         1 03P         0.0802
     48 H10        15.5160   31.1866    8.2339 H         1 03P         0.0767
     49 H11        24.3977   32.1966   13.7792 H         1 03P         0.0259
     50 H12        24.4541   33.4461   15.0684 H         1 03P         0.0259
     51 H13        24.6034   33.9272   13.3442 H         1 03P         0.0259
     52 H14        16.8403   27.7798    5.9722 H         1 03P         0.0774
     53 H15        18.9326   28.9680    5.3954 H         1 03P         0.0675
     54 H16        15.7614   34.9633   11.1557 H         1 03P         0.0519
     55 H17        19.0466   31.5098    9.7440 H         1 03P         0.0527
     56 H18        17.9326   33.9726   13.7361 H         1 03P         0.2135
     57 H19        12.6406   33.3694   13.1657 H         1 03P         0.0963
     58 H20        22.6618   35.0737   15.3002 H         1 03P         0.0531
     59 H21        22.6164   35.5072   13.5575 H         1 03P         0.0531
     60 H22        21.0752   32.5976   14.9028 H         1 03P         0.2103
     61 H23        22.4615   31.9185   12.3748 H         1 03P         0.0259
     62 H24        22.5981   33.6169   11.8062 H         1 03P         0.0259
     63 H25        21.0508   33.0235   12.4993 H         1 03P         0.0259
@<TRIPOS>BOND
     1   28    1 ar 
     2    1   29 ar 
     3    2    6 1  
     4    7    2 am 
     5    3    4 2  
     6   33    3 1  
     7   31    4 1  
     8    6    5 1  
     9    5   33 1  
    10    7   34 2  
    11   35    7 1  
    12    8   10 ar 
    13    8   25 ar 
    14   27    8 1  
    15    9   22 1  
    16   23    9 ar 
    17   26    9 ar 
    18   10   26 ar 
    19   11   20 ar 
    20   21   11 ar 
    21   13   12 ar 
    22   12   14 1  
    23   12   19 ar 
    24   21   13 ar 
    25   14   16 1  
    26   14   17 1  
    27   14   18 1  
    28   36   15 1  
    29   20   19 ar 
    30   22   21 1  
    31   23   24 1  
    32   25   23 ar 
    33   28   27 1  
    34   30   28 ar 
    35   32   29 ar 
    36   30   31 ar 
    37   33   30 1  
    38   31   32 ar 
    39   35   36 1  
    40   36   37 1  
    41   36   38 1  
    42    2   39 1  
    43    3   40 1  
    44    4   41 1  
    45    5   42 1  
    46    5   43 1  
    47    6   44 1  
    48    6   45 1  
    49   10   46 1  
    50   11   47 1  
    51   13   48 1  
    52   15   49 1  
    53   15   50 1  
    54   15   51 1  
    55   19   52 1  
    56   20   53 1  
    57   25   54 1  
    58   26   55 1  
    59   27   56 1  
    60   29   57 1  
    61   35   58 1  
    62   35   59 1  
    63   37   60 1  
    64   38   61 1  
    65   38   62 1  
    66   38   63 1  
@<TRIPOS>SUBSTRUCTURE
     1 03P         1

