### 
### Created by X-TOOL on Mon Sep 10 21:13:06 2018
### 

@<TRIPOS>MOLECULE
3pp0_ligand
   53    56     1     0     0
SMALL
GAST_HUCK


@<TRIPOS>ATOM
      1 O1         12.9040   15.4160   27.6660 O.3       1 03Q        -0.3927
      2 C2         12.7010   15.4320   29.0830 C.3       1 03Q         0.0676
      3 C3         13.6420   14.4880   29.8430 C.3       1 03Q         0.0709
      4 O4         14.2820   13.5780   28.9490 O.3       1 03Q        -0.3748
      5 C5         14.3860   12.2360   29.4150 C.3       1 03Q         0.0747
      6 C6         15.2870   11.5040   28.4250 C.3       1 03Q         0.0777
      7 N7         16.7110   11.4550   28.8350 N.pl3     1 03Q        -0.2514
      8 C8         17.2480   10.4260   29.5520 C.2       1 03Q         0.0346
      9 C9         18.5700   10.6210   29.7440 C.2       1 03Q        -0.0448
     10 C10        18.9150   11.8710   29.0910 C.ar      1 03Q         0.0386
     11 N11        20.0600   12.5660   28.9470 N.ar      1 03Q        -0.3126
     12 C12        20.0730   13.7020   28.2760 C.ar      1 03Q         0.0454
     13 N13        18.9650   14.2110   27.7290 N.ar      1 03Q        -0.2699
     14 C14        17.7780   13.5830   27.8240 C.ar      1 03Q         0.1690
     15 N15        16.6330   14.1290   27.2530 N.pl3     1 03Q        -0.2534
     16 C16        16.6740   15.2830   26.4610 C.ar      1 03Q         0.0816
     17 C17        15.8300   16.3470   26.7750 C.ar      1 03Q         0.0240
     18 N18        15.8160   17.4600   26.0650 N.ar      1 03Q        -0.2805
     19 C19        16.6130   17.6270   25.0380 C.ar      1 03Q         0.1934
     20 O20        16.5470   18.8100   24.3620 O.3       1 03Q        -0.2381
     21 C21        17.3830   19.8530   24.6570 C.ar      1 03Q         0.1458
     22 C22        18.4440   19.7380   25.5530 C.ar      1 03Q         0.0012
     23 C23        19.2830   20.8190   25.8100 C.ar      1 03Q        -0.0382
     24 C24        19.0830   22.0330   25.1770 C.ar      1 03Q        -0.0407
     25 C25        18.0320   22.1390   24.2780 C.ar      1 03Q         0.0397
     26 C26        17.1940   21.0640   24.0140 C.ar      1 03Q         0.0011
     27 C27        17.8170   23.4520   23.5920 C.3       1 03Q         0.3741
     28 F28        16.8670   23.4020   22.5930 F         1 03Q        -0.2206
     29 F29        19.0360   23.8760   23.0710 F         1 03Q        -0.2206
     30 F30        17.3300   24.3620   24.4970 F         1 03Q        -0.2206
     31 C31        17.4910   16.6020   24.6570 C.ar      1 03Q         0.0930
     32 CL32       18.5300   16.8010   23.2920 Cl        1 03Q        -0.0702
     33 C33        17.5300   15.4110   25.3730 C.ar      1 03Q        -0.0113
     34 C34        17.7100   12.3580   28.5250 C.ar      1 03Q         0.1400
     35 H1         12.2953   16.0173   27.2532 H         1 03Q         0.2095
     36 H2         11.6634   15.1315   29.2902 H         1 03Q         0.0580
     37 H3         12.8658   16.4567   29.4475 H         1 03Q         0.0580
     38 H4         13.0601   13.9175   30.5819 H         1 03Q         0.0583
     39 H5         14.4086   15.0834   30.3605 H         1 03Q         0.0583
     40 H6         13.3921   11.7655   29.4444 H         1 03Q         0.0587
     41 H7         14.8310   12.2161   30.4208 H         1 03Q         0.0587
     42 H8         15.2233   12.0163   27.4537 H         1 03Q         0.0632
     43 H9         14.9207   10.4721   28.3201 H         1 03Q         0.0632
     44 H10        16.6881    9.5668   29.9185 H         1 03Q         0.1014
     45 H11        19.2492    9.9648   30.2862 H         1 03Q         0.0320
     46 H12        21.0089   14.2376   28.1653 H         1 03Q         0.0963
     47 H13        15.7260   13.6697   27.4181 H         1 03Q         0.2154
     48 H14        15.1658   16.2580   27.6270 H         1 03Q         0.0708
     49 H15        18.6185   18.7941   26.0567 H         1 03Q         0.0804
     50 H16        20.1008   20.7085   26.5128 H         1 03Q         0.0675
     51 H17        19.7305   22.8788   25.3783 H         1 03Q         0.0776
     52 H18        16.3863   21.1739   23.2995 H         1 03Q         0.0770
     53 H19        18.2044   14.6100   25.0927 H         1 03Q         0.0638
@<TRIPOS>BOND
     1    1    2 1  
     2    2    3 1  
     3    3    4 1  
     4    4    5 1  
     5    5    6 1  
     6    6    7 1  
     7    7    8 1  
     8    7   34 1  
     9    8    9 2  
    10    9   10 1  
    11   10   11 ar 
    12   10   34 ar 
    13   11   12 ar 
    14   12   13 ar 
    15   13   14 ar 
    16   14   15 1  
    17   14   34 ar 
    18   15   16 1  
    19   16   17 ar 
    20   16   33 ar 
    21   17   18 ar 
    22   18   19 ar 
    23   19   20 1  
    24   19   31 ar 
    25   20   21 1  
    26   21   22 ar 
    27   21   26 ar 
    28   22   23 ar 
    29   23   24 ar 
    30   24   25 ar 
    31   25   26 ar 
    32   25   27 1  
    33   27   28 1  
    34   27   29 1  
    35   27   30 1  
    36   31   32 1  
    37   31   33 ar 
    38    1   35 1  
    39    2   36 1  
    40    2   37 1  
    41    3   38 1  
    42    3   39 1  
    43    5   40 1  
    44    5   41 1  
    45    6   42 1  
    46    6   43 1  
    47    8   44 1  
    48    9   45 1  
    49   12   46 1  
    50   15   47 1  
    51   17   48 1  
    52   22   49 1  
    53   23   50 1  
    54   24   51 1  
    55   26   52 1  
    56   33   53 1  
@<TRIPOS>SUBSTRUCTURE
     1 03Q         1

