### 
### Created by X-TOOL on Mon Sep 10 21:13:06 2018
### 

@<TRIPOS>MOLECULE
3pp1_ligand
   45    47     1     0     0
SMALL
GAST_HUCK


@<TRIPOS>ATOM
      1 C1        -34.6430   33.0180    2.7360 C.3       1 IZG         0.0522
      2 N2        -34.3370   32.0160    3.7490 N.am      1 IZG        -0.1988
      3 C3        -33.0410   31.5590    3.8870 C.2       1 IZG         0.1086
      4 N4        -32.0340   32.0100    3.0980 N.2       1 IZG        -0.3847
      5 C5        -30.7910   31.5690    3.2250 C.3       1 IZG         0.0480
      6 N6        -30.4210   30.6280    4.1530 N.am      1 IZG        -0.2771
      7 C7        -29.0190   30.1450    4.2030 C.3       1 IZG         0.0601
      8 C8        -27.9940   31.0640    4.8800 C.3       1 IZG         0.0982
      9 O10       -28.3790   31.3460    6.2320 O.3       1 IZG        -0.3875
     10 C11       -26.6180   30.3610    4.8420 C.3       1 IZG         0.0720
     11 O12       -26.0800   30.0460    6.1430 O.3       1 IZG        -0.3924
     12 C13       -31.3840   30.1140    4.9990 C.2       1 IZG         0.1803
     13 O14       -31.0990   29.2720    5.8420 O.2       1 IZG        -0.4123
     14 C15       -32.7340   30.5870    4.8740 C.2       1 IZG         0.1198
     15 C16       -33.8180   30.0940    5.7250 C.2       1 IZG         0.1554
     16 N17       -33.5410   29.1400    6.6910 N.pl3     1 IZG        -0.2361
     17 C18       -34.2610   27.9800    7.0040 C.ar      1 IZG         0.1112
     18 C19       -35.3980   27.5680    6.3060 C.ar      1 IZG        -0.0339
     19 C20       -36.0700   26.4000    6.6690 C.ar      1 IZG        -0.0632
     20 C21       -35.6400   25.6190    7.7490 C.ar      1 IZG        -0.0031
     21 I22       -36.6860   23.8520    8.3040 I         1 IZG        -0.0593
     22 C23       -34.5020   26.0430    8.4450 C.ar      1 IZG        -0.0253
     23 C24       -33.8110   27.2070    8.0810 C.ar      1 IZG         0.1604
     24 F25       -32.7110   27.5900    8.7780 F         1 IZG        -0.1887
     25 C26       -35.0930   30.6190    5.5270 C.3       1 IZG         0.2771
     26 F27       -36.1240   30.2090    6.2860 F         1 IZG        -0.1906
     27 C28       -35.3380   31.5740    4.5350 C.2       1 IZG         0.2728
     28 O29       -36.4870   31.9930    4.3940 O.2       1 IZG        -0.3746
     29 H         -35.3865   32.6196    2.0456 H         1 IZG         0.0567
     30 H         -35.0362   33.9126    3.2188 H         1 IZG         0.0567
     31 H         -33.7344   33.2686    2.1885 H         1 IZG         0.0567
     32 H         -30.2444   32.4573    3.5418 H         1 IZG         0.0528
     33 H         -30.6089   31.0653    2.2757 H         1 IZG         0.0528
     34 H         -28.6977   30.0515    3.1656 H         1 IZG         0.0546
     35 H         -29.0386   29.2307    4.7961 H         1 IZG         0.0546
     36 H         -27.9425   32.0153    4.3505 H         1 IZG         0.0636
     37 H         -28.4333   30.5247    6.7260 H         1 IZG         0.2100
     38 H         -25.9194   31.0463    4.3620 H         1 IZG         0.0583
     39 H         -26.7527   29.4179    4.3123 H         1 IZG         0.0583
     40 H         -25.9700   30.8555    6.6471 H         1 IZG         0.2095
     41 H         -32.7021   29.3041    7.2476 H         1 IZG         0.2310
     42 H         -35.7640   28.1641    5.4700 H         1 IZG         0.0542
     43 H         -36.9468   26.0895    6.1008 H         1 IZG         0.0584
     44 H         -34.1448   25.4542    9.2899 H         1 IZG         0.0603
     45 H         -34.0085   30.5808    5.6293 H         1 IZG         0.1231
@<TRIPOS>BOND
     1    1    2 1  
     2    2    3 1  
     3    2   27 am 
     4    3    4 2  
     5    3   14 1  
     6    4    5 1  
     7    5    6 1  
     8    6    7 1  
     9    6   12 am 
    10    7    8 1  
    11    8    9 1  
    12    8   10 1  
    13   10   11 1  
    14   12   13 2  
    15   12   14 1  
    16   14   15 2  
    17   15   16 1  
    18   15   25 1  
    19   16   17 1  
    20   17   18 ar 
    21   17   23 ar 
    22   18   19 ar 
    23   19   20 ar 
    24   20   21 1  
    25   20   22 ar 
    26   22   23 ar 
    27   23   24 1  
    28   25   26 1  
    29   25   27 1  
    30   27   28 2  
    31    1   29 1  
    32    1   30 1  
    33    1   31 1  
    34    5   32 1  
    35    5   33 1  
    36    7   34 1  
    37    7   35 1  
    38    8   36 1  
    39    9   37 1  
    40   10   38 1  
    41   10   39 1  
    42   11   40 1  
    43   16   41 1  
    44   18   42 1  
    45   19   43 1  
    46   22   44 1  
    47   25   45 1  
@<TRIPOS>SUBSTRUCTURE
     1 IZG         1

