### 
### Created by X-TOOL on Mon Sep 10 21:13:03 2018
### 

@<TRIPOS>MOLECULE
3pp7_ligand
   58    61     1     0     0
SMALL
GAST_HUCK


@<TRIPOS>ATOM
      1 C46        30.0140   24.8660   53.6130 C.ar      1 SVR        -0.0562
      2 C47        29.3350   23.7720   53.0660 C.ar      1 SVR        -0.0415
      3 C48        30.8260   25.6580   52.7990 C.ar      1 SVR        -0.0576
      4 C50        30.9570   25.3530   51.4420 C.ar      1 SVR        -0.0562
      5 C52        30.2790   24.2560   50.8990 C.ar      1 SVR        -0.0415
      6 C49        29.4630   23.4530   51.7070 C.ar      1 SVR         0.0556
      7 C51        28.6970   22.2360   51.1170 C.2       1 SVR         0.2306
      8 O54        27.6540   21.8510   51.6510 O.2       1 SVR        -0.3740
      9 N53        29.2480   21.6540   50.0310 N.am      1 SVR        -0.2352
     10 C55        28.7270   20.5980   49.3590 C.ar      1 SVR         0.0740
     11 C56        28.1640   20.8070   48.0840 C.ar      1 SVR        -0.0272
     12 C57        28.7440   19.2890   49.8780 C.ar      1 SVR        -0.0191
     13 C59        29.3460   18.9660   51.2560 C.3       1 SVR        -0.0327
     14 C60        28.1980   18.2390   49.1320 C.ar      1 SVR        -0.0675
     15 C62        27.6400   18.4720   47.8720 C.ar      1 SVR        -0.0632
     16 C58        27.6160   19.7580   47.3290 C.ar      1 SVR         0.0364
     17 C61        26.9840   19.9850   45.9190 C.2       1 SVR         0.2279
     18 O64        25.7650   19.8940   45.7740 O.2       1 SVR        -0.3740
     19 N63        27.8570   20.2520   44.9240 N.am      1 SVR        -0.2285
     20 C65        27.6370   20.4790   43.6010 C.ar      1 SVR         0.0824
     21 C67        26.3750   20.8470   43.1110 C.ar      1 SVR        -0.0414
     22 C70        26.1570   21.0800   41.7490 C.ar      1 SVR        -0.0595
     23 C71        27.2000   20.9620   40.8300 C.ar      1 SVR         0.0386
     24 S75        26.9390   21.2640   39.0840 S.o2      1 SVR        -0.1723
     25 O80        25.5550   21.4630   38.7940 O.co2     1 SVR        -0.4823
     26 O81        27.4230   20.1010   38.2740 O.co2     1 SVR        -0.4823
     27 O82        27.7030   22.4860   38.6750 O.co2     1 SVR        -0.4823
     28 C66        28.7030   20.3610   42.6770 C.ar      1 SVR         0.0350
     29 C68        28.4680   20.6050   41.3010 C.ar      1 SVR        -0.0062
     30 C72        29.5070   20.4920   40.3710 C.ar      1 SVR        -0.0371
     31 C69        30.0140   20.0000   43.0650 C.ar      1 SVR         0.0599
     32 S73        30.5110   19.6570   44.7220 S.o2      1 SVR        -0.1625
     33 O77        31.9080   19.3440   44.7330 O.co2     1 SVR        -0.4795
     34 O78        29.7500   18.4770   45.2600 O.co2     1 SVR        -0.4795
     35 O79        30.2970   20.8630   45.5910 O.co2     1 SVR        -0.4795
     36 C74        31.0290   19.8950   42.1130 C.ar      1 SVR        -0.0210
     37 C76        30.7890   20.1370   40.7680 C.ar      1 SVR         0.0494
     38 S83        32.0960   19.9930   39.5920 S.o2      1 SVR        -0.1636
     39 O85        31.9460   18.7770   38.8470 O.co2     1 SVR        -0.4797
     40 O86        33.4090   19.9830   40.3210 O.co2     1 SVR        -0.4797
     41 O84        32.0590   21.1630   38.6490 O.co2     1 SVR        -0.4797
     42 H          29.9093   25.0996   54.6725 H         1 SVR         0.0629
     43 H          28.6983   23.1598   53.7047 H         1 SVR         0.0669
     44 H          31.3562   26.5118   53.2210 H         1 SVR         0.0652
     45 H          31.5891   25.9712   50.8045 H         1 SVR         0.0629
     46 H          30.3864   24.0243   49.8393 H         1 SVR         0.0669
     47 H          30.1277   22.0399   49.6881 H         1 SVR         0.2231
     48 H          28.1537   21.8156   47.6708 H         1 SVR         0.0529
     49 H          28.5753   18.5366   51.8961 H         1 SVR         0.0372
     50 H          30.1607   18.2517   51.1368 H         1 SVR         0.0372
     51 H          29.7271   19.8816   51.7082 H         1 SVR         0.0372
     52 H          28.2079   17.2275   49.5381 H         1 SVR         0.0527
     53 H          27.2189   17.6405   47.3070 H         1 SVR         0.0525
     54 H          28.8355   20.2893   45.2095 H         1 SVR         0.2306
     55 H          25.5442   20.9540   43.8085 H         1 SVR         0.0443
     56 H          25.1615   21.3567   41.4020 H         1 SVR         0.0583
     57 H          29.3066   20.6859   39.3173 H         1 SVR         0.0606
     58 H          32.0330   19.6166   42.4333 H         1 SVR         0.0614
@<TRIPOS>BOND
     1    1    2 ar 
     2    1    3 ar 
     3    2    6 ar 
     4    3    4 ar 
     5    4    5 ar 
     6    5    6 ar 
     7    6    7 1  
     8    7    8 2  
     9    7    9 am 
    10    9   10 1  
    11   10   11 ar 
    12   10   12 ar 
    13   11   16 ar 
    14   12   13 1  
    15   12   14 ar 
    16   14   15 ar 
    17   15   16 ar 
    18   16   17 1  
    19   17   18 2  
    20   17   19 am 
    21   19   20 1  
    22   20   21 ar 
    23   20   28 ar 
    24   21   22 ar 
    25   22   23 ar 
    26   23   24 1  
    27   23   29 ar 
    28   24   25 ar 
    29   24   26 ar 
    30   24   27 ar 
    31   28   29 ar 
    32   28   31 ar 
    33   29   30 ar 
    34   30   37 ar 
    35   31   32 1  
    36   31   36 ar 
    37   32   33 ar 
    38   32   34 ar 
    39   32   35 ar 
    40   36   37 ar 
    41   37   38 1  
    42   38   39 ar 
    43   38   40 ar 
    44   38   41 ar 
    45    1   42 1  
    46    2   43 1  
    47    3   44 1  
    48    4   45 1  
    49    5   46 1  
    50    9   47 1  
    51   11   48 1  
    52   13   49 1  
    53   13   50 1  
    54   13   51 1  
    55   14   52 1  
    56   15   53 1  
    57   19   54 1  
    58   21   55 1  
    59   22   56 1  
    60   30   57 1  
    61   36   58 1  
@<TRIPOS>SUBSTRUCTURE
     1 SVR         1

