### 
### Created by X-TOOL on Mon Sep 10 21:13:08 2018
### 

@<TRIPOS>MOLECULE
3ppj_ligand
   40    43     1     0     0
SMALL
GAST_HUCK


@<TRIPOS>ATOM
      1 C1         80.7940   10.7900   -8.1510 C.ar      1 FOI        -0.0046
      2 N2         81.5050   11.8130   -8.6870 N.ar      1 FOI        -0.3107
      3 C3         82.8350   11.6500   -8.8860 C.ar      1 FOI         0.0420
      4 C4         83.4480   10.4550   -8.5550 C.ar      1 FOI         0.1508
      5 C5         82.7610    9.4550   -8.0230 C.ar      1 FOI         0.0499
      6 C6         81.4090    9.5810   -7.8140 C.ar      1 FOI        -0.0389
      7 C7         83.7170    8.3820   -7.8090 C.2       1 FOI         0.1106
      8 C8         84.9270    8.8810   -8.2280 C.2       1 FOI         0.2191
      9 O9         84.7660   10.1680   -8.6970 O.3       1 FOI        -0.2468
     10 C10        86.3230    8.3450   -8.2780 C.2       1 FOI         0.2796
     11 O11        87.2930    8.9610   -8.7150 O.2       1 FOI        -0.3689
     12 O12        86.3890    7.0690   -7.7540 O.3       1 FOI        -0.2833
     13 C13        87.6990    6.4910   -7.7540 C.3       1 FOI         0.0638
     14 N14        83.5280    7.1410   -7.2890 N.pl3     1 FOI        -0.2806
     15 C15        82.3480    6.4100   -7.0230 C.ar      1 FOI         0.0508
     16 C16        82.2530    5.6710   -5.8810 C.ar      1 FOI        -0.0450
     17 C17        81.1050    4.9620   -5.6370 C.ar      1 FOI        -0.0679
     18 C18        80.0750    5.0180   -6.5190 C.ar      1 FOI        -0.0128
     19 C19        80.1560    5.7100   -7.6170 C.ar      1 FOI        -0.0399
     20 C20        81.2780    6.4330   -7.9080 C.ar      1 FOI        -0.0368
     21 C21        78.9210    5.6260   -8.4490 C.3       1 FOI        -0.0099
     22 C22        78.0180    4.6950   -7.6280 C.3       1 FOI         0.0014
     23 C23        78.8560    4.3540   -6.4190 C.2       1 FOI         0.0429
     24 N24        78.5340    3.5980   -5.4140 N.2       1 FOI        -0.1883
     25 O25        77.2440    3.0770   -5.5790 O.3       1 FOI        -0.2745
     26 H          79.7245   10.9128   -7.9801 H         1 FOI         0.0707
     27 H          83.4244   12.4637   -9.3086 H         1 FOI         0.0783
     28 H          80.8299    8.7579   -7.3954 H         1 FOI         0.0670
     29 H          88.0688    6.4322   -8.7777 H         1 FOI         0.0574
     30 H          88.3688    7.1123   -7.1595 H         1 FOI         0.0574
     31 H          87.6531    5.4901   -7.3249 H         1 FOI         0.0574
     32 H          84.3894    6.6506   -7.0482 H         1 FOI         0.2061
     33 H          83.0795    5.6442   -5.1708 H         1 FOI         0.0481
     34 H          81.0198    4.3544   -4.7361 H         1 FOI         0.0578
     35 H          81.3328    7.0211   -8.8241 H         1 FOI         0.0467
     36 H          79.1125    5.2517   -9.4547 H         1 FOI         0.0454
     37 H          78.4682    6.6000   -8.6344 H         1 FOI         0.0454
     38 H          77.7172    3.8093   -8.1875 H         1 FOI         0.0453
     39 H          77.0727    5.1658   -7.3582 H         1 FOI         0.0453
     40 H          77.0256    2.5220   -4.8267 H         1 FOI         0.2700
@<TRIPOS>BOND
     1    1    2 ar 
     2    1    6 ar 
     3    2    3 ar 
     4    3    4 ar 
     5    4    5 ar 
     6    4    9 1  
     7    5    6 ar 
     8    5    7 1  
     9    7    8 2  
    10    7   14 1  
    11    8    9 1  
    12    8   10 1  
    13   10   11 2  
    14   10   12 1  
    15   12   13 1  
    16   14   15 1  
    17   15   16 ar 
    18   15   20 ar 
    19   16   17 ar 
    20   17   18 ar 
    21   18   19 ar 
    22   18   23 1  
    23   19   20 ar 
    24   19   21 1  
    25   21   22 1  
    26   22   23 1  
    27   23   24 2  
    28   24   25 1  
    29    1   26 1  
    30    3   27 1  
    31    6   28 1  
    32   13   29 1  
    33   13   30 1  
    34   13   31 1  
    35   14   32 1  
    36   16   33 1  
    37   17   34 1  
    38   20   35 1  
    39   21   36 1  
    40   21   37 1  
    41   22   38 1  
    42   22   39 1  
    43   25   40 1  
@<TRIPOS>SUBSTRUCTURE
     1 FOI         1

