### 
### Created by X-TOOL on Mon Sep 10 21:13:08 2018
### 

@<TRIPOS>MOLECULE
3ppk_ligand
   45    49     1     0     0
SMALL
GAST_HUCK


@<TRIPOS>ATOM
      1 C1         80.7220   10.9630   -8.4450 C.ar      1 FNI        -0.0048
      2 N2         81.4950   11.8560   -9.1060 N.ar      1 FNI        -0.3109
      3 C3         82.8070   11.5990   -9.3100 C.ar      1 FNI         0.0419
      4 C4         83.3650   10.3960   -8.8320 C.ar      1 FNI         0.1506
      5 C5         82.5820    9.4650   -8.1500 C.ar      1 FNI         0.0494
      6 C6         81.2160    9.7370   -7.9400 C.ar      1 FNI        -0.0391
      7 O7         84.6640    9.9790   -8.9480 O.3       1 FNI        -0.2473
      8 C8         84.6190    8.7330   -8.2900 C.2       1 FNI         0.2152
      9 C9         83.3410    8.3440   -7.7680 C.2       1 FNI         0.1095
     10 C10        85.8330    7.9950   -8.2160 C.2       1 FNI         0.2579
     11 N11        83.0670    7.2040   -7.1070 N.pl3     1 FNI        -0.2806
     12 C12        82.0240    6.3790   -6.9570 C.ar      1 FNI         0.0533
     13 C13        82.0540    5.4650   -5.8830 C.ar      1 FNI        -0.0368
     14 C14        80.9780    4.5780   -5.6820 C.ar      1 FNI        -0.0570
     15 C15        79.8730    4.6090   -6.5560 C.ar      1 FNI         0.0092
     16 C16        79.8430    5.5250   -7.6310 C.ar      1 FNI        -0.0393
     17 C17        80.9190    6.4120   -7.8340 C.ar      1 FNI        -0.0419
     18 C18        78.7950    3.7230   -6.3540 C.ar      1 FNI         0.0957
     19 C19        77.6890    3.7530   -7.2290 C.ar      1 FNI        -0.0384
     20 C20        77.6620    4.6690   -8.3030 C.ar      1 FNI        -0.0789
     21 C21        78.7390    5.5570   -8.5060 C.ar      1 FNI        -0.0753
     22 O22        85.7660    6.7680   -8.1670 O.2       1 FNI        -0.3803
     23 O23        78.8180    2.8300   -5.3110 O.3       1 FNI        -0.3291
     24 N24        86.9590    8.7190   -8.1670 N.am      1 FNI        -0.2112
     25 C25        88.3110    8.3040   -8.0870 C.ar      1 FNI         0.1563
     26 N26        89.3100    9.2030   -8.2530 N.ar      1 FNI        -0.2511
     27 C27        90.5700    8.7380   -8.1670 C.ar      1 FNI         0.0685
     28 N28        90.9260    7.4530   -7.9290 N.ar      1 FNI        -0.2867
     29 C29        89.9430    6.5360   -7.7600 C.ar      1 FNI         0.0108
     30 C30        88.5930    6.9370   -7.8340 C.ar      1 FNI         0.0103
     31 H          79.6687   11.1996   -8.2945 H         1 FNI         0.0706
     32 H          83.4299   12.3185   -9.8414 H         1 FNI         0.0783
     33 H          80.5694    9.0355   -7.4129 H         1 FNI         0.0670
     34 H          83.8750    6.8805   -6.5751 H         1 FNI         0.2055
     35 H          82.9099    5.4450   -5.2084 H         1 FNI         0.0551
     36 H          81.0002    3.8702   -4.8533 H         1 FNI         0.0622
     37 H          80.8979    7.1191   -8.6632 H         1 FNI         0.0449
     38 H          76.8546    3.0685   -7.0759 H         1 FNI         0.0465
     39 H          76.8061    4.6901   -8.9776 H         1 FNI         0.0570
     40 H          78.7173    6.2641   -9.3352 H         1 FNI         0.0457
     41 H          78.0681    2.9938   -4.7344 H         1 FNI         0.2515
     42 H          86.8209    9.7293   -8.1911 H         1 FNI         0.2348
     43 H          91.3758    9.4598   -8.3008 H         1 FNI         0.1074
     44 H          90.1945    5.4930   -7.5677 H         1 FNI         0.0871
     45 H          87.7872    6.2153   -7.7003 H         1 FNI         0.0664
@<TRIPOS>BOND
     1    1    2 ar 
     2    1    6 ar 
     3    2    3 ar 
     4    3    4 ar 
     5    4    5 ar 
     6    4    7 1  
     7    5    6 ar 
     8    5    9 1  
     9    7    8 1  
    10    8    9 2  
    11    8   10 1  
    12    9   11 1  
    13   10   22 2  
    14   10   24 am 
    15   11   12 1  
    16   12   13 ar 
    17   12   17 ar 
    18   13   14 ar 
    19   14   15 ar 
    20   15   16 ar 
    21   15   18 ar 
    22   16   17 ar 
    23   16   21 ar 
    24   18   19 ar 
    25   18   23 1  
    26   19   20 ar 
    27   20   21 ar 
    28   24   25 1  
    29   25   26 ar 
    30   25   30 ar 
    31   26   27 ar 
    32   27   28 ar 
    33   28   29 ar 
    34   29   30 ar 
    35    1   31 1  
    36    3   32 1  
    37    6   33 1  
    38   11   34 1  
    39   13   35 1  
    40   14   36 1  
    41   17   37 1  
    42   19   38 1  
    43   20   39 1  
    44   21   40 1  
    45   23   41 1  
    46   24   42 1  
    47   27   43 1  
    48   29   44 1  
    49   30   45 1  
@<TRIPOS>SUBSTRUCTURE
     1 FNI         1

