### 
### Created by X-TOOL on Mon Sep 10 21:13:05 2018
### 

@<TRIPOS>MOLECULE
3ppm_ligand
   46    48     1     0     0
SMALL
GAST_HUCK


@<TRIPOS>ATOM
      1 N1         32.5530  -38.9130    7.6590 N.ar      1 JG1        -0.2807
      2 C2         33.3950  -39.9450    7.8620 C.ar      1 JG1         0.1183
      3 C3         32.9480  -41.0900    8.5190 C.ar      1 JG1        -0.0166
      4 C4         31.6140  -41.1470    8.9280 C.ar      1 JG1        -0.0383
      5 C5         30.7620  -40.0650    8.6830 C.ar      1 JG1        -0.0311
      6 C6         31.2820  -38.9480    8.0330 C.ar      1 JG1         0.0142
      7 C7         34.7270  -39.8840    7.4470 C.2       1 JG1         0.2468
      8 N8         35.4270  -38.9000    6.8570 N.2       1 JG1        -0.2133
      9 N9         36.6060  -39.2610    6.6730 N.2       1 JG1        -0.2049
     10 C10        36.7190  -40.5270    7.0760 C.2       1 JG1         0.2819
     11 O11        35.5490  -40.9460    7.6310 O.3       1 JG1        -0.1753
     12 C12        37.9700  -41.3810    7.1060 C.2       1 JG1         0.2015
     13 C13        39.3180  -40.7480    6.7250 C.3       1 JG1         0.0314
     14 O14        37.8830  -42.5650    7.4460 O.2       1 JG1        -0.3615
     15 C15        40.4330  -41.7670    6.5250 C.3       1 JG1        -0.0372
     16 C16        41.7410  -41.0350    6.1990 C.3       1 JG1        -0.0509
     17 C17        42.8790  -42.0100    5.8940 C.3       1 JG1        -0.0511
     18 C18        43.2100  -42.9790    7.0220 C.3       1 JG1        -0.0433
     19 C19        44.3560  -43.8870    6.5650 C.3       1 JG1        -0.0192
     20 C20        44.7420  -44.9100    7.6380 C.ar      1 JG1        -0.0430
     21 C21        44.9920  -46.2280    7.2710 C.ar      1 JG1        -0.0603
     22 C22        45.3480  -47.1690    8.2330 C.ar      1 JG1        -0.0686
     23 C23        45.4420  -46.7960    9.5690 C.ar      1 JG1        -0.0687
     24 C24        45.1830  -45.4810    9.9370 C.ar      1 JG1        -0.0686
     25 C25        44.8370  -44.5380    8.9720 C.ar      1 JG1        -0.0603
     26 H1         33.6212  -41.9183    8.7084 H         1 JG1         0.0752
     27 H2         31.2391  -42.0288    9.4348 H         1 JG1         0.0743
     28 H3         29.7232  -40.0949    8.9912 H         1 JG1         0.0732
     29 H4         30.6401  -38.0982    7.8309 H         1 JG1         0.0838
     30 H5         39.6174  -40.0573    7.5270 H         1 JG1         0.0490
     31 H6         39.1868  -40.1871    5.7879 H         1 JG1         0.0490
     32 H7         40.1715  -42.4385    5.6939 H         1 JG1         0.0289
     33 H8         40.5616  -42.3555    7.4454 H         1 JG1         0.0289
     34 H9         42.0259  -40.4145    7.0615 H         1 JG1         0.0267
     35 H10        41.5793  -40.3914    5.3217 H         1 JG1         0.0267
     36 H11        43.7822  -41.4229    5.6713 H         1 JG1         0.0267
     37 H12        42.5970  -42.5990    5.0088 H         1 JG1         0.0267
     38 H13        42.3256  -43.5889    7.2583 H         1 JG1         0.0287
     39 H14        43.5169  -42.4163    7.9160 H         1 JG1         0.0287
     40 H15        45.2333  -43.2638    6.3369 H         1 JG1         0.0426
     41 H16        44.0426  -44.4250    5.6582 H         1 JG1         0.0426
     42 H17        44.9093  -46.5237    6.2314 H         1 JG1         0.0557
     43 H18        45.5519  -48.1927    7.9404 H         1 JG1         0.0599
     44 H19        45.7161  -47.5276   10.3204 H         1 JG1         0.0559
     45 H20        45.2505  -45.1883   10.9785 H         1 JG1         0.0599
     46 H21        44.6417  -43.5123    9.2631 H         1 JG1         0.0557
@<TRIPOS>BOND
     1    1    2 ar 
     2    1    6 ar 
     3    2    3 ar 
     4    2    7 1  
     5    3    4 ar 
     6    4    5 ar 
     7    5    6 ar 
     8    7    8 2  
     9    7   11 1  
    10    8    9 1  
    11    9   10 2  
    12   10   11 1  
    13   10   12 1  
    14   12   13 1  
    15   12   14 2  
    16   13   15 1  
    17   15   16 1  
    18   16   17 1  
    19   17   18 1  
    20   18   19 1  
    21   19   20 1  
    22   20   21 ar 
    23   20   25 ar 
    24   21   22 ar 
    25   22   23 ar 
    26   23   24 ar 
    27   24   25 ar 
    28    3   26 1  
    29    4   27 1  
    30    5   28 1  
    31    6   29 1  
    32   13   30 1  
    33   13   31 1  
    34   15   32 1  
    35   15   33 1  
    36   16   34 1  
    37   16   35 1  
    38   17   36 1  
    39   17   37 1  
    40   18   38 1  
    41   18   39 1  
    42   19   40 1  
    43   19   41 1  
    44   21   42 1  
    45   22   43 1  
    46   23   44 1  
    47   24   45 1  
    48   25   46 1  
@<TRIPOS>SUBSTRUCTURE
     1 JG1         1

