### 
### Created by X-TOOL on Mon Sep 10 21:13:07 2018
### 

@<TRIPOS>MOLECULE
3ppo_ligand
   24    23     1     0     0
SMALL
GAST_HUCK


@<TRIPOS>ATOM
      1 C01        -1.7850   28.8330   10.4460 C.3       1 DCK        -0.0399
      2 N02        -1.2470   29.6110    9.3430 N.4       1 DCK         0.2530
      3 C03         0.1040   29.1220    9.2440 C.3       1 DCK        -0.0399
      4 C04        -2.0410   29.2940    8.1790 C.3       1 DCK        -0.0399
      5 C05        -1.1380   31.0360    9.6090 C.3       1 DCK         0.0443
      6 C06        -2.0710   32.1070    9.1030 C.2       1 DCK         0.1624
      7 O07        -3.3200   31.9090    8.9030 O.2       1 DCK        -0.3836
      8 C08        -1.7240   33.5170    9.5270 C.3       1 DCK         0.0788
      9 C09        -2.9330   34.3940    9.6910 C.2       1 DCK         0.0531
     10 O10        -4.0310   34.0050    9.7900 O.co2     1 DCK        -0.5660
     11 O11        -2.5970   35.6490    9.4650 O.co2     1 DCK        -0.5660
     12 H          -1.1397   28.9456   11.3172 H         1 DCK         0.0778
     13 H          -2.7868   29.1895   10.6858 H         1 DCK         0.0778
     14 H          -1.8307   27.7823   10.1595 H         1 DCK         0.0778
     15 H           0.6168   29.6370    8.4317 H         1 DCK         0.0778
     16 H           0.6266   29.3095   10.1820 H         1 DCK         0.0778
     17 H           0.0875   28.0507    9.0437 H         1 DCK         0.0778
     18 H          -3.0525   29.6765    8.3156 H         1 DCK         0.0778
     19 H          -1.5928   29.7546    7.2986 H         1 DCK         0.0778
     20 H          -2.0748   28.2125    8.0474 H         1 DCK         0.0778
     21 H          -0.2085   31.2889    9.0989 H         1 DCK         0.1056
     22 H          -1.3113   31.0773   10.6843 H         1 DCK         0.1056
     23 H          -1.0994   33.9542    8.7480 H         1 DCK         0.0660
     24 H          -1.2215   33.4596   10.4926 H         1 DCK         0.0660
@<TRIPOS>BOND
     1    1    2 1  
     2    2    3 1  
     3    2    4 1  
     4    2    5 1  
     5    5    6 1  
     6    6    7 2  
     7    6    8 1  
     8    8    9 1  
     9    9   10 ar 
    10    9   11 ar 
    11    1   12 1  
    12    1   13 1  
    13    1   14 1  
    14    3   15 1  
    15    3   16 1  
    16    3   17 1  
    17    4   18 1  
    18    4   19 1  
    19    4   20 1  
    20    5   21 1  
    21    5   22 1  
    22    8   23 1  
    23    8   24 1  
@<TRIPOS>SUBSTRUCTURE
     1 DCK         1

