### 
### Created by X-TOOL on Mon Sep 10 21:13:07 2018
### 

@<TRIPOS>MOLECULE
3ppp_ligand
   19    18     1     0     0
SMALL
GAST_HUCK


@<TRIPOS>ATOM
      1 N         -29.6230  -29.7550    9.1960 N.4       1 BET         0.2484
      2 CA        -29.8090  -31.1510    8.8750 C.3       1 BET         0.0222
      3 C         -28.7590  -32.2140    9.2190 C.2       1 BET         0.0813
      4 O1        -28.6610  -33.2630    8.6470 O.co2     1 BET        -0.5645
      5 O2        -28.0380  -31.8880   10.2050 O.co2     1 BET        -0.5645
      6 C1        -30.7240  -28.9600    8.5780 C.3       1 BET        -0.0405
      7 C2        -28.3650  -29.2480    8.6890 C.3       1 BET        -0.0405
      8 C3        -29.6960  -29.5750   10.6270 C.3       1 BET        -0.0405
      9 H1        -29.9496  -31.1996    7.7851 H         1 BET         0.0989
     10 H2        -30.7365  -31.4611    9.3786 H         1 BET         0.0989
     11 H3        -30.5876  -27.8955    8.8192 H         1 BET         0.0778
     12 H4        -31.6912  -29.3043    8.9729 H         1 BET         0.0778
     13 H5        -30.7049  -29.0940    7.4864 H         1 BET         0.0778
     14 H6        -27.5349  -29.8190    9.1306 H         1 BET         0.0778
     15 H7        -28.2629  -28.1860    8.9569 H         1 BET         0.0778
     16 H8        -28.3414  -29.3539    7.5944 H         1 BET         0.0778
     17 H9        -30.6559  -29.9644   10.9970 H         1 BET         0.0778
     18 H10       -29.6180  -28.5042   10.8663 H         1 BET         0.0778
     19 H11       -28.8698  -30.1193   11.1077 H         1 BET         0.0778
@<TRIPOS>BOND
     1    1    2 1  
     2    1    6 1  
     3    1    7 1  
     4    1    8 1  
     5    2    3 1  
     6    3    4 ar 
     7    3    5 ar 
     8    2    9 1  
     9    2   10 1  
    10    6   11 1  
    11    6   12 1  
    12    6   13 1  
    13    7   14 1  
    14    7   15 1  
    15    7   16 1  
    16    8   17 1  
    17    8   18 1  
    18    8   19 1  
@<TRIPOS>SUBSTRUCTURE
     1 BET         1

