### 
### Created by X-TOOL on Mon Sep 10 21:13:07 2018
### 

@<TRIPOS>MOLECULE
3ppq_ligand
   21    20     1     0     0
SMALL
GAST_HUCK


@<TRIPOS>ATOM
      1 C4         28.9040   30.8410    8.9780 C.3       1 CHT         0.0841
      2 C5         30.0830   29.8850    8.7660 C.3       1 CHT        -0.0071
      3 C6         29.5410   28.0580   10.0290 C.3       1 CHT        -0.0417
      4 C7         30.9910   27.8090    8.2280 C.3       1 CHT        -0.0417
      5 C8         28.7450   27.9100    7.8140 C.3       1 CHT        -0.0417
      6 O6         28.0600   30.8920    8.0910 O.3       1 CHT        -0.3898
      7 N1         29.7910   28.4470    8.6650 N.4       1 CHT         0.2385
      8 H1         29.3163   31.8533    9.1016 H         1 CHT         0.0610
      9 H2         28.3936   30.5374    9.9039 H         1 CHT         0.0610
     10 H3         30.7719   30.0210    9.6127 H         1 CHT         0.0837
     11 H4         30.5843   30.1841    7.8337 H         1 CHT         0.0837
     12 H5         29.3088   26.9835   10.0671 H         1 CHT         0.0778
     13 H6         28.6892   28.6313   10.4236 H         1 CHT         0.0778
     14 H7         30.4340   28.2620   10.6380 H         1 CHT         0.0778
     15 H8         31.1994   28.0942    7.1863 H         1 CHT         0.0778
     16 H9         30.8703   26.7175    8.2922 H         1 CHT         0.0778
     17 H10        31.8279   28.1237    8.8687 H         1 CHT         0.0778
     18 H11        27.7798   28.3582    8.0923 H         1 CHT         0.0778
     19 H12        28.6928   26.8187    7.9414 H         1 CHT         0.0778
     20 H13        28.9696   28.1462    6.7634 H         1 CHT         0.0778
     21 H14        27.3842   31.5140    8.3338 H         1 CHT         0.2096
@<TRIPOS>BOND
     1    1    2 1  
     2    1    6 1  
     3    2    7 1  
     4    7    3 1  
     5    7    4 1  
     6    7    5 1  
     7    1    8 1  
     8    1    9 1  
     9    2   10 1  
    10    2   11 1  
    11    3   12 1  
    12    3   13 1  
    13    3   14 1  
    14    4   15 1  
    15    4   16 1  
    16    4   17 1  
    17    5   18 1  
    18    5   19 1  
    19    5   20 1  
    20    6   21 1  
@<TRIPOS>SUBSTRUCTURE
     1 CHT         1

