### 
### Created by X-TOOL on Mon Sep 10 21:13:07 2018
### 

@<TRIPOS>MOLECULE
3ppr_ligand
   23    23     1     0     0
SMALL
GAST_HUCK


@<TRIPOS>ATOM
      1 O          31.7120   12.8040    9.9750 O.co2     1 4CS        -0.5643
      2 C          32.5830   13.2390    9.3870 C.2       1 4CS         0.0849
      3 OXT        33.7780   12.6640    9.4210 O.co2     1 4CS        -0.5643
      4 CA         32.5220   14.6700    8.8700 C.3       1 4CS         0.0404
      5 CB         33.7870   15.3830    9.2650 C.3       1 4CS         0.0428
      6 CAD        33.7550   16.8290    8.8800 C.3       1 4CS        -0.0215
      7 NAG        32.4780   17.4300    9.1480 N.4       1 4CS         0.2627
      8 CAI        31.3980   16.6850    9.6700 C.3       1 4CS        -0.0076
      9 CAA        30.1910   17.3770   10.2750 C.3       1 4CS         0.0236
     10 N          31.3440   15.2880    9.3970 N.4       1 4CS         0.2761
     11 H1         32.4535   14.6612    7.7722 H         1 4CS         0.1029
     12 H2         34.6389   14.9002    8.7639 H         1 4CS         0.0391
     13 H3         33.9122   15.3078   10.3552 H         1 4CS         0.0391
     14 H4         33.9689   16.9148    7.8044 H         1 4CS         0.0819
     15 H5         34.5267   17.3656    9.4513 H         1 4CS         0.0819
     16 H6         32.1583   17.8165    8.2736 H         1 4CS         0.2072
     17 H7         32.6489   18.1769    9.8030 H         1 4CS         0.2072
     18 H8         31.8829   16.5459   10.6475 H         1 4CS         0.1468
     19 H9         29.4698   16.6214   10.6199 H         1 4CS         0.0344
     20 H10        29.7168   18.0170    9.5164 H         1 4CS         0.0344
     21 H11        30.5112   17.9942   11.1274 H         1 4CS         0.0344
     22 H12        31.1189   14.8204   10.2611 H         1 4CS         0.2090
     23 H13        30.6019   15.1393    8.7313 H         1 4CS         0.2090
@<TRIPOS>BOND
     1    1    2 ar 
     2    2    3 ar 
     3    2    4 1  
     4    4    5 1  
     5    4   10 1  
     6    5    6 1  
     7    6    7 1  
     8    7    8 1  
     9    8    9 1  
    10    8   10 1  
    11    4   11 1  
    12    5   12 1  
    13    5   13 1  
    14    6   14 1  
    15    6   15 1  
    16    7   16 1  
    17    7   17 1  
    18    8   18 1  
    19    9   19 1  
    20    9   20 1  
    21    9   21 1  
    22   10   22 1  
    23   10   23 1  
@<TRIPOS>SUBSTRUCTURE
     1 4CS         1

