### 
### Created by X-TOOL on Mon Sep 10 21:13:05 2018
### 

@<TRIPOS>MOLECULE
3pr0_ligand
   48    50     1     0     0
SMALL
GAST_HUCK


@<TRIPOS>ATOM
      1 N1        -14.2230   35.8300   -6.1820 N.ar      1 JG2        -0.2838
      2 C2        -14.4570   37.1550   -6.2180 C.ar      1 JG2         0.1116
      3 C3        -15.2310   37.7190   -7.2290 C.ar      1 JG2        -0.0192
      4 C4        -15.7660   36.8870   -8.2030 C.ar      1 JG2        -0.0400
      5 C5        -15.5040   35.5200   -8.1330 C.ar      1 JG2        -0.0327
      6 C6        -14.7210   35.0190   -7.0990 C.ar      1 JG2         0.0122
      7 C7        -13.8940   37.9570   -5.2330 C.2       1 JG2         0.2366
      8 N8        -13.1320   37.5540   -4.2300 N.2       1 JG2        -0.2382
      9 N9        -12.7950   38.5260   -3.5490 N.2       1 JG2        -0.2401
     10 C10       -13.3030   39.6280   -4.0720 C.2       1 JG2         0.2317
     11 O11       -14.0310   39.3150   -5.1670 O.3       1 JG2        -0.1846
     12 C12       -13.0860   41.0180   -3.5040 C.3       1 JG2         0.1486
     13 C13       -14.2720   41.9250   -3.8840 C.3       1 JG2        -0.0077
     14 O14       -11.8730   41.5100   -4.0950 O.3       1 JG2        -0.3690
     15 C15       -14.1510   43.3330   -3.2620 C.3       1 JG2        -0.0481
     16 C16       -15.3370   44.2350   -3.6560 C.3       1 JG2        -0.0526
     17 C17       -15.3380   44.4960   -5.1560 C.3       1 JG2        -0.0513
     18 C18       -16.5270   45.3260   -5.6580 C.3       1 JG2        -0.0433
     19 C19       -16.3060   45.5090   -7.1600 C.3       1 JG2        -0.0192
     20 C20       -17.4280   46.1920   -7.9380 C.ar      1 JG2        -0.0430
     21 C21       -17.1530   46.7070   -9.2080 C.ar      1 JG2        -0.0603
     22 C22       -18.1650   47.2940   -9.9610 C.ar      1 JG2        -0.0686
     23 C23       -19.4600   47.3390   -9.4480 C.ar      1 JG2        -0.0687
     24 C24       -19.7390   46.8030   -8.1880 C.ar      1 JG2        -0.0686
     25 C25       -18.7270   46.2160   -7.4340 C.ar      1 JG2        -0.0603
     26 H         -15.4133   38.7933   -7.2551 H         1 JG2         0.0737
     27 H         -16.3790   37.2949   -9.0067 H         1 JG2         0.0739
     28 H         -15.9115   34.8458   -8.8863 H         1 JG2         0.0719
     29 H         -14.5165   33.9498   -7.0443 H         1 JG2         0.0833
     30 H         -13.0141   41.0021   -2.4165 H         1 JG2         0.0874
     31 H         -15.1855   41.4649   -3.5073 H         1 JG2         0.0322
     32 H         -14.2830   42.0328   -4.9686 H         1 JG2         0.0322
     33 H         -11.1434   40.9361   -3.8502 H         1 JG2         0.2143
     34 H         -13.2335   43.7927   -3.6293 H         1 JG2         0.0268
     35 H         -14.1444   43.2294   -2.1770 H         1 JG2         0.0268
     36 H         -15.2457   45.1866   -3.1324 H         1 JG2         0.0265
     37 H         -16.2664   43.7344   -3.3844 H         1 JG2         0.0265
     38 H         -15.3968   43.5252   -5.6482 H         1 JG2         0.0267
     39 H         -14.4354   45.0640   -5.3811 H         1 JG2         0.0267
     40 H         -16.5829   46.2868   -5.1464 H         1 JG2         0.0287
     41 H         -17.4733   44.8243   -5.4556 H         1 JG2         0.0287
     42 H         -16.2193   44.5052   -7.5759 H         1 JG2         0.0426
     43 H         -15.4341   46.1556   -7.2593 H         1 JG2         0.0426
     44 H         -16.1416   46.6485   -9.6101 H         1 JG2         0.0557
     45 H         -17.9471   47.7146  -10.9427 H         1 JG2         0.0599
     46 H         -20.2593   47.7946  -10.0325 H         1 JG2         0.0559
     47 H         -20.7543   46.8448   -7.7937 H         1 JG2         0.0599
     48 H         -18.9481   45.7798   -6.4599 H         1 JG2         0.0557
@<TRIPOS>BOND
     1    1    2 ar 
     2    1    6 ar 
     3    2    3 ar 
     4    2    7 1  
     5    3    4 ar 
     6    4    5 ar 
     7    5    6 ar 
     8    7    8 2  
     9    7   11 1  
    10    8    9 1  
    11    9   10 2  
    12   10   11 1  
    13   10   12 1  
    14   12   13 1  
    15   12   14 1  
    16   13   15 1  
    17   15   16 1  
    18   16   17 1  
    19   17   18 1  
    20   18   19 1  
    21   19   20 1  
    22   20   21 ar 
    23   20   25 ar 
    24   21   22 ar 
    25   22   23 ar 
    26   23   24 ar 
    27   24   25 ar 
    28    3   26 1  
    29    4   27 1  
    30    5   28 1  
    31    6   29 1  
    32   12   30 1  
    33   13   31 1  
    34   13   32 1  
    35   14   33 1  
    36   15   34 1  
    37   15   35 1  
    38   16   36 1  
    39   16   37 1  
    40   17   38 1  
    41   17   39 1  
    42   18   40 1  
    43   18   41 1  
    44   19   42 1  
    45   19   43 1  
    46   21   44 1  
    47   22   45 1  
    48   23   46 1  
    49   24   47 1  
    50   25   48 1  
@<TRIPOS>SUBSTRUCTURE
     1 JG2         1

