### 
### Created by X-TOOL on Mon Sep 10 21:13:08 2018
### 

@<TRIPOS>MOLECULE
3prf_ligand
   35    38     1     0     0
SMALL
GAST_HUCK


@<TRIPOS>ATOM
      1 C1         78.8250    4.9950   -7.2210 C.ar      1 FP3         0.0546
      2 C2         79.1310    5.9280   -8.2260 C.ar      1 FP3        -0.0665
      3 C3         80.3980    6.5330   -8.2170 C.ar      1 FP3        -0.0500
      4 C4         81.3510    6.2280   -7.2210 C.ar      1 FP3         0.0490
      5 C5         81.0400    5.2980   -6.2140 C.ar      1 FP3        -0.0117
      6 C6         79.7720    4.6810   -6.2230 C.ar      1 FP3         0.0916
      7 N7         82.5490    6.8380   -7.2290 N.pl3     1 FP3        -0.2783
      8 C8         80.3340   10.6880   -8.4660 C.ar      1 FP3        -0.0038
      9 N9         81.1470   11.5950   -9.0550 N.ar      1 FP3        -0.3100
     10 C10        82.4590   11.3100   -9.2150 C.ar      1 FP3         0.0427
     11 C11        82.9700   10.0750   -8.7700 C.ar      1 FP3         0.1517
     12 C12        82.1430    9.1350   -8.1630 C.ar      1 FP3         0.0538
     13 C13        80.7780    9.4310   -7.9960 C.ar      1 FP3        -0.0375
     14 O14        84.2630    9.6190   -8.8480 O.3       1 FP3        -0.2500
     15 C15        84.2040    8.3340   -8.2550 C.2       1 FP3         0.1837
     16 C16        82.9340    7.9860   -7.8220 C.2       1 FP3         0.1119
     17 C17        85.3820    7.5210   -8.1500 C.ar      1 FP3         0.1428
     18 N18        86.5780    8.1370   -8.3140 N.ar      1 FP3        -0.2710
     19 C19        87.7090    7.3990   -8.2290 C.ar      1 FP3         0.0185
     20 C20        87.6300    6.0150   -7.9750 C.ar      1 FP3        -0.0170
     21 C21        86.3430    5.4510   -7.8180 C.ar      1 FP3         0.0185
     22 N22        85.2200    6.2010   -7.9090 N.ar      1 FP3        -0.2710
     23 O23        79.4590    3.7640   -5.2480 O.3       1 FP3        -0.3353
     24 CL1        77.2740    4.2340   -7.2140 Cl        1 FP3        -0.0896
     25 H          78.4006    6.1767   -8.9959 H         1 FP3         0.0566
     26 H          80.6511    7.2531   -8.9951 H         1 FP3         0.0442
     27 H          81.7673    5.0576   -5.4385 H         1 FP3         0.0448
     28 H          83.2804    6.3576   -6.7049 H         1 FP3         0.2082
     29 H          79.2802   10.9401   -8.3476 H         1 FP3         0.0709
     30 H          83.1209   12.0354   -9.6880 H         1 FP3         0.0782
     31 H          80.0944    8.7239   -7.5260 H         1 FP3         0.0677
     32 H          88.6812    7.8750   -8.3570 H         1 FP3         0.0916
     33 H          88.5282    5.4018   -7.9022 H         1 FP3         0.0711
     34 H          86.2528    4.3833   -7.6183 H         1 FP3         0.0916
     35 H          79.5124    4.1839   -4.3864 H         1 FP3         0.2482
@<TRIPOS>BOND
     1    2    1 ar 
     2    6    1 ar 
     3    1   24 1  
     4    3    2 ar 
     5    4    3 ar 
     6    4    5 ar 
     7    7    4 1  
     8    5    6 ar 
     9    6   23 1  
    10   16    7 1  
    11    8    9 ar 
    12   13    8 ar 
    13   10    9 ar 
    14   11   10 ar 
    15   12   11 ar 
    16   11   14 1  
    17   12   13 ar 
    18   12   16 1  
    19   14   15 1  
    20   15   16 2  
    21   15   17 1  
    22   17   18 ar 
    23   17   22 ar 
    24   18   19 ar 
    25   19   20 ar 
    26   20   21 ar 
    27   21   22 ar 
    28    2   25 1  
    29    3   26 1  
    30    5   27 1  
    31    7   28 1  
    32    8   29 1  
    33   10   30 1  
    34   13   31 1  
    35   19   32 1  
    36   20   33 1  
    37   21   34 1  
    38   23   35 1  
@<TRIPOS>SUBSTRUCTURE
     1 FP3         1

