### 
### Created by X-TOOL on Mon Sep 10 21:13:08 2018
### 

@<TRIPOS>MOLECULE
3prz_ligand
   32    34     1     0     0
SMALL
GAST_HUCK


@<TRIPOS>ATOM
      1 C1         45.0840   11.6540   28.1400 C.3       1 3RZ        -0.0011
      2 N2         47.0800   12.8710   28.6430 N.ar      1 3RZ        -0.2521
      3 C3         47.6880   13.8510   29.3170 C.ar      1 3RZ         0.1384
      4 N4         49.0510   14.0620   29.0950 N.pl3     1 3RZ        -0.3065
      5 C5         47.0000   14.6500   30.2100 C.ar      1 3RZ         0.0552
      6 C6         45.6410   14.4230   30.3900 C.ar      1 3RZ         0.0533
      7 C7         44.9730   15.2460   31.2890 C.ar      1 3RZ         0.0726
      8 N8         45.0210   13.4490   29.7120 N.ar      1 3RZ        -0.2961
      9 C9         45.7740   12.7280   28.8800 C.ar      1 3RZ         0.0729
     10 C10        46.9750   16.4670   31.7720 C.ar      1 3RZ        -0.0498
     11 C11        45.6300   16.2520   31.9720 C.ar      1 3RZ        -0.0372
     12 C12        47.6550   15.6570   30.8910 C.ar      1 3RZ        -0.0376
     13 C13        43.5350   15.0910   31.5970 C.2       1 3RZ         0.2350
     14 O14        43.0290   15.8360   32.4270 O.2       1 3RZ        -0.3750
     15 N15        42.8810   14.0770   30.9200 N.am      1 3RZ        -0.2061
     16 C16        41.5970   13.6710   31.2610 C.2       1 3RZ         0.1785
     17 C17        40.8200   12.7810   30.4790 C.2       1 3RZ        -0.0347
     18 C18        39.6420   12.6310   31.1640 C.2       1 3RZ        -0.0324
     19 N19        39.7550   13.4130   32.2740 N.2       1 3RZ        -0.2505
     20 N20        40.9330   14.0460   32.3640 N.pl3     1 3RZ        -0.2057
     21 H          44.6542   10.9451   28.8477 H         1 3RZ         0.0467
     22 H          44.2910   12.0864   27.5299 H         1 3RZ         0.0467
     23 H          45.7989   11.1399   27.4976 H         1 3RZ         0.0467
     24 H          49.5566   13.4747   28.4318 H         1 3RZ         0.1882
     25 H          49.5406   14.8034   29.5961 H         1 3RZ         0.1882
     26 H          47.4931   17.2658   32.3027 H         1 3RZ         0.0622
     27 H          45.0798   16.8791   32.6734 H         1 3RZ         0.0732
     28 H          48.7217   15.8121   30.7292 H         1 3RZ         0.0727
     29 H          43.3566   13.6129   30.1461 H         1 3RZ         0.2319
     30 H          41.0993   12.3149   29.5341 H         1 3RZ         0.0156
     31 H          38.7903   12.0133   30.8792 H         1 3RZ         0.0590
     32 H          41.2521   14.6713   33.1039 H         1 3RZ         0.2483
@<TRIPOS>BOND
     1    9    1 1  
     2    2    3 ar 
     3    2    9 ar 
     4    3    4 1  
     5    3    5 ar 
     6    5    6 ar 
     7    5   12 ar 
     8    6    7 ar 
     9    6    8 ar 
    10    7   11 ar 
    11    7   13 1  
    12    8    9 ar 
    13   11   10 ar 
    14   10   12 ar 
    15   13   14 2  
    16   13   15 am 
    17   15   16 1  
    18   16   17 2  
    19   16   20 1  
    20   17   18 1  
    21   18   19 2  
    22   19   20 1  
    23    1   21 1  
    24    1   22 1  
    25    1   23 1  
    26    4   24 1  
    27    4   25 1  
    28   10   26 1  
    29   11   27 1  
    30   12   28 1  
    31   15   29 1  
    32   17   30 1  
    33   18   31 1  
    34   20   32 1  
@<TRIPOS>SUBSTRUCTURE
     1 3RZ         1

