### 
### Created by X-TOOL on Mon Sep 10 21:13:06 2018
### 

@<TRIPOS>MOLECULE
3ps1_ligand
   45    46     1     0     0
SMALL
GAST_HUCK


@<TRIPOS>ATOM
      1 C10        31.1800   -9.5670  -10.7370 C.ar      1 ZH2        -0.0417
      2 C13        31.2290   -7.3220  -13.8030 C.1       1 ZH2        -0.0524
      3 C15        30.5710   -6.1010  -16.1550 C.1       1 ZH2        -0.0146
      4 C17        29.8660   -4.8160  -18.4500 C.ar      1 ZH2         0.0145
      5 C20        29.1240   -3.4550  -20.7630 C.ar      1 ZH2         0.0378
      6 C22        30.4690   -3.4720  -20.3650 C.ar      1 ZH2        -0.0416
      7 C24        32.6250   -7.3850  -11.7380 C.ar      1 ZH2        -0.0418
      8 C26        30.7580  -10.1020   -5.7090 C.3       1 ZH2         0.0932
      9 C28        29.3580  -10.0740   -6.2250 C.3       1 ZH2        -0.0345
     10 O01        30.3710  -12.7360   -7.2580 O.2       1 ZH2        -0.3255
     11 C02        31.3690  -12.3010   -6.7130 C.2       1 ZH2         0.3150
     12 N03        32.2980  -13.2280   -6.1670 N.2       1 ZH2         0.0375
     13 O04        31.9980  -14.4920   -6.2370 O.2       1 ZH2        -0.1732
     14 C05        31.6510  -10.8280   -6.6770 C.3       1 ZH2         0.1701
     15 N06        31.4730  -10.3240   -8.0220 N.am      1 ZH2        -0.2620
     16 C07        32.5160   -9.5750   -8.6470 C.2       1 ZH2         0.2065
     17 O08        33.4560   -9.1640   -7.9950 O.2       1 ZH2        -0.3851
     18 C09        32.2340   -9.0240  -10.0010 C.ar      1 ZH2         0.0490
     19 C11        30.8450   -9.0290  -11.9840 C.ar      1 ZH2        -0.0418
     20 C12        31.5880   -7.9460  -12.4850 C.ar      1 ZH2         0.0281
     21 C14        30.9410   -6.7910  -14.8690 C.1       1 ZH2        -0.0115
     22 C16        30.2500   -5.5240  -17.1860 C.1       1 ZH2        -0.0616
     23 C18        28.5190   -4.7910  -18.8360 C.ar      1 ZH2        -0.0563
     24 C19        28.1510   -4.1140  -19.9990 C.ar      1 ZH2        -0.0416
     25 N21        28.7430   -2.7540  -21.9460 N.pl3     1 ZH2        -0.3355
     26 C23        30.8400   -4.1480  -19.2030 C.ar      1 ZH2        -0.0563
     27 C25        32.9650   -7.9290  -10.4910 C.ar      1 ZH2        -0.0417
     28 O27        30.7620  -10.7310   -4.4920 O.3       1 ZH2        -0.3873
     29 H1         30.6201  -10.4069  -10.3418 H         1 ZH2         0.0666
     30 H2         31.2180   -2.9610  -20.9591 H         1 ZH2         0.0523
     31 H3         33.1676   -6.5287  -12.1218 H         1 ZH2         0.0636
     32 H4         31.1233   -9.0716   -5.5875 H         1 ZH2         0.0640
     33 H5         28.7142   -9.5411   -5.5097 H         1 ZH2         0.0257
     34 H6         28.9927  -11.1040   -6.3503 H         1 ZH2         0.0257
     35 H7         29.3351   -9.5562   -7.1952 H         1 ZH2         0.0257
     36 H8         32.6946  -10.6713   -6.3667 H         1 ZH2         0.0836
     37 H9         30.6201  -10.5002   -8.5134 H         1 ZH2         0.1877
     38 H10        30.0227   -9.4421  -12.5569 H         1 ZH2         0.0636
     39 H11        27.7692   -5.2936  -18.2358 H         1 ZH2         0.0603
     40 H12        27.1132   -4.0976  -20.3116 H         1 ZH2         0.0523
     41 H13        29.4559   -2.2689  -22.5093 H         1 ZH2         0.1731
     42 H14        27.7551   -2.7331  -22.2366 H         1 ZH2         0.1731
     43 H15        31.8761   -4.1564  -18.8844 H         1 ZH2         0.0603
     44 H16        33.7808   -7.5102   -9.9130 H         1 ZH2         0.0666
     45 H17        30.1943  -10.2614   -3.8922 H         1 ZH2         0.2101
@<TRIPOS>BOND
     1   18    1 ar 
     2    1   19 ar 
     3   20    2 1  
     4    2   21 3  
     5   21    3 1  
     6    3   22 3  
     7   22    4 1  
     8    4   23 ar 
     9    4   26 ar 
    10    6    5 ar 
    11    5   24 ar 
    12    5   25 1  
    13   26    6 ar 
    14    7   20 ar 
    15   27    7 ar 
    16    8    9 1  
    17   14    8 1  
    18    8   28 1  
    19   11   10 2  
    20   11   12 1  
    21   14   11 1  
    22   12   13 2  
    23   15   14 1  
    24   16   15 am 
    25   16   17 2  
    26   18   16 1  
    27   18   27 ar 
    28   19   20 ar 
    29   23   24 ar 
    30    1   29 1  
    31    6   30 1  
    32    7   31 1  
    33    8   32 1  
    34    9   33 1  
    35    9   34 1  
    36    9   35 1  
    37   14   36 1  
    38   15   37 1  
    39   19   38 1  
    40   23   39 1  
    41   24   40 1  
    42   25   41 1  
    43   25   42 1  
    44   26   43 1  
    45   27   44 1  
    46   28   45 1  
@<TRIPOS>SUBSTRUCTURE
     1 ZH2         1

