### 
### Created by X-TOOL on Mon Sep 10 21:13:08 2018
### 

@<TRIPOS>MOLECULE
3ps6_ligand
   38    40     1     0     0
SMALL
GAST_HUCK


@<TRIPOS>ATOM
      1 C1         44.5940   11.6750   28.3280 C.3       1 3PS        -0.0011
      2 N2         46.6740   12.7840   28.5730 N.ar      1 3PS        -0.2521
      3 C3         47.3750   13.7530   29.1620 C.ar      1 3PS         0.1384
      4 N4         48.7240   13.8890   28.8100 N.pl3     1 3PS        -0.3065
      5 C5         46.7930   14.5890   30.0950 C.ar      1 3PS         0.0552
      6 C6         45.4490   14.4200   30.4010 C.ar      1 3PS         0.0532
      7 C7         44.8570   15.2550   31.3300 C.ar      1 3PS         0.0715
      8 N8         44.7340   13.4660   29.8170 N.ar      1 3PS        -0.2962
      9 C9         45.3990   12.7130   28.9500 C.ar      1 3PS         0.0729
     10 C10        46.9260   16.4180   31.6220 C.ar      1 3PS        -0.0498
     11 C11        45.5950   16.2490   31.9420 C.ar      1 3PS        -0.0373
     12 C12        47.5260   15.5840   30.7030 C.ar      1 3PS        -0.0376
     13 C13        43.4340   15.1010   31.7190 C.2       1 3PS         0.2290
     14 O14        42.9980   15.8250   32.6080 O.2       1 3PS        -0.3771
     15 N15        42.7110   14.1150   31.0460 N.am      1 3PS        -0.2336
     16 C16        41.4540   13.6410   31.3690 C.ar      1 3PS         0.0821
     17 C17        40.6710   12.8660   30.3880 C.ar      1 3PS         0.0196
     18 N18        39.4030   12.4140   30.7320 N.ar      1 3PS        -0.2899
     19 C19        38.8960   12.6760   31.9020 C.ar      1 3PS         0.1488
     20 C20        39.5340   13.3320   32.8750 C.ar      1 3PS        -0.0169
     21 C21        40.8420   13.8070   32.5480 C.ar      1 3PS        -0.0289
     22 O22        37.6700   12.2280   32.3080 O.3       1 3PS        -0.3119
     23 C23        36.6170   13.1830   32.2240 C.3       1 3PS         0.0597
     24 H          44.2026   11.0102   29.0980 H         1 3PS         0.0467
     25 H          43.7663   12.1340   27.7874 H         1 3PS         0.0467
     26 H          45.2116   11.1051   27.6338 H         1 3PS         0.0467
     27 H          49.1382   13.2580   28.1239 H         1 3PS         0.1882
     28 H          49.2921   14.6190   29.2398 H         1 3PS         0.1882
     29 H          47.5037   17.2115   32.0961 H         1 3PS         0.0622
     30 H          45.1252   16.9007   32.6787 H         1 3PS         0.0731
     31 H          48.5803   15.7119   30.4575 H         1 3PS         0.0727
     32 H          43.1582   13.7001   30.2286 H         1 3PS         0.2237
     33 H          41.0834   12.6499   29.4024 H         1 3PS         0.0668
     34 H          39.0861   13.4947   33.8553 H         1 3PS         0.0602
     35 H          41.3856   14.3487   33.3220 H         1 3PS         0.0601
     36 H          36.8569   14.0425   32.8500 H         1 3PS         0.0577
     37 H          36.5029   13.5061   31.1893 H         1 3PS         0.0577
     38 H          35.6880   12.7289   32.5687 H         1 3PS         0.0577
@<TRIPOS>BOND
     1    9    1 1  
     2    2    3 ar 
     3    2    9 ar 
     4    3    4 1  
     5    3    5 ar 
     6    5    6 ar 
     7    5   12 ar 
     8    6    7 ar 
     9    6    8 ar 
    10    7   11 ar 
    11    7   13 1  
    12    8    9 ar 
    13   11   10 ar 
    14   10   12 ar 
    15   13   14 2  
    16   13   15 am 
    17   15   16 1  
    18   16   17 ar 
    19   16   21 ar 
    20   17   18 ar 
    21   18   19 ar 
    22   19   20 ar 
    23   19   22 1  
    24   20   21 ar 
    25   22   23 1  
    26    1   24 1  
    27    1   25 1  
    28    1   26 1  
    29    4   27 1  
    30    4   28 1  
    31   10   29 1  
    32   11   30 1  
    33   12   31 1  
    34   15   32 1  
    35   17   33 1  
    36   20   34 1  
    37   21   35 1  
    38   23   36 1  
    39   23   37 1  
    40   23   38 1  
@<TRIPOS>SUBSTRUCTURE
     1 3PS         1

