### 
### Created by X-TOOL on Mon Sep 10 21:13:07 2018
### 

@<TRIPOS>MOLECULE
3psb_ligand
   46    49     1     0     0
SMALL
GAST_HUCK


@<TRIPOS>ATOM
      1 C1         80.7320    4.8770   -6.5040 C.ar      1 SM6        -0.0040
      2 C2         80.8620    5.7000   -7.6250 C.ar      1 SM6        -0.0451
      3 C3         82.0300    6.4480   -7.8600 C.ar      1 SM6        -0.0445
      4 C4         83.0710    6.3440   -6.9110 C.ar      1 SM6         0.0446
      5 C5         82.9410    5.5140   -5.7750 C.ar      1 SM6        -0.0527
      6 C6         81.7650    4.7660   -5.5570 C.ar      1 SM6        -0.0712
      7 C7         79.4590    4.1990   -6.4530 C.3       1 SM6         0.0355
      8 C8         78.7110    4.7350   -7.6930 C.3       1 SM6         0.0072
      9 C9         79.6510    5.6760   -8.5020 C.3       1 SM6        -0.0174
     10 N10        84.2180    7.0180   -7.0500 N.pl3     1 SM6        -0.2803
     11 C11        84.6640    8.1500   -7.7510 C.2       1 SM6         0.0929
     12 N12        79.0590    3.3820   -5.5660 N.4       1 SM6         0.3980
     13 C13        83.8450    9.3130   -8.0880 C.ar      1 SM6         0.0364
     14 C14        84.5500   10.2990   -8.7890 C.ar      1 SM6         0.0658
     15 S15        86.2270    9.8790   -9.0770 S.3       1 SM6        -0.0335
     16 C16        85.9920    8.3510   -8.2410 C.2       1 SM6         0.1293
     17 C17        87.1230    7.4720   -8.1360 C.2       1 SM6         0.2526
     18 O18        86.9680    6.3270   -7.6970 O.2       1 SM6        -0.3745
     19 C19        82.4820    9.5450   -7.7980 C.ar      1 SM6        -0.0330
     20 C20        81.9100   10.7640   -8.2350 C.ar      1 SM6         0.0018
     21 N21        82.6000   11.7080   -8.9130 N.ar      1 SM6        -0.3062
     22 C22        83.9050   11.4900   -9.1920 C.ar      1 SM6         0.0242
     23 O23        78.1990    4.0410   -4.6250 O.3       1 SM6        -0.3430
     24 O24        88.3200    8.1120   -8.0830 O.3       1 SM6        -0.2829
     25 C25        90.4880    8.4600   -9.1210 C.3       1 SM6        -0.0374
     26 C26        89.5410    7.4600   -8.4300 C.3       1 SM6         0.0718
     27 H          82.1279    7.0832   -8.7403 H         1 SM6         0.0450
     28 H          83.7596    5.4509   -5.0581 H         1 SM6         0.0457
     29 H          81.6607    4.1231   -4.6830 H         1 SM6         0.0511
     30 H          79.0800    3.4035   -5.8114 H         1 SM6         0.0989
     31 H          77.8297    5.2908   -7.3727 H         1 SM6         0.0359
     32 H          78.4061    3.8987   -8.3221 H         1 SM6         0.0359
     33 H          79.8502    5.3314   -9.5167 H         1 SM6         0.0413
     34 H          79.2273    6.6619   -8.6929 H         1 SM6         0.0413
     35 H          84.9680    6.5981   -6.5008 H         1 SM6         0.2066
     36 H          79.8687    3.0096   -5.0699 H         1 SM6         0.2365
     37 H          78.5395    2.6301   -6.0189 H         1 SM6         0.2365
     38 H          81.8895    8.8087   -7.2549 H         1 SM6         0.0696
     39 H          80.8593   10.9509   -8.0133 H         1 SM6         0.0748
     40 H          84.4694   12.2463   -9.7374 H         1 SM6         0.0788
     41 H          77.9069    3.4096   -3.9634 H         1 SM6         0.2694
     42 H          90.0135    8.8429  -10.0245 H         1 SM6         0.0255
     43 H          90.6999    9.2862   -8.4423 H         1 SM6         0.0255
     44 H          91.4181    7.9558   -9.3832 H         1 SM6         0.0255
     45 H          89.3287    6.6353   -9.1104 H         1 SM6         0.0607
     46 H          90.0161    7.0793   -7.5259 H         1 SM6         0.0607
@<TRIPOS>BOND
     1    1    2 ar 
     2    1    6 ar 
     3    1    7 1  
     4    2    3 ar 
     5    2    9 1  
     6    3    4 ar 
     7    4    5 ar 
     8    4   10 1  
     9    5    6 ar 
    10    7    8 1  
    11    7   12 1  
    12    8    9 1  
    13   10   11 1  
    14   11   13 1  
    15   11   16 2  
    16   12   23 1  
    17   13   14 ar 
    18   13   19 ar 
    19   14   15 1  
    20   14   22 ar 
    21   15   16 1  
    22   16   17 1  
    23   17   18 2  
    24   17   24 1  
    25   19   20 ar 
    26   20   21 ar 
    27   21   22 ar 
    28   24   26 1  
    29   26   25 1  
    30    3   27 1  
    31    5   28 1  
    32    6   29 1  
    33    7   30 1  
    34    8   31 1  
    35    8   32 1  
    36    9   33 1  
    37    9   34 1  
    38   10   35 1  
    39   12   36 1  
    40   12   37 1  
    41   19   38 1  
    42   20   39 1  
    43   22   40 1  
    44   23   41 1  
    45   25   42 1  
    46   25   43 1  
    47   25   44 1  
    48   26   45 1  
    49   26   46 1  
@<TRIPOS>SUBSTRUCTURE
     1 SM6         1

