### 
### Created by X-TOOL on Mon Sep 10 21:13:08 2018
### 

@<TRIPOS>MOLECULE
3psd_ligand
   52    57     1     0     0
SMALL
GAST_HUCK


@<TRIPOS>ATOM
      1 C1         41.8150   29.0500   33.2430 C.2       1 SM7         0.0102
      2 C2         40.4790   29.2450   32.8820 C.2       1 SM7         0.0598
      3 N3         40.1900   30.5280   32.7430 N.2       1 SM7        -0.1983
      4 N4         41.3410   31.1900   33.0130 N.pl3     1 SM7        -0.1953
      5 C5         42.3690   30.3190   33.3300 C.2       1 SM7         0.0678
      6 C6         42.5570   27.8130   33.5080 C.ar      1 SM7        -0.0413
      7 C7         39.4660   28.2150   32.6700 C.ar      1 SM7         0.0062
      8 C8         39.1970   27.2300   33.6450 C.ar      1 SM7        -0.0283
      9 C9         38.1900   26.2770   33.3750 C.ar      1 SM7         0.0088
     10 N10        37.4720   26.2850   32.2280 N.ar      1 SM7        -0.3003
     11 C11        37.7170   27.2350   31.2980 C.ar      1 SM7         0.0088
     12 C12        38.7060   28.2250   31.4790 C.ar      1 SM7        -0.0283
     13 C13        41.3490   32.6510   32.9490 C.3       1 SM7         0.0942
     14 C14        42.7060   33.2740   33.3630 C.3       1 SM7         0.0208
     15 C15        42.6530   34.8160   33.4580 C.3       1 SM7        -0.0306
     16 N16        41.5030   35.2810   34.2760 N.4       1 SM7         0.2271
     17 C17        40.1810   34.7840   33.8210 C.3       1 SM7        -0.0306
     18 C18        40.1490   33.2420   33.7330 C.3       1 SM7         0.0208
     19 C19        43.3600   27.7610   34.6770 C.ar      1 SM7        -0.0692
     20 C20        44.1120   26.6110   35.0110 C.ar      1 SM7        -0.0654
     21 C21        44.0230   25.5220   34.1230 C.ar      1 SM7        -0.0004
     22 C22        43.2370   25.5430   32.9550 C.ar      1 SM7        -0.0328
     23 C23        42.4900   26.6990   32.6340 C.ar      1 SM7        -0.0606
     24 C24        44.6550   24.2330   34.1800 C.2       1 SM7         0.0798
     25 C25        44.2410   23.5460   33.0800 C.2       1 SM7        -0.0115
     26 C26        43.2880   24.2290   32.1200 C.3       1 SM7         0.0024
     27 N27        45.4850   23.5970   34.9870 N.pl3     1 SM7        -0.2255
     28 N28        45.6070   22.3980   34.3410 N.2       1 SM7        -0.2242
     29 C29        44.8650   22.3120   33.1630 C.2       1 SM7         0.0027
     30 H          43.3954   30.5755   33.5922 H         1 SM7         0.1047
     31 H          39.7524   27.2055   34.5825 H         1 SM7         0.0703
     32 H          37.9836   25.5067   34.1180 H         1 SM7         0.0816
     33 H          37.1316   27.2363   30.3785 H         1 SM7         0.0816
     34 H          38.8802   28.9826   30.7150 H         1 SM7         0.0703
     35 H          41.2255   32.9277   31.9020 H         1 SM7         0.0688
     36 H          43.4401   33.0115   32.6012 H         1 SM7         0.0349
     37 H          42.9638   32.8875   34.3490 H         1 SM7         0.0349
     38 H          42.5405   35.2170   32.4507 H         1 SM7         0.0815
     39 H          43.5717   35.1612   33.9322 H         1 SM7         0.0815
     40 H          41.4792   36.2983   34.2054 H         1 SM7         0.2013
     41 H          41.6461   34.9246   35.2209 H         1 SM7         0.2013
     42 H          39.9855   35.1886   32.8279 H         1 SM7         0.0815
     43 H          39.4280   35.1023   34.5419 H         1 SM7         0.0815
     44 H          40.1938   32.8518   34.7498 H         1 SM7         0.0349
     45 H          39.2380   32.9597   33.2053 H         1 SM7         0.0349
     46 H          43.3981   28.6297   35.3342 H         1 SM7         0.0524
     47 H          44.7284   26.5698   35.9090 H         1 SM7         0.0579
     48 H          41.8759   26.7332   31.7341 H         1 SM7         0.0514
     49 H          43.5804   24.2996   31.0723 H         1 SM7         0.0569
     50 H          42.3458   23.7302   31.8929 H         1 SM7         0.0569
     51 H          45.9170   23.9137   35.8550 H         1 SM7         0.2473
     52 H          44.7932   21.4725   32.4715 H         1 SM7         0.0644
@<TRIPOS>BOND
     1    1    2 1  
     2    1    5 2  
     3    1    6 1  
     4    2    3 2  
     5    2    7 1  
     6    3    4 1  
     7    4    5 1  
     8    4   13 1  
     9    6   19 ar 
    10    6   23 ar 
    11    7    8 ar 
    12    7   12 ar 
    13    8    9 ar 
    14    9   10 ar 
    15   10   11 ar 
    16   11   12 ar 
    17   13   14 1  
    18   13   18 1  
    19   14   15 1  
    20   15   16 1  
    21   16   17 1  
    22   17   18 1  
    23   19   20 ar 
    24   20   21 ar 
    25   21   22 ar 
    26   21   24 1  
    27   22   23 ar 
    28   22   26 1  
    29   24   25 2  
    30   24   27 1  
    31   25   26 1  
    32   25   29 1  
    33   27   28 1  
    34   28   29 2  
    35    5   30 1  
    36    8   31 1  
    37    9   32 1  
    38   11   33 1  
    39   12   34 1  
    40   13   35 1  
    41   14   36 1  
    42   14   37 1  
    43   15   38 1  
    44   15   39 1  
    45   16   40 1  
    46   16   41 1  
    47   17   42 1  
    48   17   43 1  
    49   18   44 1  
    50   18   45 1  
    51   19   46 1  
    52   20   47 1  
    53   23   48 1  
    54   26   49 1  
    55   26   50 1  
    56   27   51 1  
    57   29   52 1  
@<TRIPOS>SUBSTRUCTURE
     1 SM7         1

