### 
### Created by X-TOOL on Mon Sep 10 21:13:02 2018
### 

@<TRIPOS>MOLECULE
3psl_ligand
   68    67     1     0     0
SMALL
GAST_HUCK


@<TRIPOS>ATOM
      1 C         -18.9150   12.5540   21.5670 C.2       1 ACE         0.1751
      2 O         -19.4090   13.7270   21.6660 O.2       1 ACE        -0.3972
      3 CH3       -19.4250   11.5570   20.5420 C.3       1 ACE         0.0258
      4 N         -17.6510   12.2730   22.2910 N.am      1 ALA        -0.2661
      5 CA        -17.1460   13.2260   23.2980 C.3       1 ALA         0.1281
      6 C         -16.9540   14.6400   22.8080 C.2       1 ALA         0.2036
      7 O         -17.0660   15.6080   23.5980 O.2       1 ALA        -0.3944
      8 CB        -15.8940   12.7080   23.8920 C.3       1 ALA        -0.0244
      9 N         -16.5610   14.8260   21.5070 N.am      1 ARG        -0.2637
     10 CA        -16.3920   16.1800   21.0120 C.3       1 ARG         0.1311
     11 C         -17.6560   17.0710   21.1450 C.2       1 ARG         0.2040
     12 O         -17.5610   18.2760   21.2510 O.2       1 ARG        -0.3944
     13 CB        -15.8350   16.1420   19.5270 C.3       1 ARG        -0.0092
     14 CG        -15.5080   17.5470   19.0120 C.3       1 ARG        -0.0156
     15 CD        -15.1330   17.4540   17.4910 C.3       1 ARG         0.0627
     16 NE        -14.0560   16.5030   17.2060 N.pl3     1 ARG        -0.2723
     17 CZ        -12.7480   16.8530   17.2140 C.cat     1 ARG         0.2882
     18 NH1       -12.3900   18.1330   17.3640 N.pl3     1 ARG        -0.2849
     19 NH2       -11.8290   15.9870   16.8910 N.pl3     1 ARG        -0.2849
     20 N         -18.8380   16.4860   21.1670 N.am      1 THR        -0.2613
     21 CA        -20.0340   17.2500   21.1900 C.3       1 THR         0.1564
     22 C         -20.5070   17.6140   22.6190 C.2       1 THR         0.2059
     23 O         -21.5170   18.3150   22.7740 O.2       1 THR        -0.3943
     24 CB        -21.1700   16.4690   20.5130 C.3       1 THR         0.0924
     25 OG1       -21.5780   15.3290   21.3490 O.3       1 THR        -0.3874
     26 CG2       -20.7150   16.0200   19.0650 C.3       1 THR        -0.0346
     27 N         -19.7550   17.2080   23.6080 N.am      1 LYS        -0.2694
     28 CA        -20.1450   17.4610   25.0160 C.3       1 LYS         0.0941
     29 C         -19.2250   18.4630   25.7370 C.2       1 LYS         0.0601
     30 O         -18.0050   18.5310   25.3720 O.co2     1 LYS        -0.5666
     31 CB        -20.1390   16.1280   25.7340 C.3       1 LYS        -0.0208
     32 CG        -21.0000   15.0330   25.0600 C.3       1 LYS        -0.0616
     33 H         -20.4833   11.3651   20.7190 H         1 ACE         0.0467
     34 H         -19.2912   11.9666   19.5408 H         1 ACE         0.0467
     35 H         -18.8654   10.6260   20.6329 H         1 ACE         0.0467
     36 H         -17.1298   11.4190   22.0922 H         1 ALA         0.1882
     37 H         -17.9307   13.2991   24.0509 H         1 ALA         0.0797
     38 H         -15.1051   12.7184   23.1399 H         1 ALA         0.0277
     39 H         -15.6044   13.3382   24.7329 H         1 ALA         0.0277
     40 H         -16.0533   11.6872   24.2393 H         1 ALA         0.0277
     41 H         -16.3904   14.0261   20.8975 H         1 ARG         0.1883
     42 H         -15.6584   16.6643   21.6565 H         1 ARG         0.0800
     43 H         -16.6000   15.7083   18.8830 H         1 ARG         0.0313
     44 H         -14.9200   15.5498   19.5172 H         1 ARG         0.0313
     45 H         -14.6707   17.9607   19.5741 H         1 ARG         0.0301
     46 H         -16.3730   18.1977   19.1399 H         1 ARG         0.0301
     47 H         -14.7874   18.4399   17.1801 H         1 ARG         0.0689
     48 H         -16.0196   17.1112   16.9575 H         1 ARG         0.0689
     49 H         -14.3017   15.5363   16.9925 H         1 ARG         0.2642
     50 H         -13.1043   18.8529   17.4733 H         1 ARG         0.2615
     51 H         -11.4027   18.3892   17.3690 H         1 ARG         0.2615
     52 H         -12.0928   15.0370   16.6295 H         1 ARG         0.2615
     53 H         -10.8460   16.2593   16.8997 H         1 ARG         0.2615
     54 H         -18.8935   15.4675   21.1675 H         1 THR         0.1884
     55 H         -19.8035   18.1741   20.6598 H         1 THR         0.0826
     56 H         -22.0445   17.1104   20.4032 H         1 THR         0.0639
     57 H         -20.8283   14.7432   21.4773 H         1 THR         0.2101
     58 H         -20.4763   16.9020   18.4707 H         1 THR         0.0257
     59 H         -19.8334   15.3838   19.1435 H         1 THR         0.0257
     60 H         -21.5230   15.4661   18.5871 H         1 THR         0.0257
     61 H         -18.8875   16.7100   23.4084 H         1 LYS         0.1875
     62 H         -21.1341   17.9189   25.0241 H         1 LYS         0.0726
     63 O         -19.6654   19.1959   26.6625 O.co2     1 LYS        -0.5666
     64 H         -20.5577   16.2978   26.7260 H         1 LYS         0.0303
     65 H         -19.1095   15.7699   25.7337 H         1 LYS         0.0303
     66 H         -22.0372   15.3649   25.0145 H         1 LYS         0.0232
     67 H         -20.6305   14.8521   24.0506 H         1 LYS         0.0232
     68 H         -20.9366   14.1134   25.6418 H         1 LYS         0.0232
@<TRIPOS>BOND
     1    1    2 2  
     2    1    3 1  
     3    1    4 am 
     4    4    5 1  
     5    5    6 1  
     6    5    8 1  
     7    6    7 2  
     8    6    9 am 
     9    9   10 1  
    10   10   11 1  
    11   10   13 1  
    12   11   12 2  
    13   11   20 am 
    14   13   14 1  
    15   14   15 1  
    16   15   16 1  
    17   16   17 ar 
    18   17   18 ar 
    19   17   19 ar 
    20   20   21 1  
    21   21   22 1  
    22   21   24 1  
    23   22   23 2  
    24   22   27 am 
    25   24   25 1  
    26   24   26 1  
    27   27   28 1  
    28   28   29 1  
    29   28   31 1  
    30   29   30 ar 
    31   31   32 1  
    32    3   33 1  
    33    3   34 1  
    34    3   35 1  
    35    4   36 1  
    36    5   37 1  
    37    8   38 1  
    38    8   39 1  
    39    8   40 1  
    40    9   41 1  
    41   10   42 1  
    42   13   43 1  
    43   13   44 1  
    44   14   45 1  
    45   14   46 1  
    46   15   47 1  
    47   15   48 1  
    48   16   49 1  
    49   18   50 1  
    50   18   51 1  
    51   19   52 1  
    52   19   53 1  
    53   20   54 1  
    54   21   55 1  
    55   24   56 1  
    56   25   57 1  
    57   26   58 1  
    58   26   59 1  
    59   26   60 1  
    60   27   61 1  
    61   28   62 1  
    62   29   63 ar 
    63   31   64 1  
    64   31   65 1  
    65   32   66 1  
    66   32   67 1  
    67   32   68 1  
@<TRIPOS>SUBSTRUCTURE
     1 ACE         1

