### 
### Created by X-TOOL on Mon Sep 10 21:13:08 2018
### 

@<TRIPOS>MOLECULE
3ptg_ligand
   43    46     1     0     0
SMALL
GAST_HUCK


@<TRIPOS>ATOM
      1 C1          2.3070    1.1730   33.0450 C.ar      1 932         0.0743
      2 N2          2.8700    0.2650   32.1030 N.am      1 932        -0.2029
      3 C3          3.4810    0.7850   30.9930 C.2       1 932         0.2081
      4 C4          3.5110    2.2740   30.7700 C.3       1 932         0.0508
      5 C5          3.8000    3.0090   32.0710 C.3       1 932        -0.0057
      6 C6          2.7580    2.5720   33.0720 C.ar      1 932        -0.0185
      7 C7          1.3490    0.8050   33.9890 C.ar      1 932        -0.0472
      8 C8          0.8370    1.7420   34.8920 C.ar      1 932        -0.0825
      9 C9          1.2360    3.0720   34.8960 C.ar      1 932        -0.0840
     10 C10         2.1940    3.4870   33.9750 C.ar      1 932        -0.0733
     11 C11         2.8040   -1.1910   32.4160 C.3       1 932         0.1509
     12 C12         1.5220   -1.8600   31.9750 C.2       1 932         0.2437
     13 O13         1.1220   -2.9430   32.4060 O.2       1 932        -0.3762
     14 N14         0.8330   -1.2180   31.0560 N.am      1 932        -0.2045
     15 C15        -0.2430   -1.7560   30.4080 C.2       1 932         0.1538
     16 S16        -1.1640   -3.1460   30.8090 S.3       1 932        -0.0237
     17 C17        -2.3320   -3.0520   29.4800 C.2       1 932        -0.0314
     18 C18        -2.0110   -1.9420   28.6650 C.2       1 932        -0.0717
     19 C19        -0.8220   -1.1820   29.1790 C.2       1 932         0.0427
     20 C20        -0.1960    0.0220   28.5500 C.2       1 932         0.1188
     21 N21        -0.5110    0.4850   27.3710 N.2       1 932        -0.2844
     22 N22         0.3510    1.5690   27.1580 N.2       1 932        -0.2733
     23 C23         1.1330    1.6580   28.2410 C.2       1 932         0.1078
     24 N24         0.8020    0.6840   29.1250 N.pl3     1 932        -0.2420
     25 C25        -2.8910   -1.6990   27.4470 C.3       1 932        -0.0476
     26 O26         4.0290    0.0970   30.1240 O.2       1 932        -0.3852
     27 H1          2.5354    2.6002   30.3805 H         1 932         0.0526
     28 H2          4.2966    2.5134   30.0383 H         1 932         0.0526
     29 H3          3.7372    4.0956   31.9119 H         1 932         0.0422
     30 H4          4.8048    2.7492   32.4354 H         1 932         0.0422
     31 H5          0.9969   -0.2197   34.0233 H         1 932         0.0480
     32 H6          0.0997    1.4173   35.6173 H         1 932         0.0520
     33 H7          0.8094    3.7742   35.6032 H         1 932         0.0470
     34 H8          2.5068    4.5247   33.9550 H         1 932         0.0513
     35 H9          2.9015   -1.3150   33.5046 H         1 932         0.0835
     36 H10         3.6450   -1.6908   31.9132 H         1 932         0.0835
     37 H11         1.1116   -0.2872   30.8193 H         1 932         0.2426
     38 H12        -3.1622   -3.7377   29.3173 H         1 932         0.0364
     39 H13         1.9162    2.4000   28.3897 H         1 932         0.1254
     40 H14         1.2312    0.4980   30.0427 H         1 932         0.2402
     41 H15        -3.6705   -2.4736   27.3974 H         1 932         0.0345
     42 H16        -2.2757   -1.7393   26.5361 H         1 932         0.0345
     43 H17        -3.3629   -0.7086   27.5273 H         1 932         0.0345
@<TRIPOS>BOND
     1    1    2 1  
     2    1    6 ar 
     3    1    7 ar 
     4    2    3 am 
     5    2   11 1  
     6    3    4 1  
     7    3   26 2  
     8    4    5 1  
     9    5    6 1  
    10    6   10 ar 
    11    7    8 ar 
    12    8    9 ar 
    13    9   10 ar 
    14   11   12 1  
    15   12   13 2  
    16   12   14 am 
    17   14   15 1  
    18   15   16 1  
    19   15   19 2  
    20   16   17 1  
    21   17   18 2  
    22   18   19 1  
    23   18   25 1  
    24   19   20 1  
    25   20   21 2  
    26   20   24 1  
    27   21   22 1  
    28   22   23 2  
    29   23   24 1  
    30    4   27 1  
    31    4   28 1  
    32    5   29 1  
    33    5   30 1  
    34    7   31 1  
    35    8   32 1  
    36    9   33 1  
    37   10   34 1  
    38   11   35 1  
    39   11   36 1  
    40   14   37 1  
    41   17   38 1  
    42   23   39 1  
    43   24   40 1  
    44   25   41 1  
    45   25   42 1  
    46   25   43 1  
@<TRIPOS>SUBSTRUCTURE
     1 932         1

