### 
### Created by X-TOOL on Mon Sep 10 21:13:03 2018
### 

@<TRIPOS>MOLECULE
3pty_ligand
   44    44     1     0     0
SMALL
GAST_HUCK


@<TRIPOS>ATOM
      1 C1         92.5420   10.1150    1.8160 C.3       1 AFO         0.1879
      2 O1         93.2260   10.4020    3.0380 O.3       1 AFO        -0.3487
      3 C2         92.8830    8.6750    1.4490 C.3       1 AFO         0.1341
      4 O2         91.7220    7.9260    1.0650 O.3       1 AFO        -0.3841
      5 C3         93.8870    8.7590    0.3170 C.3       1 AFO         0.1141
      6 O3         95.0920    8.1310    0.7410 O.3       1 AFO        -0.3864
      7 C4         94.1410   10.2460    0.1140 C.3       1 AFO         0.1131
      8 O4         93.0690   10.9380    0.7700 O.3       1 AFO        -0.3405
      9 C5         94.2470   10.6450   -1.3560 C.3       1 AFO         0.0730
     10 O5         94.9400   11.8980   -1.4620 O.3       1 AFO        -0.3924
     11 C1'        93.0860   11.7500    3.4780 C.3       1 AFO         0.0508
     12 C2'        94.0880   11.9660    4.6060 C.3       1 AFO        -0.0294
     13 C3'        93.7100   13.1400    5.5060 C.3       1 AFO        -0.0510
     14 C4'        94.8720   13.4480    6.4430 C.3       1 AFO        -0.0530
     15 C5'        95.7790   12.2340    6.6210 C.3       1 AFO        -0.0531
     16 C6'        95.1820   11.1780    7.5480 C.3       1 AFO        -0.0533
     17 C7'        96.0110    9.8970    7.5150 C.3       1 AFO        -0.0559
     18 C8'        95.4860    8.8760    8.5000 C.3       1 AFO        -0.0653
     19 H          91.4715   10.2838    1.9326 H         1 AFO         0.0937
     20 H          93.2944    8.1450    2.3080 H         1 AFO         0.0671
     21 H          91.0978    7.9092    1.7942 H         1 AFO         0.2101
     22 H          93.5356    8.2780   -0.5958 H         1 AFO         0.0648
     23 H          95.7404    8.1753    0.0344 H         1 AFO         0.2100
     24 H          95.1081   10.5131    0.5401 H         1 AFO         0.0647
     25 H          93.2473   10.7454   -1.7786 H         1 AFO         0.0584
     26 H          94.7963    9.8782   -1.9023 H         1 AFO         0.0584
     27 H          95.0064   12.1485   -2.3864 H         1 AFO         0.2095
     28 H          92.0703   11.9347    3.8279 H         1 AFO         0.0561
     29 H          93.2780   12.4420    2.6580 H         1 AFO         0.0561
     30 H          95.0574   12.1840    4.1579 H         1 AFO         0.0287
     31 H          94.1050   11.0644    5.2183 H         1 AFO         0.0287
     32 H          92.8269   12.8829    6.0909 H         1 AFO         0.0266
     33 H          93.4923   14.0150    4.8936 H         1 AFO         0.0266
     34 H          94.4680   13.7245    7.4169 H         1 AFO         0.0265
     35 H          95.4591   14.2590    6.0121 H         1 AFO         0.0265
     36 H          96.7128   12.5781    7.0657 H         1 AFO         0.0265
     37 H          95.9194   11.7766    5.6416 H         1 AFO         0.0265
     38 H          94.1694   10.9501    7.2151 H         1 AFO         0.0265
     39 H          95.1763   11.5669    8.5663 H         1 AFO         0.0265
     40 H          97.0385   10.1420    7.7841 H         1 AFO         0.0263
     41 H          95.9539    9.4729    6.5125 H         1 AFO         0.0263
     42 H          95.5273    9.2902    9.5074 H         1 AFO         0.0230
     43 H          94.4545    8.6284    8.2496 H         1 AFO         0.0230
     44 H          96.0993    7.9763    8.4503 H         1 AFO         0.0230
@<TRIPOS>BOND
     1    1    2 1  
     2    1    3 1  
     3    1    8 1  
     4    2   11 1  
     5    3    4 1  
     6    3    5 1  
     7    5    6 1  
     8    5    7 1  
     9    7    8 1  
    10    7    9 1  
    11    9   10 1  
    12   11   12 1  
    13   12   13 1  
    14   13   14 1  
    15   14   15 1  
    16   15   16 1  
    17   16   17 1  
    18   17   18 1  
    19    1   19 1  
    20    3   20 1  
    21    4   21 1  
    22    5   22 1  
    23    6   23 1  
    24    7   24 1  
    25    9   25 1  
    26    9   26 1  
    27   10   27 1  
    28   11   28 1  
    29   11   29 1  
    30   12   30 1  
    31   12   31 1  
    32   13   32 1  
    33   13   33 1  
    34   14   34 1  
    35   14   35 1  
    36   15   36 1  
    37   15   37 1  
    38   16   38 1  
    39   16   39 1  
    40   17   40 1  
    41   17   41 1  
    42   18   42 1  
    43   18   43 1  
    44   18   44 1  
@<TRIPOS>SUBSTRUCTURE
     1 AFO         1

