### 
### Created by X-TOOL on Mon Sep 10 21:13:07 2018
### 

@<TRIPOS>MOLECULE
3pvu_ligand
   55    58     1     0     0
SMALL
GAST_HUCK


@<TRIPOS>ATOM
      1 C1         36.7270   -2.3330   50.3650 C.ar      1 QRW         0.0478
      2 C2         35.3590   -2.2420   50.1020 C.ar      1 QRW        -0.0211
      3 C3         34.8060   -1.0030   49.7540 C.ar      1 QRW         0.0119
      4 N4         35.5690    0.0890   49.6780 N.ar      1 QRW        -0.2974
      5 C5         36.8760    0.0320   49.9290 C.ar      1 QRW         0.0119
      6 C6         37.4970   -1.1760   50.2760 C.ar      1 QRW        -0.0211
      7 C7         37.3250   -3.5380   50.7200 C.2       1 QRW         0.1643
      8 N8         38.1870   -3.6900   51.7160 N.2       1 QRW        -0.2575
      9 N9         38.5540   -4.8680   51.7880 N.2       1 QRW        -0.2593
     10 C10        37.9490   -5.5900   50.8440 C.2       1 QRW         0.1604
     11 N11        37.1820   -4.7470   50.1770 N.pl3     1 QRW        -0.2116
     12 C12        36.3210   -5.1190   49.0310 C.3       1 QRW         0.0525
     13 C13        38.1090   -7.0940   50.5870 C.3       1 QRW         0.1060
     14 N14        38.7850   -7.7560   51.7190 N.pl3     1 QRW        -0.3033
     15 C15        38.2130   -7.9730   52.9140 C.ar      1 QRW         0.0456
     16 C16        36.9550   -7.4650   53.2630 C.ar      1 QRW        -0.0400
     17 C17        36.4160   -7.7290   54.5270 C.ar      1 QRW        -0.0680
     18 C18        37.1310   -8.4990   55.4500 C.ar      1 QRW        -0.0553
     19 C19        38.3850   -8.9970   55.1080 C.ar      1 QRW         0.0383
     20 C20        38.9070   -8.7400   53.8410 C.ar      1 QRW        -0.0247
     21 C21        39.2040   -9.8510   56.0820 C.2       1 QRW         0.2045
     22 O22        38.6400  -10.5760   56.9000 O.2       1 QRW        -0.3845
     23 N23        40.5360   -9.7530   55.9240 N.am      1 QRW        -0.2693
     24 C24        41.5340  -10.5430   56.6650 C.3       1 QRW         0.0793
     25 C25        41.6900  -11.8770   55.9050 C.ar      1 QRW         0.0132
     26 C26        42.6570  -12.2050   54.9270 C.ar      1 QRW         0.0509
     27 C27        42.6280  -13.4770   54.3300 C.ar      1 QRW        -0.0379
     28 C28        41.6720  -14.4300   54.6760 C.ar      1 QRW        -0.0392
     29 C29        40.7170  -14.1120   55.6330 C.ar      1 QRW        -0.0405
     30 C30        40.7380  -12.8510   56.2280 C.ar      1 QRW        -0.0273
     31 C31        43.7680  -11.2220   54.4500 C.3       1 QRW         0.3705
     32 F32        44.9030  -11.8890   54.1550 F         1 QRW        -0.2263
     33 F33        44.0460  -10.3020   55.3850 F         1 QRW        -0.2263
     34 F34        43.3300  -10.6230   53.3230 F         1 QRW        -0.2263
     35 H1         34.7301   -3.1226   50.1665 H         1 QRW         0.0729
     36 H2         33.7450   -0.9304   49.5438 H         1 QRW         0.0823
     37 H3         37.4703    0.9362   49.8637 H         1 QRW         0.0823
     38 H4         38.5625   -1.2091   50.4725 H         1 QRW         0.0729
     39 H5         35.7922   -4.2266   48.6649 H         1 QRW         0.0582
     40 H6         35.5879   -5.8733   49.3528 H         1 QRW         0.0582
     41 H7         36.9433   -5.5332   48.2241 H         1 QRW         0.0582
     42 H8         38.7067   -7.2414   49.6754 H         1 QRW         0.0771
     43 H9         37.1143   -7.5431   50.4499 H         1 QRW         0.0771
     44 H10        39.7562   -8.0713   51.5841 H         1 QRW         0.1789
     45 H11        36.3977   -6.8659   52.5520 H         1 QRW         0.0550
     46 H12        35.4412   -7.3355   54.7917 H         1 QRW         0.0594
     47 H13        36.7105   -8.7070   56.4272 H         1 QRW         0.0557
     48 H14        39.8753   -9.1475   53.5736 H         1 QRW         0.0565
     49 H15        40.8744   -9.0938   55.2525 H         1 QRW         0.1883
     50 H16        41.1851  -10.7292   57.6915 H         1 QRW         0.0763
     51 H17        42.4950  -10.0086   56.6955 H         1 QRW         0.0763
     52 H18        43.3701  -13.7237   53.5793 H         1 QRW         0.0820
     53 H19        41.6737  -15.4062   54.2047 H         1 QRW         0.0648
     54 H20        39.9623  -14.8373   55.9148 H         1 QRW         0.0834
     55 H21        39.9856  -12.6152   56.9718 H         1 QRW         0.0636
@<TRIPOS>BOND
     1    1    2 ar 
     2    1    6 ar 
     3    1    7 1  
     4    2    3 ar 
     5    3    4 ar 
     6    4    5 ar 
     7    5    6 ar 
     8    7    8 2  
     9    7   11 1  
    10    8    9 1  
    11    9   10 2  
    12   10   11 1  
    13   10   13 1  
    14   11   12 1  
    15   13   14 1  
    16   14   15 1  
    17   15   16 ar 
    18   15   20 ar 
    19   16   17 ar 
    20   17   18 ar 
    21   18   19 ar 
    22   19   20 ar 
    23   19   21 1  
    24   21   22 2  
    25   21   23 am 
    26   23   24 1  
    27   24   25 1  
    28   25   26 ar 
    29   25   30 ar 
    30   26   27 ar 
    31   26   31 1  
    32   27   28 ar 
    33   28   29 ar 
    34   29   30 ar 
    35   31   32 1  
    36   31   33 1  
    37   31   34 1  
    38    2   35 1  
    39    3   36 1  
    40    5   37 1  
    41    6   38 1  
    42   12   39 1  
    43   12   40 1  
    44   12   41 1  
    45   13   42 1  
    46   13   43 1  
    47   14   44 1  
    48   16   45 1  
    49   17   46 1  
    50   18   47 1  
    51   20   48 1  
    52   23   49 1  
    53   24   50 1  
    54   24   51 1  
    55   27   52 1  
    56   28   53 1  
    57   29   54 1  
    58   30   55 1  
@<TRIPOS>SUBSTRUCTURE
     1 QRW         1

