### 
### Created by X-TOOL on Mon Sep 10 21:13:08 2018
### 

@<TRIPOS>MOLECULE
3pvw_ligand
   57    60     1     0     0
SMALL
GAST_HUCK


@<TRIPOS>ATOM
      1 C1         36.6360   -2.6390   50.7840 C.ar      1 QRX         0.1160
      2 C2         35.3490   -2.5140   50.2690 C.ar      1 QRX         0.0027
      3 C3         34.8920   -1.2580   49.8840 C.ar      1 QRX         0.0290
      4 N4         35.6740   -0.1990   50.0280 N.ar      1 QRX        -0.2643
      5 C5         36.9000   -0.3350   50.5170 C.ar      1 QRX         0.0883
      6 N6         37.3750   -1.5230   50.8810 N.ar      1 QRX        -0.2533
      7 C7         37.1970   -3.8580   51.1900 C.2       1 QRX         0.1831
      8 N8         38.1260   -3.9940   52.1350 N.2       1 QRX        -0.2499
      9 N9         38.4410   -5.1830   52.2600 N.2       1 QRX        -0.2543
     10 C10        37.7450   -5.9260   51.4040 C.2       1 QRX         0.1632
     11 N11        36.9750   -5.0920   50.7380 N.pl3     1 QRX        -0.2058
     12 C12        36.0320   -5.4980   49.6910 C.3       1 QRX         0.0637
     13 C13        34.6070   -5.4390   50.2600 C.3       1 QRX        -0.0276
     14 C14        33.5860   -5.0690   49.1760 C.3       1 QRX        -0.0627
     15 C15        37.8140   -7.4480   51.2220 C.3       1 QRX         0.1069
     16 N16        38.5240   -8.0900   52.3430 N.pl3     1 QRX        -0.3031
     17 C17        37.9990   -8.2290   53.5690 C.ar      1 QRX         0.0457
     18 C18        38.7190   -8.9670   54.4960 C.ar      1 QRX        -0.0247
     19 C19        38.2520   -9.1600   55.7980 C.ar      1 QRX         0.0383
     20 C20        37.0250   -8.6020   56.1660 C.ar      1 QRX        -0.0553
     21 C21        36.2850   -7.8580   55.2380 C.ar      1 QRX        -0.0680
     22 C22        36.7700   -7.6740   53.9440 C.ar      1 QRX        -0.0400
     23 C23        39.0970  -10.0020   56.7840 C.2       1 QRX         0.2035
     24 N24        40.3900  -10.0910   56.4720 N.am      1 QRX        -0.2762
     25 O25        38.5860  -10.5690   57.7500 O.2       1 QRX        -0.3845
     26 C26        41.3640  -10.8640   57.2410 C.3       1 QRX         0.0656
     27 C27        42.4020  -11.4160   56.2560 C.ar      1 QRX         0.0461
     28 C28        43.6110  -10.7460   56.0610 C.ar      1 QRX         0.1334
     29 C29        44.5780  -11.2210   55.1710 C.ar      1 QRX        -0.0388
     30 C30        44.3470  -12.3860   54.4430 C.ar      1 QRX        -0.0723
     31 C31        43.1450  -13.0690   54.6200 C.ar      1 QRX        -0.0388
     32 C32        42.1830  -12.5860   55.5140 C.ar      1 QRX         0.1334
     33 F33        41.0270  -13.2680   55.6600 F         1 QRX        -0.1902
     34 F34        43.8540   -9.6190   56.7600 F         1 QRX        -0.1902
     35 H1         34.7108   -3.3846   50.1692 H         1 QRX         0.0793
     36 H2         33.8977   -1.1462   49.4669 H         1 QRX         0.0931
     37 H3         37.5287    0.5418   50.6222 H         1 QRX         0.1128
     38 H4         36.2586   -6.5244   49.3669 H         1 QRX         0.0620
     39 H5         36.1160   -4.8154   48.8325 H         1 QRX         0.0620
     40 H6         34.5714   -4.6829   51.0581 H         1 QRX         0.0290
     41 H7         34.3466   -6.4236   50.6757 H         1 QRX         0.0290
     42 H8         32.5788   -5.0358   49.6170 H         1 QRX         0.0231
     43 H9         33.6112   -5.8233   48.3758 H         1 QRX         0.0231
     44 H10        33.8360   -4.0826   48.7582 H         1 QRX         0.0231
     45 H11        38.3453   -7.6732   50.2855 H         1 QRX         0.0774
     46 H12        36.7912   -7.8493   51.1690 H         1 QRX         0.0774
     47 H13        39.4740   -8.4511   52.1756 H         1 QRX         0.1790
     48 H14        39.6666   -9.4045   54.2033 H         1 QRX         0.0565
     49 H15        36.6451   -8.7450   57.1711 H         1 QRX         0.0557
     50 H16        35.3341   -7.4248   55.5264 H         1 QRX         0.0594
     51 H17        36.1942   -7.1001   53.2270 H         1 QRX         0.0550
     52 H18        40.7132   -9.5995   55.6633 H         1 QRX         0.1870
     53 H19        40.8599  -11.6936   57.7582 H         1 QRX         0.0667
     54 H20        41.8568  -10.2161   57.9808 H         1 QRX         0.0667
     55 H21        45.5101  -10.6816   55.0468 H         1 QRX         0.0551
     56 H22        45.0921  -12.7564   53.7482 H         1 QRX         0.0539
     57 H23        42.9545  -13.9788   54.0624 H         1 QRX         0.0551
@<TRIPOS>BOND
     1    1    2 ar 
     2    1    6 ar 
     3    1    7 1  
     4    2    3 ar 
     5    3    4 ar 
     6    4    5 ar 
     7    5    6 ar 
     8    7    8 2  
     9    7   11 1  
    10    8    9 1  
    11    9   10 2  
    12   10   11 1  
    13   10   15 1  
    14   11   12 1  
    15   12   13 1  
    16   13   14 1  
    17   15   16 1  
    18   16   17 1  
    19   17   18 ar 
    20   17   22 ar 
    21   18   19 ar 
    22   19   20 ar 
    23   19   23 1  
    24   20   21 ar 
    25   21   22 ar 
    26   23   24 am 
    27   23   25 2  
    28   24   26 1  
    29   26   27 1  
    30   27   28 ar 
    31   27   32 ar 
    32   28   29 ar 
    33   28   34 1  
    34   29   30 ar 
    35   30   31 ar 
    36   31   32 ar 
    37   32   33 1  
    38    2   35 1  
    39    3   36 1  
    40    5   37 1  
    41   12   38 1  
    42   12   39 1  
    43   13   40 1  
    44   13   41 1  
    45   14   42 1  
    46   14   43 1  
    47   14   44 1  
    48   15   45 1  
    49   15   46 1  
    50   16   47 1  
    51   18   48 1  
    52   20   49 1  
    53   21   50 1  
    54   22   51 1  
    55   24   52 1  
    56   26   53 1  
    57   26   54 1  
    58   29   55 1  
    59   30   56 1  
    60   31   57 1  
@<TRIPOS>SUBSTRUCTURE
     1 QRX         1

