### 
### Created by X-TOOL on Mon Sep 10 21:13:05 2018
### 

@<TRIPOS>MOLECULE
3pwd_ligand
   29    31     1     0     0
SMALL
GAST_HUCK


@<TRIPOS>ATOM
      1 C1         23.3690    9.4640   16.2220 C.ar      1 CZ0         0.0565
      2 N1         25.1950    6.3090   16.3890 N.2       1 CZ0        -0.1596
      3 C2         24.1450    8.3660   15.8930 C.ar      1 CZ0         0.2256
      4 O2         25.4870    5.3770   17.1230 O.2       1 CZ0        -0.4665
      5 C3         24.3990    7.3770   16.8210 C.ar      1 CZ0         0.2207
      6 O3         25.6000    6.3220   15.2410 O.2       1 CZ0        -0.4665
      7 C4         22.8380    9.5690   17.4970 C.ar      1 CZ0         0.0194
      8 C5         23.0830    8.5790   18.4340 C.ar      1 CZ0         0.0963
      9 C6         23.8690    7.4730   18.1110 C.ar      1 CZ0         0.1132
     10 C7         24.0990    6.4880   19.0800 C.ar      1 CZ0         0.0589
     11 C8         22.5310    8.7020   19.7050 C.ar      1 CZ0         0.0677
     12 C9         22.7640    7.7220   20.6620 C.ar      1 CZ0         0.1563
     13 C10        23.5440    6.6120   20.3600 C.ar      1 CZ0         0.2198
     14 O11        23.7610    5.6510   21.3300 O.3       1 CZ0        -0.1769
     15 C12        23.2290    5.7630   22.5940 C.2       1 CZ0         0.3426
     16 C13        22.4350    6.8570   22.9540 C.2       1 CZ0         0.1259
     17 C14        22.1840    7.8530   22.0220 C.2       1 CZ0         0.0943
     18 O15        24.6580    8.2470   14.6440 O.3       1 CZ0        -0.2691
     19 O16        23.4550    4.8610   23.4310 O.2       1 CZ0        -0.3246
     20 C17        21.3450    9.0520   22.3640 C.3       1 CZ0         0.0091
     21 H1         23.1780   10.2369   15.4864 H         1 CZ0         0.0790
     22 H2         22.2302   10.4267   17.7616 H         1 CZ0         0.1220
     23 H3         24.7095    5.6256   18.8381 H         1 CZ0         0.1111
     24 H4         21.9189    9.5627   19.9489 H         1 CZ0         0.1550
     25 H5         22.0175    6.9260   23.9574 H         1 CZ0         0.1486
     26 H6         24.3271    7.4527   14.2413 H         1 CZ0         0.2848
     27 H7         21.2739    9.7120   21.4869 H         1 CZ0         0.0521
     28 H8         21.8096    9.5990   23.1976 H         1 CZ0         0.0521
     29 H9         20.3374    8.7228   22.6577 H         1 CZ0         0.0521
@<TRIPOS>BOND
     1    3    1 ar 
     2    1    7 ar 
     3    2    4 2  
     4    5    2 1  
     5    2    6 2  
     6    3    5 ar 
     7    3   18 1  
     8    5    9 ar 
     9    7    8 ar 
    10    8    9 ar 
    11    8   11 ar 
    12    9   10 ar 
    13   10   13 ar 
    14   11   12 ar 
    15   12   13 ar 
    16   12   17 1  
    17   13   14 1  
    18   14   15 1  
    19   15   16 1  
    20   15   19 2  
    21   16   17 2  
    22   17   20 1  
    23    1   21 1  
    24    7   22 1  
    25   10   23 1  
    26   11   24 1  
    27   16   25 1  
    28   18   26 1  
    29   20   27 1  
    30   20   28 1  
    31   20   29 1  
@<TRIPOS>SUBSTRUCTURE
     1 CZ0         1

