### 
### Created by X-TOOL on Mon Sep 10 21:13:08 2018
### 

@<TRIPOS>MOLECULE
3pwh_ligand
   40    43     1     0     0
SMALL
GAST_HUCK


@<TRIPOS>ATOM
      1 C1         50.3720   22.8670   38.1150 C.ar      1 ZMA        -0.0687
      2 C2         49.2310   22.6400   38.8880 C.ar      1 ZMA        -0.0398
      3 C3         48.3370   21.6350   38.5280 C.ar      1 ZMA         0.0805
      4 O4         47.2340   21.4470   39.3130 O.3       1 ZMA        -0.3376
      5 C5         48.5660   20.8500   37.4040 C.ar      1 ZMA        -0.0398
      6 C6         49.7070   21.0760   36.6310 C.ar      1 ZMA        -0.0687
      7 C7         50.6200   22.0850   36.9790 C.ar      1 ZMA        -0.0517
      8 C8         51.8450   22.3230   36.1340 C.3       1 ZMA        -0.0032
      9 C9         51.7260   21.6110   34.7830 C.3       1 ZMA         0.0418
     10 N10        52.2520   22.4240   33.7000 N.pl3     1 ZMA        -0.2845
     11 C11        51.4940   23.0470   32.7500 C.2       1 ZMA         0.1654
     12 N12        50.1690   22.7170   32.6330 N.2       1 ZMA        -0.2506
     13 N13        52.1860   23.9630   31.9940 N.2       1 ZMA        -0.2113
     14 C14        51.5390   24.6420   31.0180 C.2       1 ZMA         0.2974
     15 N15        52.1260   25.5740   30.2070 N.pl3     1 ZMA        -0.2658
     16 N16        50.1280   24.3100   30.8730 N.pl3     1 ZMA        -0.0713
     17 N17        49.1250   24.7850   29.9920 N.2       1 ZMA        -0.1784
     18 C18        49.5010   23.3820   31.6650 C.2       1 ZMA         0.2149
     19 N19        48.1460   23.2560   31.3140 N.2       1 ZMA        -0.2964
     20 C20        47.9470   24.1180   30.2990 C.2       1 ZMA         0.1092
     21 C21        46.6710   24.3420   29.5860 C.2       1 ZMA         0.1370
     22 C22        45.5270   23.5780   29.7090 C.2       1 ZMA        -0.0528
     23 C23        44.5580   24.1470   28.8450 C.2       1 ZMA        -0.0595
     24 C24        45.1660   25.2230   28.2410 C.2       1 ZMA         0.0828
     25 O25        46.4430   25.3480   28.6800 O.3       1 ZMA        -0.2592
     26 H          51.0713   23.6544   38.3961 H         1 ZMA         0.0530
     27 H          49.0407   23.2488   39.7719 H         1 ZMA         0.0525
     28 H          46.7064   20.7293   38.9550 H         1 ZMA         0.2458
     29 H          47.8615   20.0652   37.1284 H         1 ZMA         0.0525
     30 H          49.8909   20.4631   35.7486 H         1 ZMA         0.0530
     31 H          52.7150   21.9309   36.6607 H         1 ZMA         0.0425
     32 H          51.9457   23.3939   35.9575 H         1 ZMA         0.0425
     33 H          50.6710   21.4188   34.5875 H         1 ZMA         0.0550
     34 H          52.3016   20.6866   34.8297 H         1 ZMA         0.0550
     35 H          53.2641   22.5382   33.6450 H         1 ZMA         0.1911
     36 H          53.1153   25.7961   30.3181 H         1 ZMA         0.1953
     37 H          51.5744   26.0469   29.4911 H         1 ZMA         0.1953
     38 H          45.3947   22.7049   30.3480 H         1 ZMA         0.0394
     39 H          43.5359   23.8012   28.6902 H         1 ZMA         0.0360
     40 H          44.6897   25.8807   27.5139 H         1 ZMA         0.1013
@<TRIPOS>BOND
     1    1    2 ar 
     2    1    7 ar 
     3    2    3 ar 
     4    3    4 1  
     5    3    5 ar 
     6    5    6 ar 
     7    6    7 ar 
     8    7    8 1  
     9    8    9 1  
    10    9   10 1  
    11   10   11 1  
    12   11   12 2  
    13   11   13 1  
    14   12   18 1  
    15   13   14 2  
    16   14   15 1  
    17   14   16 1  
    18   16   17 1  
    19   16   18 1  
    20   17   20 2  
    21   18   19 2  
    22   19   20 1  
    23   20   21 1  
    24   21   22 2  
    25   21   25 1  
    26   22   23 1  
    27   23   24 2  
    28   24   25 1  
    29    1   26 1  
    30    2   27 1  
    31    4   28 1  
    32    5   29 1  
    33    6   30 1  
    34    8   31 1  
    35    8   32 1  
    36    9   33 1  
    37    9   34 1  
    38   10   35 1  
    39   15   36 1  
    40   15   37 1  
    41   22   38 1  
    42   23   39 1  
    43   24   40 1  
@<TRIPOS>SUBSTRUCTURE
     1 ZMA         1

