### 
### Created by X-TOOL on Mon Sep 10 21:13:08 2018
### 

@<TRIPOS>MOLECULE
3pwk_ligand
   22    22     1     0     0
SMALL
GAST_HUCK


@<TRIPOS>ATOM
      1 OAA         2.2710   23.2630   43.9810 O.co2     1 L14        -0.5687
      2 OAB        -3.5290   25.7130   47.0620 O.co2     1 L14        -0.5687
      3 OAC         3.4250   24.8700   44.9880 O.co2     1 L14        -0.5687
      4 OAD        -2.1020   25.3660   48.7120 O.co2     1 L14        -0.5687
      5 CAE         0.3770   23.1890   46.0160 C.3       1 L14        -0.0368
      6 CAF        -0.7430   23.5750   46.9810 C.3       1 L14        -0.0368
      7 CAG         0.6330   25.6210   45.3610 C.3       1 L14        -0.0368
      8 CAH        -0.4870   26.0070   46.3000 C.3       1 L14        -0.0368
      9 CAI         2.4200   24.1380   44.8660 C.2       1 L14         0.0379
     10 CAJ        -2.4300   25.3350   47.5040 C.2       1 L14         0.0379
     11 CAK         1.3430   24.3730   45.8710 C.3       1 L14         0.0120
     12 CAL        -1.4520   24.8430   46.4950 C.3       1 L14         0.0120
     13 H1         -0.0518   22.9407   45.0339 H         1 L14         0.0287
     14 H2          0.9193   22.3170   46.4104 H         1 L14         0.0287
     15 H3         -0.3157   23.7580   47.9779 H         1 L14         0.0287
     16 H4         -1.4709   22.7524   47.0394 H         1 L14         0.0287
     17 H5          1.3547   26.4487   45.2971 H         1 L14         0.0287
     18 H6          0.2168   25.4195   44.3629 H         1 L14         0.0287
     19 H7         -1.0340   26.8625   45.8772 H         1 L14         0.0287
     20 H8         -0.0606   26.2895   47.2738 H         1 L14         0.0287
     21 H9          1.7921   24.5712   46.8554 H         1 L14         0.0466
     22 H10        -1.9647   24.6179   45.5482 H         1 L14         0.0466
@<TRIPOS>BOND
     1    9    1 ar 
     2   10    2 ar 
     3    9    3 ar 
     4   10    4 ar 
     5    6    5 1  
     6    5   11 1  
     7   12    6 1  
     8    8    7 1  
     9    7   11 1  
    10   12    8 1  
    11   11    9 1  
    12   10   12 1  
    13    5   13 1  
    14    5   14 1  
    15    6   15 1  
    16    6   16 1  
    17    7   17 1  
    18    7   18 1  
    19    8   19 1  
    20    8   20 1  
    21   11   21 1  
    22   12   22 1  
@<TRIPOS>SUBSTRUCTURE
     1 L14         1

