### 
### Created by X-TOOL on Mon Sep 10 21:13:05 2018
### 

@<TRIPOS>MOLECULE
3pwm_ligand
   75    78     1     0     0
SMALL
GAST_HUCK


@<TRIPOS>ATOM
      1 N1          7.2120   14.4990   14.5710 N.pl3     1 017        -0.3369
      2 C2          8.0170   15.5300   14.8510 C.ar      1 017         0.0353
      3 C3          9.3760   15.5090   14.5770 C.ar      1 017        -0.0429
      4 C4         10.1760   16.6190   14.8830 C.ar      1 017        -0.0471
      5 C5          9.6200   17.6670   15.6050 C.ar      1 017         0.0949
      6 C6          8.2700   17.6550   15.9090 C.ar      1 017        -0.0471
      7 C7          7.4580   16.6020   15.5490 C.ar      1 017        -0.0429
      8 S8         10.5730   19.0600   16.1150 S.o2      1 017         0.0648
      9 O9         11.6640   19.2760   15.1330 O.2       1 017        -0.1518
     10 O10         9.6740   20.2340   16.2800 O.2       1 017        -0.1518
     11 N11        11.2780   18.7540   17.5620 N.am      1 017        -0.2327
     12 C12        10.4050   18.4100   18.6550 C.3       1 017         0.0319
     13 C13        10.7140   19.0590   20.0220 C.3       1 017        -0.0296
     14 C14        10.7190   20.5820   19.9290 C.3       1 017        -0.0612
     15 C15         9.6060   18.6240   21.0130 C.3       1 017        -0.0612
     16 C16        12.5300   18.0240   17.4860 C.3       1 017         0.0578
     17 C17        13.6530   18.8770   18.0620 C.3       1 017         0.0967
     18 O18        14.7870   18.1030   18.4090 O.3       1 017        -0.3877
     19 C19        14.0430   20.0180   17.1240 C.3       1 017         0.0807
     20 N20        14.8930   20.9470   17.8660 N.am      1 017        -0.2550
     21 C21        14.6400   22.2020   18.2380 C.2       1 017         0.3203
     22 O22        13.5660   22.7580   17.9910 O.2       1 017        -0.3775
     23 O23        15.6630   22.7980   18.8910 O.3       1 017        -0.2578
     24 C24        15.5010   24.2120   19.1040 C.3       1 017         0.1189
     25 C25        16.0760   24.5420   20.4880 C.3       1 017         0.0815
     26 O26        17.4870   24.4300   20.2780 O.3       1 017        -0.3480
     27 C27        17.7700   24.9680   18.9950 C.3       1 017         0.1648
     28 O28        18.7220   24.1400   18.3060 O.3       1 017        -0.3509
     29 C29        18.0430   23.3900   17.3460 C.3       1 017         0.0512
     30 C30        16.8730   24.2860   16.8940 C.3       1 017        -0.0191
     31 C31        16.4750   24.9400   18.1950 C.3       1 017         0.0449
     32 C32        14.7850   19.5270   15.8920 C.3       1 017         0.0064
     33 C33        16.4810   21.0740   14.8380 C.ar      1 017        -0.0603
     34 C34        16.8230   22.1650   14.0440 C.ar      1 017        -0.0686
     35 C35        15.8470   22.9050   13.3890 C.ar      1 017        -0.0687
     36 C36        14.5290   22.4740   13.4980 C.ar      1 017        -0.0686
     37 C37        14.1770   21.3880   14.2850 C.ar      1 017        -0.0603
     38 C38        15.1580   20.6880   14.9690 C.ar      1 017        -0.0408
     39 H1          7.5780   13.6844   14.0577 H         1 017         0.1719
     40 H2          6.2262   14.5197   14.8687 H         1 017         0.1719
     41 H3          9.8218   14.6307   14.1243 H         1 017         0.0515
     42 H4         11.2105   16.6585   14.5616 H         1 017         0.0602
     43 H5          7.8409   18.4948   16.4435 H         1 017         0.0602
     44 H6          6.4042   16.6057   15.8031 H         1 017         0.0515
     45 H7         10.4501   17.3188   18.7866 H         1 017         0.0480
     46 H8          9.3837   18.7031   18.3705 H         1 017         0.0480
     47 H9         11.6955   18.7135   20.3788 H         1 017         0.0311
     48 H10        10.9418   21.0090   20.9180 H         1 017         0.0233
     49 H11         9.7320   20.9321   19.5925 H         1 017         0.0233
     50 H12        11.4868   20.9029   19.2096 H         1 017         0.0233
     51 H13         9.5922   17.5267   21.0889 H         1 017         0.0233
     52 H14         8.6299   18.9787   20.6505 H         1 017         0.0233
     53 H15         9.8090   19.0575   22.0034 H         1 017         0.0233
     54 H16        12.7524   17.7866   16.4352 H         1 017         0.0504
     55 H17        12.4458   17.0912   18.0628 H         1 017         0.0504
     56 H18        13.2708   19.3307   18.9884 H         1 017         0.0634
     57 H19        15.1172   17.6624   17.6349 H         1 017         0.2100
     58 H20        13.1298   20.5379   16.7988 H         1 017         0.0604
     59 H21        15.7892   20.5918   18.1317 H         1 017         0.1873
     60 H22        14.4573   24.5342   18.9740 H         1 017         0.0675
     61 H23        15.7292   23.8217   21.2435 H         1 017         0.0590
     62 H24        15.8011   25.5606   20.7990 H         1 017         0.0590
     63 H25        18.1528   25.9951   19.0867 H         1 017         0.0913
     64 H26        17.6663   22.4533   17.7826 H         1 017         0.0561
     65 H27        18.7036   23.1594   16.4972 H         1 017         0.0561
     66 H28        16.0488   23.6899   16.4753 H         1 017         0.0293
     67 H29        17.2000   25.0307   16.1534 H         1 017         0.0293
     68 H30        16.0907   25.9499   17.9892 H         1 017         0.0380
     69 H31        14.1413   18.8246   15.3422 H         1 017         0.0449
     70 H32        15.7037   19.0115   16.2086 H         1 017         0.0449
     71 H33        17.2563   20.5226   15.3575 H         1 017         0.0557
     72 H34        17.8657   22.4409   13.9354 H         1 017         0.0599
     73 H35        16.1033   23.7870   12.8133 H         1 017         0.0559
     74 H36        13.7553   23.0019   12.9524 H         1 017         0.0599
     75 H37        13.1385   21.0878   14.3649 H         1 017         0.0557
@<TRIPOS>BOND
     1    2    1 1  
     2    3    2 ar 
     3    7    2 ar 
     4    4    3 ar 
     5    5    4 ar 
     6    5    6 ar 
     7    8    5 1  
     8    6    7 ar 
     9    8    9 2  
    10    8   10 2  
    11   11    8 am 
    12   11   12 1  
    13   16   11 1  
    14   12   13 1  
    15   13   14 1  
    16   13   15 1  
    17   17   16 1  
    18   17   18 1  
    19   19   17 1  
    20   19   20 1  
    21   32   19 1  
    22   20   21 am 
    23   21   22 2  
    24   21   23 1  
    25   23   24 1  
    26   24   25 1  
    27   24   31 1  
    28   25   26 1  
    29   27   26 1  
    30   27   28 1  
    31   31   27 1  
    32   29   28 1  
    33   30   29 1  
    34   31   30 1  
    35   38   32 1  
    36   33   34 ar 
    37   33   38 ar 
    38   34   35 ar 
    39   35   36 ar 
    40   36   37 ar 
    41   37   38 ar 
    42    1   39 1  
    43    1   40 1  
    44    3   41 1  
    45    4   42 1  
    46    6   43 1  
    47    7   44 1  
    48   12   45 1  
    49   12   46 1  
    50   13   47 1  
    51   14   48 1  
    52   14   49 1  
    53   14   50 1  
    54   15   51 1  
    55   15   52 1  
    56   15   53 1  
    57   16   54 1  
    58   16   55 1  
    59   17   56 1  
    60   18   57 1  
    61   19   58 1  
    62   20   59 1  
    63   24   60 1  
    64   25   61 1  
    65   25   62 1  
    66   27   63 1  
    67   29   64 1  
    68   29   65 1  
    69   30   66 1  
    70   30   67 1  
    71   31   68 1  
    72   32   69 1  
    73   32   70 1  
    74   33   71 1  
    75   34   72 1  
    76   35   73 1  
    77   36   74 1  
    78   37   75 1  
@<TRIPOS>SUBSTRUCTURE
     1 017         1

