### 
### Created by X-TOOL on Mon Sep 10 21:13:05 2018
### 

@<TRIPOS>MOLECULE
3pww_ligand
  100   104     1     0     0
SMALL
GAST_HUCK


@<TRIPOS>ATOM
      1 C          -3.8230    3.0390    6.5360 C.2       1 ROC         0.2293
      2 O          -3.4140    3.3890    5.3210 O.2       1 ROC        -0.3762
      3 N1         -5.6860    1.5970    5.7010 N.ar      1 ROC        -0.2737
      4 C2         -4.6260    1.7350    6.5600 C.ar      1 ROC         0.1219
      5 C3         -4.3070    0.6970    7.4450 C.ar      1 ROC        -0.0136
      6 C4         -5.0640   -0.4670    7.4460 C.ar      1 ROC        -0.0314
      7 C5         -6.9150   -1.7640    6.5690 C.ar      1 ROC        -0.0444
      8 C6         -7.9870   -1.8750    5.6920 C.ar      1 ROC        -0.0546
      9 C7         -8.2960   -0.8450    4.8270 C.ar      1 ROC        -0.0545
     10 C8         -7.5120    0.3330    4.8280 C.ar      1 ROC        -0.0370
     11 C4A        -6.1360   -0.5970    6.5780 C.ar      1 ROC         0.0097
     12 C8A        -6.4490    0.4400    5.7000 C.ar      1 ROC         0.0527
     13 N          -3.7350    3.5710    7.7830 N.am      1 ROC        -0.2600
     14 CA         -3.1770    4.8980    7.8610 C.3       1 ROC         0.1473
     15 C1         -2.2680    5.0170    9.0860 C.2       1 ROC         0.2045
     16 O1         -2.6590    5.9510    9.9580 O.2       1 ROC        -0.3943
     17 CB         -4.2870    5.9570    7.8020 C.3       1 ROC         0.0773
     18 CG         -4.8080    6.1730    6.3620 C.2       1 ROC         0.1780
     19 OD1        -3.8630    6.6760    5.5290 O.2       1 ROC        -0.3970
     20 ND2        -6.1180    5.8030    6.2770 N.am      1 ROC        -0.3007
     21 C9          0.9120    4.9110   10.0310 C.3       1 ROC         0.1194
     22 O2          1.7150    4.7790   11.1660 O.3       1 ROC        -0.3840
     23 CA1        -0.3360    4.0370   10.2270 C.3       1 ROC         0.0823
     24 N2         -1.2060    4.1270    9.0320 N.am      1 ROC        -0.2772
     25 CB1        -0.0480    2.5940   10.6310 C.3       1 ROC         0.0066
     26 CG1        -1.3570    1.7950   10.8180 C.ar      1 ROC        -0.0408
     27 CD1        -2.4380    2.3340   11.4900 C.ar      1 ROC        -0.0603
     28 CD2        -1.4490    0.4990   10.3080 C.ar      1 ROC        -0.0603
     29 CE1        -3.6220    1.5790   11.6540 C.ar      1 ROC        -0.0686
     30 CE2        -2.6290   -0.2520   10.4680 C.ar      1 ROC        -0.0686
     31 CZ         -3.7080    0.2910   11.1390 C.ar      1 ROC        -0.0687
     32 N11         1.6050    7.2440    9.4440 N.4       1 ROC         0.2562
     33 CM          0.5110    6.3500    9.8860 C.3       1 ROC        -0.0008
     34 C21         2.6830    7.4200   10.4590 C.3       1 ROC         0.0688
     35 CC          2.2520    7.8100   11.8650 C.2       1 ROC         0.2251
     36 O3          0.9860    8.1400   12.0230 O.2       1 ROC        -0.3909
     37 C31         3.7160    8.4030    9.9380 C.3       1 ROC         0.0113
     38 C3A         3.1960    9.7200    9.4160 C.3       1 ROC        -0.0261
     39 C41         2.7960   10.6620   10.5700 C.3       1 ROC        -0.0494
     40 C51         2.2350   11.9500   10.1080 C.3       1 ROC        -0.0528
     41 C61         1.0770   11.7350    9.1480 C.3       1 ROC        -0.0526
     42 C71         1.4350   10.7860    8.0010 C.3       1 ROC        -0.0451
     43 C7A         2.0850    9.4930    8.4360 C.3       1 ROC         0.0024
     44 C81         1.0290    8.5180    8.9910 C.3       1 ROC        -0.0266
     45 N3          3.3120    7.7420   12.7660 N.am      1 ROC        -0.2771
     46 CD          3.1440    8.1630   14.1980 C.3       1 ROC         0.0448
     47 C11         4.4580    7.9090   14.8570 C.3       1 ROC        -0.0396
     48 C22         2.0700    7.3580   14.8740 C.3       1 ROC        -0.0396
     49 C32         2.8060    9.6380   14.2990 C.3       1 ROC        -0.0396
     50 H1         -3.4713    0.8023    8.1273 H         1 ROC         0.0729
     51 H2         -4.8162   -1.2741    8.1259 H         1 ROC         0.0774
     52 H3         -6.6808   -2.5780    7.2454 H         1 ROC         0.0657
     53 H4         -8.5859   -2.7785    5.6872 H         1 ROC         0.0652
     54 H5         -9.1366   -0.9381    4.1490 H         1 ROC         0.0657
     55 H6         -7.7451    1.1449    4.1487 H         1 ROC         0.0653
     56 H7         -4.0382    3.0734    8.5957 H         1 ROC         0.1882
     57 H8         -2.5439    5.0474    6.9740 H         1 ROC         0.0826
     58 H9         -3.8892    6.9096    8.1820 H         1 ROC         0.0551
     59 H10        -5.1237    5.6298    8.4367 H         1 ROC         0.0551
     60 H11        -6.6045    5.8822    5.4069 H         1 ROC         0.1814
     61 H12        -6.5920    5.4526    7.0848 H         1 ROC         0.1814
     62 H13         1.4624    4.5851    9.1361 H         1 ROC         0.0672
     63 H14         1.9650    3.8686   11.2715 H         1 ROC         0.2101
     64 H15        -0.8966    4.4785   11.0641 H         1 ROC         0.0606
     65 H16        -1.0348    3.5692    8.2199 H         1 ROC         0.1857
     66 H17         0.5124    2.5913   11.5775 H         1 ROC         0.0449
     67 H18         0.5557    2.1151    9.8460 H         1 ROC         0.0449
     68 H19        -2.3777    3.3387   11.8925 H         1 ROC         0.0557
     69 H20        -0.6042    0.0668    9.7840 H         1 ROC         0.0557
     70 H21        -4.4659    2.0063   12.1834 H         1 ROC         0.0599
     71 H22        -2.6911   -1.2563   10.0648 H         1 ROC         0.0599
     72 H23        -4.6177   -0.2852   11.2632 H         1 ROC         0.0559
     73 H24         2.0374    6.8101    8.6435 H         1 ROC         0.2057
     74 H25         0.1471    6.7065   10.8609 H         1 ROC         0.0841
     75 H26        -0.3019    6.4087    9.1473 H         1 ROC         0.0841
     76 H27         3.1761    6.4413   10.5534 H         1 ROC         0.1100
     77 H28         4.2603    7.9113    9.1183 H         1 ROC         0.0348
     78 H29         4.4122    8.6223   10.7609 H         1 ROC         0.0348
     79 H30         4.0170   10.2082    8.8705 H         1 ROC         0.0309
     80 H31         3.6895   10.8686   11.1774 H         1 ROC         0.0268
     81 H32         2.0412   10.1547   11.1888 H         1 ROC         0.0268
     82 H33         3.0234   12.5213    9.5961 H         1 ROC         0.0265
     83 H34         1.8773   12.5182   10.9793 H         1 ROC         0.0265
     84 H35         0.7854   12.7070    8.7236 H         1 ROC         0.0265
     85 H36         0.2301   11.3097    9.7064 H         1 ROC         0.0265
     86 H37         2.1287   11.3090    7.3263 H         1 ROC         0.0270
     87 H38         0.5107   10.5399    7.4577 H         1 ROC         0.0270
     88 H39         2.5280    9.0292    7.5423 H         1 ROC         0.0355
     89 H40         0.5235    8.9966    9.8427 H         1 ROC         0.0818
     90 H41         0.2947    8.3088    8.1991 H         1 ROC         0.0818
     91 H42         4.2010    7.4068   12.4539 H         1 ROC         0.1859
     92 H43         4.3991    8.1994   15.9163 H         1 ROC         0.0254
     93 H44         5.2392    8.5008   14.3575 H         1 ROC         0.0254
     94 H45         4.7046    6.8396   14.7832 H         1 ROC         0.0254
     95 H46         1.9685    7.6864   15.9189 H         1 ROC         0.0254
     96 H47         2.3404    6.2920   14.8494 H         1 ROC         0.0254
     97 H48         1.1150    7.5063   14.3486 H         1 ROC         0.0254
     98 H49         2.6894    9.9158   15.3569 H         1 ROC         0.0254
     99 H50         1.8667    9.8366   13.7621 H         1 ROC         0.0254
    100 H51         3.6168   10.2315   13.8513 H         1 ROC         0.0254
@<TRIPOS>BOND
     1    1    2 2  
     2    1    4 1  
     3   13    1 am 
     4    4    3 ar 
     5    3   12 ar 
     6    4    5 ar 
     7    5    6 ar 
     8    6   11 ar 
     9    7    8 ar 
    10   11    7 ar 
    11    9    8 ar 
    12   10    9 ar 
    13   12   10 ar 
    14   12   11 ar 
    15   14   13 1  
    16   15   14 1  
    17   14   17 1  
    18   15   16 2  
    19   24   15 am 
    20   17   18 1  
    21   18   19 2  
    22   18   20 am 
    23   21   22 1  
    24   23   21 1  
    25   21   33 1  
    26   23   24 1  
    27   23   25 1  
    28   25   26 1  
    29   26   27 ar 
    30   26   28 ar 
    31   27   29 ar 
    32   28   30 ar 
    33   29   31 ar 
    34   30   31 ar 
    35   33   32 1  
    36   32   34 1  
    37   32   44 1  
    38   34   35 1  
    39   34   37 1  
    40   35   36 2  
    41   35   45 am 
    42   37   38 1  
    43   38   39 1  
    44   38   43 1  
    45   39   40 1  
    46   40   41 1  
    47   41   42 1  
    48   42   43 1  
    49   43   44 1  
    50   45   46 1  
    51   46   47 1  
    52   46   48 1  
    53   46   49 1  
    54    5   50 1  
    55    6   51 1  
    56    7   52 1  
    57    8   53 1  
    58    9   54 1  
    59   10   55 1  
    60   13   56 1  
    61   14   57 1  
    62   17   58 1  
    63   17   59 1  
    64   20   60 1  
    65   20   61 1  
    66   21   62 1  
    67   22   63 1  
    68   23   64 1  
    69   24   65 1  
    70   25   66 1  
    71   25   67 1  
    72   27   68 1  
    73   28   69 1  
    74   29   70 1  
    75   30   71 1  
    76   31   72 1  
    77   32   73 1  
    78   33   74 1  
    79   33   75 1  
    80   34   76 1  
    81   37   77 1  
    82   37   78 1  
    83   38   79 1  
    84   39   80 1  
    85   39   81 1  
    86   40   82 1  
    87   40   83 1  
    88   41   84 1  
    89   41   85 1  
    90   42   86 1  
    91   42   87 1  
    92   43   88 1  
    93   44   89 1  
    94   44   90 1  
    95   45   91 1  
    96   47   92 1  
    97   47   93 1  
    98   47   94 1  
    99   48   95 1  
   100   48   96 1  
   101   48   97 1  
   102   49   98 1  
   103   49   99 1  
   104   49  100 1  
@<TRIPOS>SUBSTRUCTURE
     1 ROC         1

