### 
### Created by X-TOOL on Mon Sep 10 21:13:07 2018
### 

@<TRIPOS>MOLECULE
3px8_ligand
   20    21     1     0     0
SMALL
GAST_HUCK


@<TRIPOS>ATOM
      1 C1          2.7170    3.3470    8.4280 C.cat     1 JP2         0.1736
      2 N1          3.7870    3.0330    9.1810 N.pl3     1 JP2        -0.3400
      3 O1         -0.7260    3.1600    8.4760 O.2       1 JP2        -0.3809
      4 C2          0.4810    3.4130    8.1150 C.2       1 JP2         0.2268
      5 N2          1.4880    3.0590    8.8930 N.am      1 JP2        -0.2593
      6 O2          2.6270    6.7300    3.2230 O.co2     1 JP2        -0.2482
      7 C3          0.6120    4.1400    6.8760 C.ar      1 JP2         0.1795
      8 N3          2.9620    3.9920    7.2640 N.pl3     1 JP2        -0.2590
      9 O3          0.4800    6.9920    2.8640 O.co2     1 JP2        -0.2482
     10 C4          1.9460    4.4350    6.4460 C.ar      1 JP2         0.1861
     11 N4          2.2430    5.1690    5.3630 N.ar      1 JP2        -0.2265
     12 C5          1.1650    5.6570    4.6570 C.ar      1 JP2         0.1700
     13 N5         -0.4560    4.5010    6.0610 N.ar      1 JP2        -0.2579
     14 C6         -0.2060    5.2730    4.9930 C.ar      1 JP2         0.0549
     15 C7          1.4120    6.4790    3.4980 C.2       1 JP2         0.4003
     16 H1          3.6597    2.5416   10.0772 H         1 JP2         0.1738
     17 H2          4.7334    3.2841    8.8612 H         1 JP2         0.1738
     18 H3          1.3457    2.6053    9.7727 H         1 JP2         0.1812
     19 H4          3.9385    4.1569    6.9808 H         1 JP2         0.2121
     20 H5         -1.0270    5.6153    4.3735 H         1 JP2         0.0880
@<TRIPOS>BOND
     1    1    2 ar 
     2    1    5 ar 
     3    8    1 ar 
     4    4    3 2  
     5    4    5 am 
     6    7    4 1  
     7   15    6 ar 
     8   10    7 ar 
     9    7   13 ar 
    10   10    8 1  
    11   15    9 ar 
    12   11   10 ar 
    13   12   11 ar 
    14   12   14 ar 
    15   12   15 1  
    16   13   14 ar 
    17    2   16 1  
    18    2   17 1  
    19    5   18 1  
    20    8   19 1  
    21   14   20 1  
@<TRIPOS>SUBSTRUCTURE
     1 JP2         1

