### 
### Created by X-TOOL on Mon Sep 10 21:13:06 2018
### 

@<TRIPOS>MOLECULE
3px9_ligand
   32    34     1     0     0
SMALL
GAST_HUCK


@<TRIPOS>ATOM
      1 C1          2.3470    3.3540    8.2080 C.cat     1 JP3         0.2138
      2 N1          3.4230    3.0270    8.9430 N.pl3     1 JP3        -0.3290
      3 O1         -1.0910    3.0780    8.3460 O.2       1 JP3        -0.3303
      4 C2          0.0260    3.3730    7.9340 C.2       1 JP3         0.2950
      5 N2          1.1140    3.0350    8.6890 N.am      1 JP3        -0.2380
      6 O2          2.0710    6.4430    2.8140 O.2       1 JP3        -0.3486
      7 C3          0.2010    4.0560    6.6400 C.ar      1 JP3         0.2799
      8 N3          2.5670    3.9670    7.0280 N.pl3     1 JP3        -0.1995
      9 O3          0.4960    9.8460    2.3590 O.3       1 JP3        -0.2667
     10 C4          1.5660    4.3670    6.2240 C.ar      1 JP3         0.2981
     11 N4          1.7750    5.0150    5.0570 N.ar      1 JP3        -0.1376
     12 C5          0.6870    5.3760    4.3060 C.ar      1 JP3         0.2243
     13 N5         -0.8200    4.4160    5.8540 N.ar      1 JP3        -0.1647
     14 C6         -0.6080    5.0930    4.7240 C.ar      1 JP3         0.1335
     15 N6         -0.0900    6.7980    2.4580 N.am      1 JP3        -0.2620
     16 C7          0.9080    6.2020    3.1090 C.2       1 JP3         0.2737
     17 C8          0.1450    7.5230    1.1800 C.3       1 JP3         0.0950
     18 C9         -0.0420    9.0450    1.3420 C.2       1 JP3         0.1174
     19 C10        -0.7670    9.8910    0.4730 C.2       1 JP3        -0.0685
     20 C11        -0.6740   11.1850    0.9860 C.2       1 JP3        -0.0808
     21 C12         0.1010   11.1670    2.1490 C.2       1 JP3         0.0670
     22 H1          3.3025    2.5572    9.8517 H         1 JP3         0.1802
     23 H2          4.3684    3.2461    8.5978 H         1 JP3         0.1802
     24 H3          1.0077    2.5682    9.5669 H         1 JP3         0.1859
     25 H4          3.5387    4.1355    6.7308 H         1 JP3         0.2608
     26 H5         -1.4509    5.4243    4.1283 H         1 JP3         0.1513
     27 H6         -1.0151    6.7573    2.8356 H         1 JP3         0.1896
     28 H7         -0.5665    7.1552    0.4260 H         1 JP3         0.0716
     29 H8          1.1728    7.3246    0.8419 H         1 JP3         0.0716
     30 H9         -1.2987    9.5894   -0.4283 H         1 JP3         0.0219
     31 H10        -1.1333   12.0704    0.5488 H         1 JP3         0.0296
     32 H11         0.3497   12.0236    2.7738 H         1 JP3         0.0854
@<TRIPOS>BOND
     1    1    2 ar 
     2    1    5 ar 
     3    8    1 ar 
     4    4    3 2  
     5    4    5 am 
     6    7    4 1  
     7   16    6 2  
     8   10    7 ar 
     9   13    7 ar 
    10   10    8 1  
    11   18    9 1  
    12    9   21 1  
    13   11   10 ar 
    14   12   11 ar 
    15   12   14 ar 
    16   16   12 1  
    17   14   13 ar 
    18   15   16 am 
    19   17   15 1  
    20   17   18 1  
    21   18   19 2  
    22   19   20 1  
    23   20   21 2  
    24    2   22 1  
    25    2   23 1  
    26    5   24 1  
    27    8   25 1  
    28   14   26 1  
    29   15   27 1  
    30   17   28 1  
    31   17   29 1  
    32   19   30 1  
    33   20   31 1  
    34   21   32 1  
@<TRIPOS>SUBSTRUCTURE
     1 JP3         1

