### 
### Created by X-TOOL on Fri Sep 26 17:34:51 2014
### 

@<TRIPOS>MOLECULE
3pxf_ligand
   33    35     1     0     0
SMALL
GAST_HUCK


@<TRIPOS>ATOM
      1 C1        122.8060  133.7390   64.7520 C.ar      1 MOL         0.0730
      2 C2        123.1690  132.5480   64.0390 C.ar      1 MOL        -0.0412
      3 C3        122.1960  131.7260   63.4460 C.ar      1 MOL        -0.0768
      4 C4        120.8370  132.0570   63.5310 C.ar      1 MOL        -0.0703
      5 C5        120.3990  133.2200   64.2130 C.ar      1 MOL        -0.0263
      6 C6        119.0110  133.5290   64.2760 C.ar      1 MOL        -0.0593
      7 C7        118.5460  134.6700   64.9420 C.ar      1 MOL        -0.0629
      8 C8        119.4530  135.5370   65.5670 C.ar      1 MOL        -0.0420
      9 N         123.7480  134.4790   65.2890 N.pl3     1 MOL        -0.2710
     10 S         121.8640  136.4760   66.3950 S.o2      1 MOL        -0.1624
     11 C9        120.8460  135.2870   65.5420 C.ar      1 MOL         0.0589
     12 C10       121.3810  134.1110   64.8550 C.ar      1 MOL         0.0329
     13 C11       124.6910  134.0930   66.1350 C.ar      1 MOL         0.0604
     14 C12       124.6230  132.8740   66.9080 C.ar      1 MOL        -0.0391
     15 C13       125.6750  132.5270   67.8100 C.ar      1 MOL        -0.0719
     16 C14       126.8000  133.3920   67.9490 C.ar      1 MOL        -0.0738
     17 C15       126.8720  134.5920   67.1900 C.ar      1 MOL        -0.0719
     18 C16       125.8240  134.9400   66.2910 C.ar      1 MOL        -0.0391
     19 O1        122.7930  137.0720   65.4610 O.co2     1 MOL        -0.4795
     20 O2        122.5480  135.7720   67.4650 O.co2     1 MOL        -0.4795
     21 O3        120.9010  137.6330   67.0540 O.co2     1 MOL        -0.4795
     22 H1        124.2153  132.2769   63.9561 H         1 MOL         0.0480
     23 H2        122.4990  130.8287   62.9186 H         1 MOL         0.0576
     24 H3        120.1039  131.4089   63.0646 H         1 MOL         0.0477
     25 H4        118.2982  132.8667   63.7981 H         1 MOL         0.0595
     26 H5        117.4836  134.8829   64.9742 H         1 MOL         0.0613
     27 H6        119.0802  136.4164   66.0796 H         1 MOL         0.0604
     28 H7        123.7544  135.4737   65.0218 H         1 MOL         0.2117
     29 H8        123.7668  132.2176   66.8026 H         1 MOL         0.0532
     30 H9        125.6183  131.6105   68.3860 H         1 MOL         0.0586
     31 H10       127.6003  133.1347   68.6333 H         1 MOL         0.0516
     32 H11       127.7299  135.2460   67.2963 H         1 MOL         0.0586
     33 H12       125.8898  135.8590   65.7199 H         1 MOL         0.0532
@<TRIPOS>BOND
     1    1    2 ar 
     2    1    9 1  
     3    1   12 ar 
     4    2    3 ar 
     5    3    4 ar 
     6    4    5 ar 
     7    5    6 ar 
     8    5   12 ar 
     9    6    7 ar 
    10    7    8 ar 
    11    8   11 ar 
    12    9   13 1  
    13   11   10 1  
    14   10   19 ar 
    15   10   20 ar 
    16   10   21 ar 
    17   11   12 ar 
    18   13   14 ar 
    19   13   18 ar 
    20   14   15 ar 
    21   15   16 ar 
    22   16   17 ar 
    23   17   18 ar 
    24    2   22 1  
    25    3   23 1  
    26    4   24 1  
    27    6   25 1  
    28    7   26 1  
    29    8   27 1  
    30    9   28 1  
    31   14   29 1  
    32   15   30 1  
    33   16   31 1  
    34   17   32 1  
    35   18   33 1  
@<TRIPOS>SUBSTRUCTURE
     1 MOL         1

