### 
### Created by X-TOOL on Mon Sep 10 21:13:06 2018
### 

@<TRIPOS>MOLECULE
3pxq_ligand
   33    35     1     0     0
SMALL
GAST_HUCK


@<TRIPOS>ATOM
      1 C1        104.9440   95.3900   28.9750 C.ar      1 2AN         0.0730
      2 C2        103.9580   95.2590   30.0180 C.ar      1 2AN        -0.0412
      3 C3        103.7660   96.2760   30.9680 C.ar      1 2AN        -0.0768
      4 C4        104.5490   97.4480   30.9220 C.ar      1 2AN        -0.0703
      5 C5        105.5420   97.6360   29.9210 C.ar      1 2AN        -0.0263
      6 C6        106.3200   98.8230   29.9000 C.ar      1 2AN        -0.0593
      7 C7        107.3100   99.0300   28.9110 C.ar      1 2AN        -0.0629
      8 C8        107.5410   98.0600   27.9180 C.ar      1 2AN        -0.0420
      9 N         105.1300   94.4420   28.0950 N.pl3     1 2AN        -0.2710
     10 S         107.1630   95.6970   26.5620 S.o2      1 2AN        -0.1624
     11 C9        106.7920   96.8520   27.8900 C.ar      1 2AN         0.0589
     12 C10       105.7630   96.6000   28.9060 C.ar      1 2AN         0.0329
     13 C11       104.2520   93.6650   27.5200 C.ar      1 2AN         0.0604
     14 C12       102.9390   94.1040   27.1400 C.ar      1 2AN        -0.0391
     15 C13       102.0440   93.2010   26.5030 C.ar      1 2AN        -0.0719
     16 C14       102.4440   91.8670   26.2350 C.ar      1 2AN        -0.0738
     17 C15       103.7360   91.4280   26.6020 C.ar      1 2AN        -0.0719
     18 C16       104.6380   92.3250   27.2420 C.ar      1 2AN        -0.0391
     19 O1        105.9730   95.5280   25.7480 O.co2     1 2AN        -0.4795
     20 O2        107.5590   94.3990   27.0900 O.co2     1 2AN        -0.4795
     21 O3        108.3760   96.2870   25.6400 O.co2     1 2AN        -0.4795
     22 H1        103.3542   94.3603   30.0703 H         1 2AN         0.0480
     23 H2        103.0132   96.1594   31.7392 H         1 2AN         0.0576
     24 H3        104.3909   98.2215   31.6648 H         1 2AN         0.0477
     25 H4        106.1528   99.5834   30.6542 H         1 2AN         0.0595
     26 H5        107.8950   99.9426   28.9181 H         1 2AN         0.0613
     27 H6        108.3001   98.2362   27.1645 H         1 2AN         0.0604
     28 H7        106.1087   94.2853   27.8150 H         1 2AN         0.2117
     29 H8        102.6299   95.1238   27.3387 H         1 2AN         0.0532
     30 H9        101.0516   93.5338   26.2210 H         1 2AN         0.0586
     31 H10       101.7579   91.1834   25.7481 H         1 2AN         0.0516
     32 H11       104.0406   90.4082   26.3963 H         1 2AN         0.0586
     33 H12       105.6284   91.9830   27.5199 H         1 2AN         0.0532
@<TRIPOS>BOND
     1    1    2 ar 
     2    1    9 1  
     3    1   12 ar 
     4    2    3 ar 
     5    3    4 ar 
     6    4    5 ar 
     7    5    6 ar 
     8    5   12 ar 
     9    6    7 ar 
    10    7    8 ar 
    11    8   11 ar 
    12    9   13 1  
    13   11   10 1  
    14   10   19 ar 
    15   10   20 ar 
    16   10   21 ar 
    17   11   12 ar 
    18   13   14 ar 
    19   13   18 ar 
    20   14   15 ar 
    21   15   16 ar 
    22   16   17 ar 
    23   17   18 ar 
    24    2   22 1  
    25    3   23 1  
    26    4   24 1  
    27    6   25 1  
    28    7   26 1  
    29    8   27 1  
    30    9   28 1  
    31   14   29 1  
    32   15   30 1  
    33   16   31 1  
    34   17   32 1  
    35   18   33 1  
@<TRIPOS>SUBSTRUCTURE
     1 2AN         1

