### 
### Created by X-TOOL on Mon Sep 10 21:13:07 2018
### 

@<TRIPOS>MOLECULE
3pxy_ligand
   28    29     1     0     0
SMALL
GAST_HUCK


@<TRIPOS>ATOM
      1 N1         62.2180   81.5410  -82.3630 N.ar      1 JWS        -0.2236
      2 C2         63.2220   80.6550  -82.0750 C.ar      1 JWS         0.1792
      3 N3         63.3140   80.0940  -80.8500 N.pl3     1 JWS        -0.3011
      4 N4         64.1460   80.3290  -83.0440 N.ar      1 JWS        -0.2470
      5 C5         64.0650   80.8850  -84.3020 C.ar      1 JWS         0.0997
      6 C6         65.0670   80.5150  -85.3490 C.ar      1 JWS         0.0419
      7 C7         65.0210   81.0600  -86.7050 C.ar      1 JWS         0.0979
      8 O8         64.0340   81.9470  -87.0430 O.3       1 JWS        -0.3329
      9 C9         66.0080   80.6540  -87.6650 C.ar      1 JWS        -0.0330
     10 C10        67.0470   79.7180  -87.2980 C.ar      1 JWS        -0.0352
     11 C11        67.1310   79.1530  -85.9400 C.ar      1 JWS         0.0858
     12 O12        68.1050   78.3130  -85.6710 O.3       1 JWS        -0.3270
     13 C13        66.1060   79.5850  -84.9960 C.ar      1 JWS        -0.0234
     14 N14        63.0500   81.7720  -84.5740 N.ar      1 JWS        -0.2470
     15 C15        62.1300   82.1070  -83.6200 C.ar      1 JWS         0.1792
     16 N16        61.1570   82.9780  -83.9190 N.pl3     1 JWS        -0.3011
     17 C17        69.1080   77.9040  -86.6280 C.3       1 JWS         0.0571
     18 H1         62.6267   80.3332  -80.1211 H         1 JWS         0.1859
     19 H2         64.0714   79.4269  -80.6446 H         1 JWS         0.1859
     20 H3         63.1860   81.5346  -86.9274 H         1 JWS         0.2485
     21 H4         65.9741   81.0522  -88.6727 H         1 JWS         0.0534
     22 H5         67.7815   79.4251  -88.0395 H         1 JWS         0.0567
     23 H6         66.1283   79.1889  -83.9872 H         1 JWS         0.0563
     24 H7         60.4597   83.2359  -83.2061 H         1 JWS         0.1859
     25 H8         61.1062   83.3897  -84.8618 H         1 JWS         0.1859
     26 H9         69.8040   77.1984  -86.1507 H         1 JWS         0.0573
     27 H10        69.6632   78.7870  -86.9773 H         1 JWS         0.0573
     28 H11        68.6202   77.4152  -87.4842 H         1 JWS         0.0573
@<TRIPOS>BOND
     1    1    2 ar 
     2    1   15 ar 
     3    2    3 1  
     4    2    4 ar 
     5    4    5 ar 
     6    5    6 1  
     7    5   14 ar 
     8    6    7 ar 
     9    6   13 ar 
    10    7    8 1  
    11    7    9 ar 
    12    9   10 ar 
    13   10   11 ar 
    14   11   12 1  
    15   11   13 ar 
    16   12   17 1  
    17   14   15 ar 
    18   15   16 1  
    19    3   18 1  
    20    3   19 1  
    21    8   20 1  
    22    9   21 1  
    23   10   22 1  
    24   13   23 1  
    25   16   24 1  
    26   16   25 1  
    27   17   26 1  
    28   17   27 1  
    29   17   28 1  
@<TRIPOS>SUBSTRUCTURE
     1 JWS         1

