### 
### Created by X-TOOL on Mon Sep 10 21:13:07 2018
### 

@<TRIPOS>MOLECULE
3pxz_ligand
   28    29     1     0     0
SMALL
GAST_HUCK


@<TRIPOS>ATOM
      1 N1        101.6020   93.9180   29.4980 N.ar      1 JWS        -0.2236
      2 C2        102.7310   93.8220   28.7100 C.ar      1 JWS         0.1792
      3 N3        102.8520   92.8460   27.7960 N.pl3     1 JWS        -0.3011
      4 N4        103.7420   94.7390   28.8540 N.ar      1 JWS        -0.2470
      5 C5        103.6270   95.7510   29.7850 C.ar      1 JWS         0.0997
      6 C6        104.7090   96.7620   29.9230 C.ar      1 JWS         0.0419
      7 C7        104.6080   97.8510   30.8790 C.ar      1 JWS         0.0979
      8 O8        103.5030   97.9560   31.6850 O.3       1 JWS        -0.3329
      9 C9        105.6770   98.8170   30.9550 C.ar      1 JWS        -0.0330
     10 C10       106.8070   98.7060   30.1070 C.ar      1 JWS        -0.0352
     11 C11       106.9420   97.6380   29.1440 C.ar      1 JWS         0.0858
     12 O12       108.0130   97.6190   28.3920 O.3       1 JWS        -0.3270
     13 C13       105.8570   96.6670   29.0820 C.ar      1 JWS        -0.0234
     14 N14       102.4980   95.8260   30.5640 N.ar      1 JWS        -0.2470
     15 C15       101.4920   94.9300   30.4310 C.ar      1 JWS         0.1792
     16 N16       100.4080   95.0470   31.2090 N.pl3     1 JWS        -0.3011
     17 C17       109.0460   98.6150   28.4860 C.3       1 JWS         0.0571
     18 H         102.1037   92.1631   27.6770 H         1 JWS         0.1859
     19 H         103.6922   92.7874   27.2206 H         1 JWS         0.1859
     20 H         102.7186   98.0516   31.1398 H         1 JWS         0.2485
     21 H         105.6150   99.6378   31.6695 H         1 JWS         0.0534
     22 H         107.5995   99.4503   30.1839 H         1 JWS         0.0567
     23 H         105.9249   95.8433   28.3714 H         1 JWS         0.0563
     24 H         100.3485   95.8037   31.8903 H         1 JWS         0.1859
     25 H          99.6420   94.3794   31.1201 H         1 JWS         0.1859
     26 H         108.6232   99.5965   28.2715 H         1 JWS         0.0573
     27 H         109.4633   98.6099   29.4929 H         1 JWS         0.0573
     28 H         109.8317   98.3909   27.7645 H         1 JWS         0.0573
@<TRIPOS>BOND
     1    1    2 ar 
     2    1   15 ar 
     3    2    3 1  
     4    2    4 ar 
     5    4    5 ar 
     6    5    6 1  
     7    5   14 ar 
     8    6    7 ar 
     9    6   13 ar 
    10    7    8 1  
    11    7    9 ar 
    12    9   10 ar 
    13   10   11 ar 
    14   11   12 1  
    15   11   13 ar 
    16   12   17 1  
    17   14   15 ar 
    18   15   16 1  
    19    3   18 1  
    20    3   19 1  
    21    8   20 1  
    22    9   21 1  
    23   10   22 1  
    24   13   23 1  
    25   16   24 1  
    26   16   25 1  
    27   17   26 1  
    28   17   27 1  
    29   17   28 1  
@<TRIPOS>SUBSTRUCTURE
     1 JWS         1

