### 
### Created by X-TOOL on Mon Sep 10 21:13:07 2018
### 

@<TRIPOS>MOLECULE
3py0_ligand
   29    31     1     0     0
SMALL
GAST_HUCK


@<TRIPOS>ATOM
      1 N5'       -89.8660   82.2950   84.6310 N.2       1 SU9        -0.3119
      2 C4'       -88.8190   82.6620   83.9150 C.2       1 SU9         0.1035
      3 N3'       -88.7660   81.9930   82.7400 N.pl3     1 SU9        -0.2516
      4 C2'       -89.8570   81.1500   82.7200 C.2       1 SU9         0.0622
      5 C1'       -90.5300   81.3540   83.9130 C.2       1 SU9         0.0352
      6 C6'       -91.7360   80.6270   84.2720 C.2       1 SU9        -0.0421
      7 C9        -92.5100   80.7020   85.4120 C.2       1 SU9         0.0377
      8 C8        -92.3520   81.5810   86.6120 C.2       1 SU9         0.2128
      9 O10       -91.5040   82.4490   86.8480 O.2       1 SU9        -0.3842
     10 N7        -93.3500   81.2880   87.5190 N.am      1 SU9        -0.2443
     11 C5        -94.1610   80.2770   86.9960 C.ar      1 SU9         0.0582
     12 C6        -95.2970   79.6550   87.5760 C.ar      1 SU9        -0.0514
     13 C1        -95.9440   78.6400   86.8200 C.ar      1 SU9        -0.0488
     14 C2        -95.5000   78.2250   85.5130 C.ar      1 SU9         0.0717
     15 O11       -96.2200   77.2280   84.8840 O.3       1 SU9        -0.3319
     16 C12       -95.5890   76.4120   83.8990 C.3       1 SU9         0.0560
     17 C3        -94.3440   78.8800   84.9680 C.ar      1 SU9        -0.0446
     18 C4        -93.6840   79.8950   85.7040 C.ar      1 SU9        -0.0099
     19 H1        -88.0909   83.4080   84.2300 H         1 SU9         0.1263
     20 H2        -88.0513   82.0937   82.0051 H         1 SU9         0.2474
     21 H3        -90.1344   80.4606   81.9240 H         1 SU9         0.1037
     22 H4        -92.0824   79.9129   83.5264 H         1 SU9         0.0715
     23 H5        -93.4732   81.7286   88.4082 H         1 SU9         0.2210
     24 H6        -95.6572   79.9427   88.5571 H         1 SU9         0.0472
     25 H7        -96.8138   78.1543   87.2473 H         1 SU9         0.0484
     26 H8        -96.3123   75.6794   83.5117 H         1 SU9         0.0571
     27 H9        -94.7378   75.8826   84.3519 H         1 SU9         0.0571
     28 H10       -95.2303   77.0446   83.0737 H         1 SU9         0.0571
     29 H11       -93.9747   78.5966   83.9891 H         1 SU9         0.0463
@<TRIPOS>BOND
     1    1    2 2  
     2    1    5 1  
     3    2    3 1  
     4    3    4 1  
     5    4    5 2  
     6    5    6 1  
     7    6    7 2  
     8    7    8 1  
     9    7   18 1  
    10    8    9 2  
    11    8   10 am 
    12   10   11 1  
    13   11   12 ar 
    14   11   18 ar 
    15   12   13 ar 
    16   13   14 ar 
    17   14   15 1  
    18   14   17 ar 
    19   15   16 1  
    20   17   18 ar 
    21    2   19 1  
    22    3   20 1  
    23    4   21 1  
    24    6   22 1  
    25   10   23 1  
    26   12   24 1  
    27   13   25 1  
    28   16   26 1  
    29   16   27 1  
    30   16   28 1  
    31   17   29 1  
@<TRIPOS>SUBSTRUCTURE
     1 SU9         1

