### 
### Created by X-TOOL on Mon Sep 10 21:13:07 2018
### 

@<TRIPOS>MOLECULE
3py1_ligand
   29    31     1     0     0
SMALL
GAST_HUCK


@<TRIPOS>ATOM
      1 N5'       -75.3620  -97.6910   29.6820 N.2       1 SU9        -0.3119
      2 C4'       -74.2540  -96.9760   29.7320 C.2       1 SU9         0.1035
      3 N3'       -74.3340  -95.8890   28.9310 N.pl3     1 SU9        -0.2516
      4 C2'       -75.5800  -95.9280   28.3340 C.2       1 SU9         0.0622
      5 C1'       -76.1990  -97.0590   28.8180 C.2       1 SU9         0.0352
      6 C6'       -77.5510  -97.4300   28.3990 C.2       1 SU9        -0.0421
      7 C9        -78.3200  -98.5040   28.7670 C.2       1 SU9         0.0377
      8 C8        -78.0230  -99.5640   29.6760 C.2       1 SU9         0.2128
      9 O10       -77.0040  -99.7570   30.3470 O.2       1 SU9        -0.3842
     10 N7        -79.0880 -100.4410   29.7370 N.am      1 SU9        -0.2443
     11 C5        -80.0970  -99.9890   28.8850 C.ar      1 SU9         0.0582
     12 C6        -81.3820 -100.5480   28.5950 C.ar      1 SU9        -0.0514
     13 C1        -82.2170  -99.8460   27.6640 C.ar      1 SU9        -0.0488
     14 C2        -81.8140  -98.6180   27.0200 C.ar      1 SU9         0.0717
     15 O11       -82.7100  -98.0280   26.1480 O.3       1 SU9        -0.3319
     16 C12       -82.3610  -96.8200   25.4930 C.3       1 SU9         0.0560
     17 C3        -80.5110  -98.1100   27.3460 C.ar      1 SU9        -0.0446
     18 C4        -79.6690  -98.7930   28.2680 C.ar      1 SU9        -0.0099
     19 H1        -73.3866  -97.2287   30.3401 H         1 SU9         0.1263
     20 H2        -73.6078  -95.1718   28.7928 H         1 SU9         0.2474
     21 H3        -75.9892  -95.2100   27.6248 H         1 SU9         0.1037
     22 H4        -78.0170  -96.7503   27.6872 H         1 SU9         0.0715
     23 H5        -79.1296 -101.2662   30.3003 H         1 SU9         0.2210
     24 H6        -81.7123 -101.4687   29.0621 H         1 SU9         0.0472
     25 H7        -83.1939 -100.2554   27.4335 H         1 SU9         0.0484
     26 H8        -83.1902  -96.5021   24.8438 H         1 SU9         0.0571
     27 H9        -81.4592  -96.9804   24.8838 H         1 SU9         0.0571
     28 H10       -82.1629  -96.0402   26.2431 H         1 SU9         0.0571
     29 H11       -80.1638  -97.1933   26.8833 H         1 SU9         0.0463
@<TRIPOS>BOND
     1    1    2 2  
     2    1    5 1  
     3    2    3 1  
     4    3    4 1  
     5    4    5 2  
     6    5    6 1  
     7    6    7 2  
     8    7    8 1  
     9    7   18 1  
    10    8    9 2  
    11    8   10 am 
    12   10   11 1  
    13   11   12 ar 
    14   11   18 ar 
    15   12   13 ar 
    16   13   14 ar 
    17   14   15 1  
    18   14   17 ar 
    19   15   16 1  
    20   17   18 ar 
    21    2   19 1  
    22    3   20 1  
    23    4   21 1  
    24    6   22 1  
    25   10   23 1  
    26   12   24 1  
    27   13   25 1  
    28   16   26 1  
    29   16   27 1  
    30   16   28 1  
    31   17   29 1  
@<TRIPOS>SUBSTRUCTURE
     1 SU9         1

