### 
### Created by X-TOOL on Mon Sep 10 21:13:06 2018
### 

@<TRIPOS>MOLECULE
3pyy_ligand
   38    41     1     0     0
SMALL
GAST_HUCK


@<TRIPOS>ATOM
      1 C1         18.1090   11.8270  -38.0900 C.ar      1 3YY        -0.0685
      2 C2         16.7900   11.5600  -38.3780 C.ar      1 3YY        -0.0656
      3 C3         18.7680   11.1360  -37.0980 C.ar      1 3YY        -0.0656
      4 C4         15.6560    5.0160  -33.7600 C.ar      1 3YY        -0.0570
      5 C5         17.3200    6.4920  -32.8980 C.ar      1 3YY        -0.0570
      6 C6         16.1170   10.5900  -37.6700 C.ar      1 3YY        -0.0253
      7 C7         18.1050   10.1660  -36.3810 C.ar      1 3YY        -0.0253
      8 C8         16.0930    4.0380  -32.8930 C.ar      1 3YY        -0.0285
      9 C9         17.7540    5.5080  -32.0270 C.ar      1 3YY        -0.0285
     10 C10        14.7680    8.7890  -35.8810 C.2       1 3YY         0.0682
     11 C11        16.2680    6.2470  -33.7640 C.ar      1 3YY        -0.0184
     12 C12        14.5540    7.7250  -35.0330 C.2       1 3YY         0.0236
     13 C13        16.7930    9.9100  -36.6890 C.ar      1 3YY         0.1098
     14 C14        17.1380    4.2780  -32.0300 C.ar      1 3YY         0.1318
     15 C15        15.8540    7.2950  -34.6530 C.2       1 3YY         0.0452
     16 C16        12.6630    6.2580  -35.6600 C.2       1 3YY         0.2360
     17 C17        11.2160    7.9820  -35.5040 C.2       1 3YY         0.2912
     18 C18        13.2470    7.1860  -34.6250 C.3       1 3YY         0.1583
     19 N19        16.8040    8.0430  -35.2290 N.2       1 3YY        -0.2030
     20 N20        16.1220    8.9300  -35.9620 N.pl3     1 3YY        -0.1707
     21 N21        11.5100    6.8060  -36.1320 N.am      1 3YY        -0.1822
     22 N22        12.2590    8.2460  -34.6560 N.am      1 3YY        -0.2406
     23 O23        13.1240    5.1740  -35.9740 O.2       1 3YY        -0.3826
     24 O24        10.2160    8.6570  -35.6920 O.2       1 3YY        -0.3913
     25 F25        17.5460    3.3010  -31.1790 F         1 3YY        -0.1838
     26 H1         18.6355   12.5906  -38.6510 H         1 3YY         0.0559
     27 H2         16.2822   12.1122  -39.1605 H         1 3YY         0.0600
     28 H3         19.8073   11.3556  -36.8820 H         1 3YY         0.0600
     29 H4         14.8329    4.8154  -34.4362 H         1 3YY         0.0603
     30 H5         17.8068    7.4606  -32.9022 H         1 3YY         0.0603
     31 H6         15.0773   10.3688  -37.8827 H         1 3YY         0.0588
     32 H7         18.6073    9.6178  -35.5922 H         1 3YY         0.0588
     33 H8         15.6081    3.0685  -32.8907 H         1 3YY         0.0603
     34 H9         18.5744    5.7053  -31.3465 H         1 3YY         0.0603
     35 H10        14.0128    9.3924  -36.3826 H         1 3YY         0.0897
     36 H11        13.3248    6.7073  -33.6377 H         1 3YY         0.0896
     37 H12        10.9473    6.3974  -36.8506 H         1 3YY         0.2256
     38 H13        12.3312    9.0835  -34.1144 H         1 3YY         0.1902
@<TRIPOS>BOND
     1    2    1 ar 
     2    3    1 ar 
     3    6    2 ar 
     4    7    3 ar 
     5    4    8 ar 
     6   11    4 ar 
     7    5    9 ar 
     8   11    5 ar 
     9   13    6 ar 
    10   13    7 ar 
    11    8   14 ar 
    12    9   14 ar 
    13   10   12 2  
    14   20   10 1  
    15   15   11 1  
    16   12   15 1  
    17   12   18 1  
    18   13   20 1  
    19   14   25 1  
    20   15   19 2  
    21   18   16 1  
    22   16   21 am 
    23   16   23 2  
    24   21   17 am 
    25   17   22 am 
    26   17   24 2  
    27   18   22 1  
    28   19   20 1  
    29    1   26 1  
    30    2   27 1  
    31    3   28 1  
    32    4   29 1  
    33    5   30 1  
    34    6   31 1  
    35    7   32 1  
    36    8   33 1  
    37    9   34 1  
    38   10   35 1  
    39   18   36 1  
    40   21   37 1  
    41   22   38 1  
@<TRIPOS>SUBSTRUCTURE
     1 3YY         1

