### 
### Created by X-TOOL on Mon Sep 10 21:13:06 2018
### 

@<TRIPOS>MOLECULE
3pz1_ligand
   67    71     1     0     0
SMALL
GAST_HUCK


@<TRIPOS>ATOM
      1 C1          2.9880   19.8490   27.5190 C.ar      1 3PZ         0.0575
      2 N1          5.9050   21.0360   27.2070 N.am      1 3PZ        -0.2191
      3 O1          6.6160   22.1000   29.4000 O.2       1 3PZ        -0.1514
      4 S1          6.5070   20.7580   28.7570 S.o2      1 3PZ         0.0675
      5 C2          3.3490   21.1820   27.6450 C.ar      1 3PZ         0.0062
      6 N2          3.7410   18.9610   26.8720 N.pl3     1 3PZ        -0.2908
      7 O2          7.8510   20.1140   28.6770 O.2       1 3PZ        -0.1514
      8 C3          2.5020   22.0840   28.2830 C.ar      1 3PZ        -0.0354
      9 N3          1.1570   16.5370   24.6630 N.2       1 3PZ        -0.3435
     10 O3          3.0040   17.4440   32.1090 O.3       1 3PZ        -0.3212
     11 C4          1.2790   21.6620   28.8070 C.ar      1 3PZ         0.0746
     12 N4          2.4670   15.5450   26.0420 N.pl3     1 3PZ        -0.2493
     13 C5          0.9040   20.3240   28.6850 C.ar      1 3PZ        -0.0449
     14 N5         -0.1890   23.4220   29.9800 N.1       1 3PZ        -0.3394
     15 C6          1.7510   19.4100   28.0350 C.ar      1 3PZ        -0.0376
     16 C7          4.6380   21.8520   27.1430 C.3       1 3PZ         0.0626
     17 C8          5.9850   19.8600   26.3160 C.3       1 3PZ         0.0720
     18 C9          4.6170   19.4080   25.7840 C.3       1 3PZ         0.0518
     19 C10         3.6880   17.5140   27.1190 C.3       1 3PZ         0.0826
     20 C11         2.6940   16.8550   26.1690 C.2       1 3PZ         0.0758
     21 C12         1.8800   17.4640   25.2990 C.2       1 3PZ        -0.0256
     22 C13         1.5320   15.3440   25.1320 C.2       1 3PZ         0.0898
     23 C14         3.1510   14.4450   26.8110 C.3       1 3PZ         0.0471
     24 C15         6.9700   20.1280   25.1570 C.3       1 3PZ         0.0029
     25 C16         5.8360   23.4920   22.6740 C.ar      1 3PZ        -0.0687
     26 C17         6.3850   23.7150   23.9370 C.ar      1 3PZ        -0.0686
     27 C18         6.7530   22.6370   24.7410 C.ar      1 3PZ        -0.0603
     28 C19         6.5720   21.3300   24.2850 C.ar      1 3PZ        -0.0411
     29 C20         6.0300   21.1100   23.0230 C.ar      1 3PZ        -0.0603
     30 C21         5.6630   22.1880   22.2180 C.ar      1 3PZ        -0.0686
     31 C22         3.8250   18.1990   31.3280 C.ar      1 3PZ         0.0908
     32 C23         3.6790   19.5830   31.3100 C.ar      1 3PZ        -0.0313
     33 C24         4.5090   20.3660   30.5230 C.ar      1 3PZ        -0.0440
     34 C25         5.4840   19.7570   29.7420 C.ar      1 3PZ         0.0973
     35 C26         5.6460   18.3720   29.7570 C.ar      1 3PZ        -0.0440
     36 C27         4.8080   17.5920   30.5520 C.ar      1 3PZ        -0.0313
     37 C28         1.6100   17.6560   31.7920 C.3       1 3PZ         0.0594
     38 C29         0.4440   22.6280   29.4630 C.1       1 3PZ         0.0844
     39 H1          2.7950   23.1237   28.3737 H         1 3PZ         0.0616
     40 H2         -0.0428   19.9884   29.0924 H         1 3PZ         0.0632
     41 H3          1.4549   18.3724   27.9307 H         1 3PZ         0.0525
     42 H4          4.4776   22.1335   26.0918 H         1 3PZ         0.0615
     43 H5          4.7967   22.7586   27.7453 H         1 3PZ         0.0615
     44 H6          6.3902   19.0285   26.9114 H         1 3PZ         0.0558
     45 H7          4.1393   20.2509   25.2632 H         1 3PZ         0.0539
     46 H8          4.7642   18.5769   25.0785 H         1 3PZ         0.0539
     47 H9          3.3728   17.3337   28.1573 H         1 3PZ         0.0697
     48 H10         4.6863   17.0809   26.9583 H         1 3PZ         0.0697
     49 H11         1.8169   18.5389   25.1358 H         1 3PZ         0.0325
     50 H12         1.1372   14.3784   24.8197 H         1 3PZ         0.1150
     51 H13         3.8855   14.8832   27.5027 H         1 3PZ         0.0583
     52 H14         3.6646   13.7716   26.1091 H         1 3PZ         0.0583
     53 H15         2.4024   13.8770   27.3828 H         1 3PZ         0.0583
     54 H16         7.0105   19.2326   24.5194 H         1 3PZ         0.0445
     55 H17         7.9658   20.3204   25.5828 H         1 3PZ         0.0445
     56 H18         5.5455   24.3300   22.0507 H         1 3PZ         0.0559
     57 H19         6.5258   24.7288   24.2941 H         1 3PZ         0.0599
     58 H20         7.1802   22.8140   25.7214 H         1 3PZ         0.0557
     59 H21         5.8923   20.0965   22.6638 H         1 3PZ         0.0557
     60 H22         5.2421   22.0102   21.2350 H         1 3PZ         0.0599
     61 H23         2.9114   20.0515   31.9152 H         1 3PZ         0.0542
     62 H24         4.3985   21.4443   30.5168 H         1 3PZ         0.0608
     63 H25         6.4176   17.9057   29.1551 H         1 3PZ         0.0608
     64 H26         4.9217   16.5141   30.5659 H         1 3PZ         0.0542
     65 H27         0.9859   17.0282   32.4450 H         1 3PZ         0.0577
     66 H28         1.4278   17.3866   30.7412 H         1 3PZ         0.0577
     67 H29         1.3552   18.7145   31.9486 H         1 3PZ         0.0577
@<TRIPOS>BOND
     1    5    1 ar 
     2    6    1 1  
     3    1   15 ar 
     4    4    2 am 
     5    2   16 1  
     6    2   17 1  
     7    4    3 2  
     8    4    7 2  
     9   34    4 1  
    10    5    8 ar 
    11   16    5 1  
    12   18    6 1  
    13    6   19 1  
    14    8   11 ar 
    15   21    9 1  
    16    9   22 2  
    17   31   10 1  
    18   10   37 1  
    19   11   13 ar 
    20   11   38 1  
    21   20   12 1  
    22   12   22 1  
    23   12   23 1  
    24   15   13 ar 
    25   38   14 3  
    26   17   18 1  
    27   17   24 1  
    28   19   20 1  
    29   20   21 2  
    30   24   28 1  
    31   26   25 ar 
    32   30   25 ar 
    33   27   26 ar 
    34   28   27 ar 
    35   28   29 ar 
    36   29   30 ar 
    37   32   31 ar 
    38   31   36 ar 
    39   33   32 ar 
    40   33   34 ar 
    41   34   35 ar 
    42   35   36 ar 
    43    8   39 1  
    44   13   40 1  
    45   15   41 1  
    46   16   42 1  
    47   16   43 1  
    48   17   44 1  
    49   18   45 1  
    50   18   46 1  
    51   19   47 1  
    52   19   48 1  
    53   21   49 1  
    54   22   50 1  
    55   23   51 1  
    56   23   52 1  
    57   23   53 1  
    58   24   54 1  
    59   24   55 1  
    60   25   56 1  
    61   26   57 1  
    62   27   58 1  
    63   29   59 1  
    64   30   60 1  
    65   32   61 1  
    66   33   62 1  
    67   35   63 1  
    68   36   64 1  
    69   37   65 1  
    70   37   66 1  
    71   37   67 1  
@<TRIPOS>SUBSTRUCTURE
     1 3PZ         1

