### 
### Created by X-TOOL on Mon Sep 10 21:13:06 2018
### 

@<TRIPOS>MOLECULE
3pz2_ligand
   67    71     1     0     0
SMALL
GAST_HUCK


@<TRIPOS>ATOM
      1 C1          3.9350   18.4490   27.6120 C.ar      1 3PZ         0.0575
      2 N1          6.7390   19.8380   27.0830 N.am      1 3PZ        -0.2191
      3 O1          7.6270   21.0200   29.0960 O.2       1 3PZ        -0.1514
      4 S1          7.4080   19.6340   28.5900 S.o2      1 3PZ         0.0675
      5 C2          4.2130   19.8110   27.6360 C.ar      1 3PZ         0.0062
      6 N2          4.6880   17.5680   26.9850 N.pl3     1 3PZ        -0.2908
      7 O2          8.7300   18.9520   28.4090 O.2       1 3PZ        -0.1514
      8 C3          3.3350   20.7050   28.2530 C.ar      1 3PZ        -0.0354
      9 N3          2.1770   15.0090   24.8320 N.2       1 3PZ        -0.3435
     10 O3          4.1990   16.2330   32.1400 O.3       1 3PZ        -0.3212
     11 C4          2.1730   20.2300   28.8220 C.ar      1 3PZ         0.0746
     12 N4          3.7020   14.0990   26.0930 N.pl3     1 3PZ        -0.2493
     13 C5          1.8810   18.8710   28.7790 C.ar      1 3PZ        -0.0449
     14 N5          0.5270   21.8520   29.9420 N.1       1 3PZ        -0.3394
     15 C6          2.7550   17.9690   28.1730 C.ar      1 3PZ        -0.0376
     16 C7          5.4310   20.5440   27.0420 C.3       1 3PZ         0.0626
     17 C8          6.8920   18.6590   26.2460 C.3       1 3PZ         0.0720
     18 C9          5.5550   18.0050   25.8450 C.3       1 3PZ         0.0518
     19 C10         4.6640   16.1190   27.2670 C.3       1 3PZ         0.0826
     20 C11         3.7440   15.4090   26.2840 C.2       1 3PZ         0.0758
     21 C12         2.8240   15.9610   25.4910 C.2       1 3PZ        -0.0256
     22 C13         2.7450   13.8380   25.1920 C.2       1 3PZ         0.0898
     23 C14         4.5690   13.0930   26.8220 C.3       1 3PZ         0.0471
     24 C15         7.7860   19.0400   25.0250 C.3       1 3PZ         0.0029
     25 C16         6.3910   22.3540   22.5810 C.ar      1 3PZ        -0.0687
     26 C17         7.0700   22.6000   23.7680 C.ar      1 3PZ        -0.0686
     27 C18         7.5140   21.5350   24.5600 C.ar      1 3PZ        -0.0603
     28 C19         7.2870   20.2090   24.1690 C.ar      1 3PZ        -0.0411
     29 C20         6.6330   19.9820   22.9580 C.ar      1 3PZ        -0.0603
     30 C21         6.1900   21.0470   22.1700 C.ar      1 3PZ        -0.0686
     31 C22         4.9030   17.1120   31.3620 C.ar      1 3PZ         0.0908
     32 C23         4.7430   18.5050   31.4020 C.ar      1 3PZ        -0.0313
     33 C24         5.5120   19.3090   30.5630 C.ar      1 3PZ        -0.0440
     34 C25         6.4290   18.7120   29.6910 C.ar      1 3PZ         0.0973
     35 C26         6.5940   17.3430   29.6780 C.ar      1 3PZ        -0.0440
     36 C27         5.8270   16.5550   30.5030 C.ar      1 3PZ        -0.0313
     37 C28         3.1460   16.8800   32.9060 C.3       1 3PZ         0.0594
     38 C29         1.2640   21.1430   29.4470 C.1       1 3PZ         0.0844
     39 H           3.5669   21.7696   28.2843 H         1 3PZ         0.0616
     40 H           0.9560   18.5057   29.2252 H         1 3PZ         0.0632
     41 H           2.5180   16.9056   28.1392 H         1 3PZ         0.0525
     42 H           5.2044   20.6839   25.9850 H         1 3PZ         0.0615
     43 H           5.5605   21.4403   27.6487 H         1 3PZ         0.0615
     44 H           7.3867   17.8783   26.8239 H         1 3PZ         0.0558
     45 H           4.9913   18.7592   25.2959 H         1 3PZ         0.0539
     46 H           5.8044   17.1064   25.2807 H         1 3PZ         0.0539
     47 H           4.2965   15.9582   28.2805 H         1 3PZ         0.0697
     48 H           5.6727   15.7184   27.1657 H         1 3PZ         0.0697
     49 H           2.6333   17.0302   25.3988 H         1 3PZ         0.0325
     50 H           2.4725   12.8521   24.8153 H         1 3PZ         0.1150
     51 H           5.6188   13.3075   26.6219 H         1 3PZ         0.0583
     52 H           4.3806   13.1618   27.8934 H         1 3PZ         0.0583
     53 H           4.3292   12.0885   26.4734 H         1 3PZ         0.0583
     54 H           7.8028   18.1670   24.3725 H         1 3PZ         0.0445
     55 H           8.7486   19.3476   25.4335 H         1 3PZ         0.0445
     56 H           6.0197   23.1829   21.9784 H         1 3PZ         0.0559
     57 H           7.2576   23.6263   24.0835 H         1 3PZ         0.0599
     58 H           8.0422   21.7395   25.4913 H         1 3PZ         0.0557
     59 H           6.4652   18.9588   22.6217 H         1 3PZ         0.0557
     60 H           5.6830   20.8480   21.2258 H         1 3PZ         0.0599
     61 H           4.0223   18.9553   32.0845 H         1 3PZ         0.0542
     62 H           5.4002   20.3930   30.5858 H         1 3PZ         0.0608
     63 H           7.3301   16.8872   29.0158 H         1 3PZ         0.0608
     64 H           5.9512   15.4724   30.4778 H         1 3PZ         0.0542
     65 H           3.5853   17.6305   33.5632 H         1 3PZ         0.0577
     66 H           2.4439   17.3590   32.2235 H         1 3PZ         0.0577
     67 H           2.6222   16.1338   33.5035 H         1 3PZ         0.0577
@<TRIPOS>BOND
     1    5    1 ar 
     2    6    1 1  
     3    1   15 ar 
     4    4    2 am 
     5    2   16 1  
     6    2   17 1  
     7    4    3 2  
     8    4    7 2  
     9   34    4 1  
    10    5    8 ar 
    11   16    5 1  
    12   18    6 1  
    13    6   19 1  
    14    8   11 ar 
    15   21    9 1  
    16    9   22 2  
    17   31   10 1  
    18   10   37 1  
    19   11   13 ar 
    20   11   38 1  
    21   20   12 1  
    22   12   22 1  
    23   12   23 1  
    24   15   13 ar 
    25   38   14 3  
    26   17   18 1  
    27   17   24 1  
    28   19   20 1  
    29   20   21 2  
    30   24   28 1  
    31   26   25 ar 
    32   30   25 ar 
    33   27   26 ar 
    34   28   27 ar 
    35   28   29 ar 
    36   29   30 ar 
    37   32   31 ar 
    38   31   36 ar 
    39   33   32 ar 
    40   33   34 ar 
    41   34   35 ar 
    42   35   36 ar 
    43    8   39 1  
    44   13   40 1  
    45   15   41 1  
    46   16   42 1  
    47   16   43 1  
    48   17   44 1  
    49   18   45 1  
    50   18   46 1  
    51   19   47 1  
    52   19   48 1  
    53   21   49 1  
    54   22   50 1  
    55   23   51 1  
    56   23   52 1  
    57   23   53 1  
    58   24   54 1  
    59   24   55 1  
    60   25   56 1  
    61   26   57 1  
    62   27   58 1  
    63   29   59 1  
    64   30   60 1  
    65   32   61 1  
    66   33   62 1  
    67   35   63 1  
    68   36   64 1  
    69   37   65 1  
    70   37   66 1  
    71   37   67 1  
@<TRIPOS>SUBSTRUCTURE
     1 3PZ         1

