### 
### Created by X-TOOL on Mon Sep 10 21:13:06 2018
### 

@<TRIPOS>MOLECULE
3pz3_ligand
   95   101     1     0     0
SMALL
GAST_HUCK


@<TRIPOS>ATOM
      1 CAA         3.2570   17.8650   31.7160 C.3       1 PZ3         0.0594
      2 CAB         3.6560   14.5290   26.3390 C.3       1 PZ3         0.0471
      3 OAC         0.0430   26.7420   30.4040 O.3       1 PZ3        -0.3788
      4 OAD         7.7320   24.3480   19.7900 O.2       1 PZ3        -0.3725
      5 OAE         7.7820   20.9060   26.6340 O.2       1 PZ3        -0.1514
      6 OAF         6.5900   22.8510   27.5530 O.2       1 PZ3        -0.1514
      7 CAG        -0.4630   25.7680   30.9630 C.3       1 PZ3         0.1095
      8 CAH         3.4970   27.7570   17.7680 C.ar      1 PZ3        -0.0687
      9 CAI         4.4340   28.7850   17.7460 C.ar      1 PZ3        -0.0685
     10 CAJ         3.9040   26.4580   18.0660 C.ar      1 PZ3        -0.0685
     11 CAK         5.7710   28.5140   18.0260 C.ar      1 PZ3        -0.0584
     12 CAL         5.2450   26.1850   18.3460 C.ar      1 PZ3        -0.0584
     13 CAM         5.4080   22.5310   22.8630 C.ar      1 PZ3        -0.0676
     14 CAN         7.6790   21.7410   23.1000 C.ar      1 PZ3        -0.0676
     15 CAO        -0.0280   23.3800   31.6990 C.2       1 PZ3        -0.0627
     16 CAP         5.8830   23.7660   22.4220 C.ar      1 PZ3        -0.0348
     17 CAQ         8.1580   22.9730   22.6590 C.ar      1 PZ3        -0.0348
     18 CAR         4.7120   20.1770   30.5910 C.ar      1 PZ3        -0.0313
     19 CAS         5.9000   18.2850   29.6830 C.ar      1 PZ3        -0.0313
     20 CAT         1.3890   20.2940   29.1410 C.ar      1 PZ3        -0.0747
     21 CAU         5.1360   20.9560   29.5160 C.ar      1 PZ3        -0.0440
     22 CAV         6.3170   19.0670   28.6020 C.ar      1 PZ3        -0.0440
     23 CAW         0.5260   22.2760   31.1950 C.2       1 PZ3        -0.0706
     24 CAX         2.0350   19.4190   28.2680 C.ar      1 PZ3        -0.0525
     25 CAY         1.4360   17.2540   25.6690 C.2       1 PZ3        -0.0257
     26 CAZ         1.4660   15.1260   25.3130 C.2       1 PZ3         0.0898
     27 CBA         2.4850   22.1670   28.1030 C.ar      1 PZ3        -0.0650
     28 CBB         7.6460   26.9150   18.6340 C.3       1 PZ3         0.0667
     29 CBC         5.7990   20.1460   23.6970 C.3       1 PZ3        -0.0019
     30 CBD         3.6610   17.6150   26.8860 C.3       1 PZ3         0.0802
     31 CBE         4.0540   22.0430   26.2420 C.3       1 PZ3         0.0598
     32 CBF         3.9230   19.4070   25.1600 C.3       1 PZ3         0.0491
     33 NBG         0.7550   16.2390   25.1430 N.2       1 PZ3        -0.3435
     34 NBH         7.6990   26.5860   20.0630 N.am      1 PZ3        -0.2478
     35 OBI         4.6820   18.0770   31.7370 O.3       1 PZ3        -0.3212
     36 OBJ         7.7440   25.1900   21.8820 O.3       1 PZ3        -0.2045
     37 OBK         0.6700   23.8380   29.6630 O.3       1 PZ3        -0.2591
     38 CBL         7.7220   25.3390   20.5240 C.2       1 PZ3         0.3445
     39 CBM         6.1810   27.2160   18.3190 C.ar      1 PZ3        -0.0210
     40 CBN         6.3060   21.5210   23.2090 C.ar      1 PZ3        -0.0511
     41 CBO         0.0590   24.3340   30.7770 C.2       1 PZ3         0.1238
     42 CBP         5.0930   18.8370   30.6790 C.ar      1 PZ3         0.0908
     43 CBQ         7.2600   23.9870   22.3170 C.ar      1 PZ3         0.1163
     44 CBR         1.6030   21.6690   29.0650 C.ar      1 PZ3        -0.0174
     45 CBS         5.9350   20.4090   28.5110 C.ar      1 PZ3         0.0973
     46 CBT         3.1380   21.2980   27.2310 C.ar      1 PZ3        -0.0083
     47 CBU         2.5750   16.7850   26.1790 C.2       1 PZ3         0.0754
     48 CBV         0.9540   22.5320   29.9550 C.2       1 PZ3         0.1019
     49 CBW         2.9230   19.9290   27.3130 C.ar      1 PZ3         0.0443
     50 CBX         5.3020   20.0590   25.1880 C.3       1 PZ3         0.0703
     51 NBY         3.4890   19.0290   26.5050 N.pl3     1 PZ3        -0.2978
     52 NBZ         5.3450   21.3800   25.8750 N.am      1 PZ3        -0.2195
     53 NCA         2.5770   15.4750   25.9490 N.pl3     1 PZ3        -0.2494
     54 SCB         6.4530   21.4110   27.1380 S.o2      1 PZ3         0.0675
     55 H           2.7471   18.8272   31.7641 H         1 PZ3         0.0577
     56 H           2.9809   17.3516   30.7950 H         1 PZ3         0.0577
     57 H           2.9688   17.2564   32.5731 H         1 PZ3         0.0577
     58 H           3.2489   13.7717   27.0090 H         1 PZ3         0.0583
     59 H           4.0565   14.0486   25.4463 H         1 PZ3         0.0583
     60 H           4.4508   15.0756   26.8466 H         1 PZ3         0.0583
     61 H          -0.4279   27.5286   30.6530 H         1 PZ3         0.2130
     62 H           2.4492   27.9667   17.5531 H         1 PZ3         0.0559
     63 H           4.1218   29.8022   17.5097 H         1 PZ3         0.0599
     64 H           3.1719   25.6505   18.0807 H         1 PZ3         0.0599
     65 H           6.5012   29.3232   18.0157 H         1 PZ3         0.0557
     66 H           5.5578   25.1685   18.5848 H         1 PZ3         0.0557
     67 H           4.3349   22.3549   22.9373 H         1 PZ3         0.0532
     68 H           8.3791   20.9472   23.3604 H         1 PZ3         0.0532
     69 H          -0.4723   23.4817   32.6891 H         1 PZ3         0.0249
     70 H           5.1817   24.5581   22.1595 H         1 PZ3         0.0536
     71 H           9.2315   23.1452   22.5810 H         1 PZ3         0.0536
     72 H           4.0815   20.6150   31.3648 H         1 PZ3         0.0542
     73 H           6.2060   17.2409   29.7483 H         1 PZ3         0.0542
     74 H           0.7073   19.8969   29.8931 H         1 PZ3         0.0501
     75 H           4.8404   22.0036   29.4596 H         1 PZ3         0.0608
     76 H           6.9436   18.6281   27.8255 H         1 PZ3         0.0608
     77 H           0.6152   21.3200   31.7109 H         1 PZ3         0.0324
     78 H           1.8501   18.3465   28.3286 H         1 PZ3         0.0492
     79 H           1.1158   18.2958   25.6809 H         1 PZ3         0.0325
     80 H           1.1888   14.1220   24.9917 H         1 PZ3         0.1150
     81 H           2.6633   23.2401   28.0341 H         1 PZ3         0.0487
     82 H           8.0165   26.0890   18.0269 H         1 PZ3         0.0683
     83 H           8.2809   27.7707   18.4042 H         1 PZ3         0.0683
     84 H           6.6520   19.4711   23.6267 H         1 PZ3         0.0426
     85 H           4.9324   19.9108   23.0792 H         1 PZ3         0.0426
     86 H           4.6497   17.2663   26.5878 H         1 PZ3         0.0692
     87 H           3.5686   17.5063   27.9666 H         1 PZ3         0.0692
     88 H           4.3293   22.9744   26.7369 H         1 PZ3         0.0614
     89 H           3.4870   22.1216   25.3144 H         1 PZ3         0.0614
     90 H           3.9757   18.5080   24.5459 H         1 PZ3         0.0533
     91 H           3.2084   20.1218   24.7519 H         1 PZ3         0.0533
     92 H           7.7192   27.3520   20.7362 H         1 PZ3         0.1897
     93 H           5.9703   19.4440   25.7907 H         1 PZ3         0.0556
     94 H          -1.5167   25.7506   30.6478 H         1 PZ3         0.0762
     95 H          -0.4064   25.9740   32.0420 H         1 PZ3         0.0762
@<TRIPOS>BOND
     1   35    1 1  
     2   53    2 1  
     3    7    3 1  
     4   38    4 2  
     5   54    5 2  
     6   54    6 2  
     7   41    7 1  
     8    9    8 ar 
     9   10    8 ar 
    10   11    9 ar 
    11   12   10 ar 
    12   39   11 ar 
    13   39   12 ar 
    14   13   16 ar 
    15   40   13 ar 
    16   14   17 ar 
    17   40   14 ar 
    18   23   15 1  
    19   41   15 2  
    20   16   43 ar 
    21   17   43 ar 
    22   21   18 ar 
    23   18   42 ar 
    24   22   19 ar 
    25   19   42 ar 
    26   24   20 ar 
    27   44   20 ar 
    28   45   21 ar 
    29   45   22 ar 
    30   48   23 2  
    31   49   24 ar 
    32   25   33 1  
    33   47   25 2  
    34   26   33 2  
    35   53   26 1  
    36   27   44 ar 
    37   46   27 ar 
    38   34   28 1  
    39   28   39 1  
    40   29   40 1  
    41   50   29 1  
    42   30   47 1  
    43   51   30 1  
    44   31   46 1  
    45   52   31 1  
    46   50   32 1  
    47   32   51 1  
    48   38   34 am 
    49   42   35 1  
    50   36   38 1  
    51   43   36 1  
    52   37   41 1  
    53   48   37 1  
    54   44   48 1  
    55   54   45 1  
    56   46   49 ar 
    57   47   53 1  
    58   51   49 1  
    59   52   50 1  
    60   52   54 am 
    61    1   55 1  
    62    1   56 1  
    63    1   57 1  
    64    2   58 1  
    65    2   59 1  
    66    2   60 1  
    67    3   61 1  
    68    8   62 1  
    69    9   63 1  
    70   10   64 1  
    71   11   65 1  
    72   12   66 1  
    73   13   67 1  
    74   14   68 1  
    75   15   69 1  
    76   16   70 1  
    77   17   71 1  
    78   18   72 1  
    79   19   73 1  
    80   20   74 1  
    81   21   75 1  
    82   22   76 1  
    83   23   77 1  
    84   24   78 1  
    85   25   79 1  
    86   26   80 1  
    87   27   81 1  
    88   28   82 1  
    89   28   83 1  
    90   29   84 1  
    91   29   85 1  
    92   30   86 1  
    93   30   87 1  
    94   31   88 1  
    95   31   89 1  
    96   32   90 1  
    97   32   91 1  
    98   34   92 1  
    99   50   93 1  
   100    7   94 1  
   101    7   95 1  
@<TRIPOS>SUBSTRUCTURE
     1 PZ3         1

