### 
### Created by X-TOOL on Mon Sep 10 21:13:07 2018
### 

@<TRIPOS>MOLECULE
3pz4_ligand
   67    71     1     0     0
SMALL
GAST_HUCK


@<TRIPOS>ATOM
      1 C1         50.9050  -51.1910    5.1060 C.ar      1 3PZ         0.0575
      2 N1         52.0640  -51.6440    2.2590 N.am      1 3PZ        -0.2191
      3 O1         50.3420  -52.9800    0.4590 O.2       1 3PZ        -0.1514
      4 S1         50.4420  -51.7140    1.3070 S.o2      1 3PZ         0.0675
      5 C2         51.5220  -52.3400    4.6190 C.ar      1 3PZ         0.0062
      6 N2         51.1800  -49.9790    4.6000 N.pl3     1 3PZ        -0.2908
      7 O2         50.3480  -50.5290    0.3730 O.2       1 3PZ        -0.1514
      8 C3         51.3130  -53.5590    5.2040 C.ar      1 3PZ        -0.0354
      9 N3         51.4840  -47.6490    7.9130 N.2       1 3PZ        -0.3435
     10 O3         45.6770  -51.5490    4.6630 O.3       1 3PZ        -0.3212
     11 C4         50.4790  -53.6520    6.2950 C.ar      1 3PZ         0.0746
     12 N4         50.0400  -47.0670    6.4660 N.pl3     1 3PZ        -0.2493
     13 C5         49.8760  -52.4970    6.8140 C.ar      1 3PZ        -0.0449
     14 N5         50.2220  -56.0290    7.2730 N.1       1 3PZ        -0.3394
     15 C6         50.0910  -51.2620    6.2380 C.ar      1 3PZ        -0.0376
     16 C7         52.4260  -52.4760    3.4400 C.3       1 3PZ         0.0626
     17 C8         52.4770  -50.2250    2.4970 C.3       1 3PZ         0.0720
     18 C9         52.4920  -49.7650    3.9600 C.3       1 3PZ         0.0518
     19 C10        50.3190  -48.8340    4.7020 C.3       1 3PZ         0.0826
     20 C11        50.6540  -48.1530    6.0180 C.2       1 3PZ         0.0758
     21 C12        51.5570  -48.5120    6.9160 C.2       1 3PZ        -0.0256
     22 C13        50.5390  -46.7430    7.6390 C.2       1 3PZ         0.0898
     23 C14        48.9190  -46.3650    5.7270 C.3       1 3PZ         0.0471
     24 C15        53.8100  -49.9640    1.7690 C.3       1 3PZ         0.0029
     25 C16        57.4560  -51.8270    3.1850 C.ar      1 3PZ        -0.0687
     26 C17        56.6160  -52.4980    2.2950 C.ar      1 3PZ        -0.0686
     27 C18        55.4410  -51.9050    1.8340 C.ar      1 3PZ        -0.0603
     28 C19        55.0750  -50.6440    2.2810 C.ar      1 3PZ        -0.0411
     29 C20        55.9150  -49.9620    3.1510 C.ar      1 3PZ        -0.0603
     30 C21        57.1090  -50.5440    3.6100 C.ar      1 3PZ        -0.0686
     31 C22        46.7760  -51.6000    3.8610 C.ar      1 3PZ         0.0908
     32 C23        47.3970  -52.8140    3.6150 C.ar      1 3PZ        -0.0313
     33 C24        48.5140  -52.8770    2.8050 C.ar      1 3PZ        -0.0440
     34 C25        49.0200  -51.6850    2.2890 C.ar      1 3PZ         0.0973
     35 C26        48.4020  -50.4620    2.5180 C.ar      1 3PZ        -0.0440
     36 C27        47.2780  -50.4160    3.3250 C.ar      1 3PZ        -0.0313
     37 C28        46.0560  -50.9100    5.9570 C.3       1 3PZ         0.0594
     38 C29        50.2930  -54.9620    6.8600 C.1       1 3PZ         0.0844
     39 H          51.8029  -54.4491    4.8093 H         1 3PZ         0.0616
     40 H          49.2272  -52.5764    7.6863 H         1 3PZ         0.0632
     41 H          49.6366  -50.3639    6.6564 H         1 3PZ         0.0525
     42 H          53.4125  -52.1444    3.7640 H         1 3PZ         0.0615
     43 H          52.3649  -53.5159    3.1190 H         1 3PZ         0.0615
     44 H          51.6922  -49.5977    2.0743 H         1 3PZ         0.0558
     45 H          53.2410  -50.3449    4.4994 H         1 3PZ         0.0539
     46 H          52.7230  -48.7001    3.9876 H         1 3PZ         0.0539
     47 H          49.2709  -49.1320    4.6743 H         1 3PZ         0.0697
     48 H          50.4733  -48.1556    3.8629 H         1 3PZ         0.0697
     49 H          52.2353  -49.3623    6.8459 H         1 3PZ         0.0325
     50 H          50.2410  -45.9017    8.2647 H         1 3PZ         0.1150
     51 H          49.2791  -46.0341    4.7528 H         1 3PZ         0.0583
     52 H          48.0860  -47.0551    5.5927 H         1 3PZ         0.0583
     53 H          48.5883  -45.5025    6.3057 H         1 3PZ         0.0583
     54 H          53.9942  -48.8968    1.8929 H         1 3PZ         0.0445
     55 H          53.6643  -50.3604    0.7642 H         1 3PZ         0.0445
     56 H          58.3709  -52.2989    3.5433 H         1 3PZ         0.0559
     57 H          56.8820  -53.4991    1.9557 H         1 3PZ         0.0599
     58 H          54.8087  -52.4337    1.1207 H         1 3PZ         0.0557
     59 H          55.6442  -48.9598    3.4831 H         1 3PZ         0.0557
     60 H          57.7592  -49.9972    4.2929 H         1 3PZ         0.0599
     61 H          47.0014  -53.7252    4.0636 H         1 3PZ         0.0542
     62 H          48.9866  -53.8321    2.5757 H         1 3PZ         0.0608
     63 H          48.7968  -49.5509    2.0684 H         1 3PZ         0.0608
     64 H          46.7913  -49.4643    3.5386 H         1 3PZ         0.0542
     65 H          46.8373  -51.4995    6.4367 H         1 3PZ         0.0577
     66 H          46.4239  -49.9014    5.7687 H         1 3PZ         0.0577
     67 H          45.1826  -50.8640    6.6075 H         1 3PZ         0.0577
@<TRIPOS>BOND
     1    5    1 ar 
     2    6    1 1  
     3    1   15 ar 
     4    4    2 am 
     5    2   16 1  
     6    2   17 1  
     7    4    3 2  
     8    4    7 2  
     9   34    4 1  
    10    5    8 ar 
    11   16    5 1  
    12   18    6 1  
    13    6   19 1  
    14    8   11 ar 
    15   21    9 1  
    16    9   22 2  
    17   31   10 1  
    18   10   37 1  
    19   11   13 ar 
    20   11   38 1  
    21   20   12 1  
    22   12   22 1  
    23   12   23 1  
    24   15   13 ar 
    25   38   14 3  
    26   17   18 1  
    27   17   24 1  
    28   19   20 1  
    29   20   21 2  
    30   24   28 1  
    31   26   25 ar 
    32   30   25 ar 
    33   27   26 ar 
    34   28   27 ar 
    35   28   29 ar 
    36   29   30 ar 
    37   32   31 ar 
    38   31   36 ar 
    39   33   32 ar 
    40   33   34 ar 
    41   34   35 ar 
    42   35   36 ar 
    43    8   39 1  
    44   13   40 1  
    45   15   41 1  
    46   16   42 1  
    47   16   43 1  
    48   17   44 1  
    49   18   45 1  
    50   18   46 1  
    51   19   47 1  
    52   19   48 1  
    53   21   49 1  
    54   22   50 1  
    55   23   51 1  
    56   23   52 1  
    57   23   53 1  
    58   24   54 1  
    59   24   55 1  
    60   25   56 1  
    61   26   57 1  
    62   27   58 1  
    63   29   59 1  
    64   30   60 1  
    65   32   61 1  
    66   33   62 1  
    67   35   63 1  
    68   36   64 1  
    69   37   65 1  
    70   37   66 1  
    71   37   67 1  
@<TRIPOS>SUBSTRUCTURE
     1 3PZ         1

