### 
### Created by X-TOOL on Mon Sep 10 21:13:07 2018
### 

@<TRIPOS>MOLECULE
3q0z_ligand
   84    90     1     0     0
SMALL
GAST_HUCK


@<TRIPOS>ATOM
      1 N1         20.7290    3.4770  -15.3650 N.am      1 23E        -0.2768
      2 C2         20.3560    3.6680  -16.7680 C.3       1 23E         0.1379
      3 C3         20.9650    4.9380  -17.3480 C.2       1 23E         0.2522
      4 N4         22.2840    5.1770  -17.1270 N.am      1 23E        -0.2273
      5 C5         22.9540    6.3200  -17.6190 C.ar      1 23E         0.0739
      6 O6         20.2550    5.6940  -18.0000 O.2       1 23E        -0.3319
      7 C7         22.2330    7.4410  -18.0780 C.ar      1 23E        -0.0348
      8 C8         22.9130    8.5570  -18.5560 C.ar      1 23E        -0.0624
      9 C9         24.3220    8.5660  -18.5770 C.ar      1 23E        -0.0318
     10 C10        25.0360    7.4500  -18.0990 C.ar      1 23E        -0.0624
     11 C11        24.3570    6.3230  -17.6220 C.ar      1 23E        -0.0348
     12 C12        25.0110    9.8050  -19.1040 C.2       1 23E        -0.0568
     13 C13        26.2230   10.1620  -18.6780 C.2       1 23E        -0.0369
     14 C14        26.9560   11.3450  -19.1380 C.2       1 23E         0.0457
     15 O15        26.2730   12.3630  -19.7090 O.co2     1 23E        -0.5662
     16 C16        18.8130    3.5250  -16.8970 C.3       1 23E        -0.0199
     17 C17        20.8240    2.4500  -17.6060 C.3       1 23E        -0.0199
     18 C18        18.5450    2.9760  -18.3130 C.3       1 23E        -0.0518
     19 C19        19.9290    2.5670  -18.8640 C.3       1 23E        -0.0518
     20 O20        28.1790   11.3690  -18.9800 O.co2     1 23E        -0.5662
     21 C21        20.5070    4.4230  -14.4140 C.2       1 23E         0.1954
     22 C22        20.8780    4.1090  -12.9940 C.ar      1 23E         0.0332
     23 C23        20.1150    4.6320  -11.9350 C.ar      1 23E        -0.0612
     24 C24        20.3860    4.3050  -10.6040 C.ar      1 23E        -0.0705
     25 C25        21.8960    3.1730  -12.7350 C.ar      1 23E        -0.0245
     26 N26        23.0620    2.0220  -10.8500 N.pl3     1 23E        -0.2487
     27 C27        22.1410    2.8390  -11.3870 C.ar      1 23E         0.0699
     28 C28        21.4170    3.4070  -10.3560 C.ar      1 23E        -0.0156
     29 C29        21.9920    2.7930   -9.1040 C.2       1 23E        -0.0311
     30 C30        22.9710    1.9870   -9.5330 C.2       1 23E         0.0637
     31 C31        21.4610    3.1030   -7.7200 C.3       1 23E        -0.0218
     32 C32        23.8390    1.1100   -8.6740 C.ar      1 23E         0.0223
     33 C33        21.7460    4.5400   -7.1700 C.3       1 23E        -0.0452
     34 C34        21.0800    4.7530   -5.7840 C.3       1 23E        -0.0516
     35 C35        19.5640    4.4460   -5.8710 C.3       1 23E        -0.0528
     36 C36        19.3660    2.9530   -6.2420 C.3       1 23E        -0.0516
     37 C37        19.9390    2.7390   -7.6630 C.3       1 23E        -0.0452
     38 O38        19.9590    5.4950  -14.6320 O.2       1 23E        -0.3891
     39 C39        24.3360    1.6040   -7.4540 C.ar      1 23E        -0.0675
     40 C40        25.0180    0.7510   -6.5710 C.ar      1 23E        -0.0787
     41 C41        25.2270   -0.5910   -6.9390 C.ar      1 23E        -0.0773
     42 C42        24.7570   -1.0800   -8.1750 C.ar      1 23E        -0.0413
     43 C43        24.0610   -0.2360   -9.0580 C.ar      1 23E         0.0774
     44 C44        24.0510    1.2770  -11.6240 C.3       1 23E         0.1432
     45 N45        23.5700   -0.7750  -10.2900 N.am      1 23E        -0.2294
     46 C46        23.5440   -0.1350  -11.4940 C.2       1 23E         0.2339
     47 O47        23.0930   -0.6850  -12.4990 O.2       1 23E        -0.3810
     48 H          21.1725    2.6004  -15.0905 H         1 23E         0.1827
     49 H          22.8157    4.4997  -16.5803 H         1 23E         0.2309
     50 H          21.1432    7.4336  -18.0585 H         1 23E         0.0526
     51 H          22.3564    9.4232  -18.9138 H         1 23E         0.0612
     52 H          26.1259    7.4642  -18.1006 H         1 23E         0.0612
     53 H          24.9113    5.4582  -17.2573 H         1 23E         0.0526
     54 H          24.5055   10.4198  -19.8487 H         1 23E         0.0673
     55 H          26.7038    9.5278  -17.9333 H         1 23E         0.0551
     56 H          18.3170    4.4842  -16.7484 H         1 23E         0.0276
     57 H          18.4168    2.8536  -16.1352 H         1 23E         0.0276
     58 H          20.7165    1.4987  -17.0849 H         1 23E         0.0276
     59 H          21.8906    2.4628  -17.8305 H         1 23E         0.0276
     60 H          18.0665    3.7221  -18.9474 H         1 23E         0.0264
     61 H          17.8575    2.1304  -18.2907 H         1 23E         0.0264
     62 H          19.8871    1.6336  -19.4253 H         1 23E         0.0264
     63 H          20.3174    3.2942  -19.5771 H         1 23E         0.0264
     64 H          19.2911    5.3098  -12.1582 H         1 23E         0.0549
     65 H          19.8084    4.7394   -9.7880 H         1 23E         0.0542
     66 H          22.4723    2.7240  -13.5439 H         1 23E         0.0594
     67 H          22.0327    2.4766   -7.0353 H         1 23E         0.0396
     68 H          21.3347    5.2680   -7.8692 H         1 23E         0.0283
     69 H          22.8235    4.6634   -7.0609 H         1 23E         0.0283
     70 H          21.2187    5.7891   -5.4752 H         1 23E         0.0267
     71 H          21.5403    4.0824   -5.0584 H         1 23E         0.0267
     72 H          19.1065    5.0761   -6.6338 H         1 23E         0.0265
     73 H          19.0940    4.6491   -4.9087 H         1 23E         0.0265
     74 H          18.3074    2.6942   -6.2178 H         1 23E         0.0267
     75 H          19.8817    2.3134   -5.5257 H         1 23E         0.0267
     76 H          19.8219    1.6890   -7.9311 H         1 23E         0.0283
     77 H          19.4004    3.3849   -8.3564 H         1 23E         0.0283
     78 H          24.1912    2.6524   -7.1932 H         1 23E         0.0557
     79 H          25.3807    1.1237   -5.6131 H         1 23E         0.0487
     80 H          25.7579   -1.2596   -6.2613 H         1 23E         0.0560
     81 H          24.9346   -2.1202   -8.4480 H         1 23E         0.0495
     82 H          25.0712    1.4063  -11.2626 H         1 23E         0.0840
     83 H          24.1360    1.6137  -12.6572 H         1 23E         0.0840
     84 H          23.2053   -1.7272  -10.2649 H         1 23E         0.2283
@<TRIPOS>BOND
     1    1    2 1  
     2    1   21 am 
     3    2    3 1  
     4    2   16 1  
     5    2   17 1  
     6    3    4 am 
     7    3    6 2  
     8    4    5 1  
     9    5    7 ar 
    10    5   11 ar 
    11    7    8 ar 
    12    8    9 ar 
    13    9   10 ar 
    14    9   12 1  
    15   10   11 ar 
    16   12   13 2  
    17   13   14 1  
    18   14   15 ar 
    19   14   20 ar 
    20   16   18 1  
    21   17   19 1  
    22   18   19 1  
    23   21   22 1  
    24   21   38 2  
    25   22   23 ar 
    26   22   25 ar 
    27   23   24 ar 
    28   24   28 ar 
    29   25   27 ar 
    30   27   26 1  
    31   26   30 1  
    32   26   44 1  
    33   27   28 ar 
    34   28   29 1  
    35   29   30 2  
    36   29   31 1  
    37   30   32 1  
    38   31   33 1  
    39   31   37 1  
    40   32   39 ar 
    41   32   43 ar 
    42   33   34 1  
    43   34   35 1  
    44   35   36 1  
    45   36   37 1  
    46   39   40 ar 
    47   40   41 ar 
    48   41   42 ar 
    49   42   43 ar 
    50   43   45 1  
    51   44   46 1  
    52   45   46 am 
    53   46   47 2  
    54    1   48 1  
    55    4   49 1  
    56    7   50 1  
    57    8   51 1  
    58   10   52 1  
    59   11   53 1  
    60   12   54 1  
    61   13   55 1  
    62   16   56 1  
    63   16   57 1  
    64   17   58 1  
    65   17   59 1  
    66   18   60 1  
    67   18   61 1  
    68   19   62 1  
    69   19   63 1  
    70   23   64 1  
    71   24   65 1  
    72   25   66 1  
    73   31   67 1  
    74   33   68 1  
    75   33   69 1  
    76   34   70 1  
    77   34   71 1  
    78   35   72 1  
    79   35   73 1  
    80   36   74 1  
    81   36   75 1  
    82   37   76 1  
    83   37   77 1  
    84   39   78 1  
    85   40   79 1  
    86   41   80 1  
    87   42   81 1  
    88   44   82 1  
    89   44   83 1  
    90   45   84 1  
@<TRIPOS>SUBSTRUCTURE
     1 23E         1

