### 
### Created by X-TOOL on Mon Sep 10 21:13:05 2018
### 

@<TRIPOS>MOLECULE
3q1x_ligand
   14    13     1     0     0
SMALL
GAST_HUCK


@<TRIPOS>ATOM
      1 N          -2.6190  -15.9300  -11.8020 N.4       1 SER         0.2343
      2 CA         -2.8470  -16.3760  -10.3940 C.3       1 SER         0.0519
      3 C          -4.1080  -17.2230  -10.2980 C.2       1 SER         0.0867
      4 O          -4.8300  -17.3960  -11.2780 O.co2     1 SER        -0.5642
      5 CB         -2.9480  -15.1680   -9.4590 C.3       1 SER         0.0987
      6 OG         -4.1000  -14.3880   -9.7520 O.3       1 SER        -0.3876
      7 OXT        -4.4270  -17.7490   -9.2390 O.co2     1 SER        -0.5642
      8 H1         -1.7811  -15.3714  -11.8460 H         1 SER         0.2011
      9 H2         -3.4054  -15.3810  -12.1121 H         1 SER         0.2011
     10 H3         -2.5166  -16.7367  -12.3976 H         1 SER         0.2011
     11 H4         -1.9898  -16.9897  -10.0802 H         1 SER         0.1047
     12 H5         -2.0509  -14.5433   -9.5811 H         1 SER         0.0633
     13 H6         -3.0093  -15.5225   -8.4195 H         1 SER         0.0633
     14 H7         -4.1385  -13.6468   -9.1589 H         1 SER         0.2098
@<TRIPOS>BOND
     1    1    2 1  
     2    2    3 1  
     3    2    5 1  
     4    3    4 ar 
     5    3    7 ar 
     6    5    6 1  
     7    1    8 1  
     8    1    9 1  
     9    1   10 1  
    10    2   11 1  
    11    5   12 1  
    12    5   13 1  
    13    6   14 1  
@<TRIPOS>SUBSTRUCTURE
     1 SER         1

