### 
### Created by X-TOOL on Mon Sep 10 21:13:05 2018
### 

@<TRIPOS>MOLECULE
3q2a_ligand
   16    16     1     0     0
SMALL
GAST_HUCK


@<TRIPOS>ATOM
      1 C1'       -11.2930   13.2870  -20.1160 C.2       1 PAB         0.0542
      2 O1'       -11.4200   12.1800  -19.5390 O.co2     1 PAB        -0.5642
      3 O2'       -12.0560   13.5840  -21.0700 O.co2     1 PAB        -0.5642
      4 C1        -10.2440   14.2540  -19.6870 C.ar      1 PAB        -0.0033
      5 C2        -10.1340   15.4680  -20.3420 C.ar      1 PAB        -0.0593
      6 C3         -9.1670   16.3820  -19.9590 C.ar      1 PAB        -0.0407
      7 C4         -8.3070   16.0820  -18.9170 C.ar      1 PAB         0.0385
      8 C5         -8.4160   14.8670  -18.2580 C.ar      1 PAB        -0.0407
      9 C6         -9.3860   13.9540  -18.6410 C.ar      1 PAB        -0.0593
     10 N4         -7.3120   17.0280  -18.5250 N.pl3     1 PAB        -0.3352
     11 H1        -10.8074   15.7043  -21.1580 H         1 PAB         0.0617
     12 H2         -9.0836   17.3317  -20.4749 H         1 PAB         0.0524
     13 H3         -7.7420   14.6309  -17.4425 H         1 PAB         0.0524
     14 H4         -9.4734   13.0060  -18.1227 H         1 PAB         0.0617
     15 H5         -7.2355   17.9291  -19.0180 H         1 PAB         0.1730
     16 H6         -6.6707   16.8093  -17.7492 H         1 PAB         0.1730
@<TRIPOS>BOND
     1    1    2 ar 
     2    1    3 ar 
     3    1    4 1  
     4    4    5 ar 
     5    4    9 ar 
     6    5    6 ar 
     7    6    7 ar 
     8    7    8 ar 
     9    7   10 1  
    10    8    9 ar 
    11    5   11 1  
    12    6   12 1  
    13    8   13 1  
    14    9   14 1  
    15   10   15 1  
    16   10   16 1  
@<TRIPOS>SUBSTRUCTURE
     1 PAB         1

