### 
### Created by X-TOOL on Mon Sep 10 21:13:07 2018
### 

@<TRIPOS>MOLECULE
3q2g_ligand
   65    67     1     0     0
SMALL
GAST_HUCK


@<TRIPOS>ATOM
      1 C1          9.1530  -12.1080    3.7220 C.3       1 QGF        -0.0474
      2 CL1        10.5310  -14.8000   21.2150 Cl        1 QGF        -0.0770
      3 C2         10.0580  -12.2030    4.9540 C.3       1 QGF         0.0257
      4 CL2        11.5440  -11.4160   17.2100 Cl        1 QGF        -0.0771
      5 C3          9.1590  -12.1520    6.1830 C.3       1 QGF        -0.0053
      6 C4          9.8700  -11.6320    7.4430 C.3       1 QGF         0.1055
      7 C5         10.5070  -10.2640    7.1900 C.3       1 QGF        -0.0342
      8 C6          8.7230  -11.4770    8.4460 C.3       1 QGF         0.1132
      9 S7          9.1080  -10.7120   10.0460 S.o2      1 QGF         0.0439
     10 O8         10.1260   -9.7070   10.0110 O.2       1 QGF        -0.1552
     11 O9          7.9060  -10.4550   10.7290 O.2       1 QGF        -0.1552
     12 N10         9.7610  -11.9420   10.9400 N.am      1 QGF        -0.2382
     13 C11         8.9240  -13.1040   11.2660 C.3       1 QGF         0.0316
     14 C12         8.9600  -13.3110   12.7830 C.3       1 QGF        -0.0092
     15 C13        10.3930  -13.5100   13.2500 C.3       1 QGF         0.0643
     16 C14        11.1900  -12.2230   12.9530 C.3       1 QGF        -0.0092
     17 C15        11.1510  -11.8900   11.4430 C.3       1 QGF         0.0316
     18 O16        10.3510  -13.8170   14.6520 O.3       1 QGF        -0.3638
     19 C17        11.5920  -13.9160   15.3590 C.3       1 QGF         0.0827
     20 C18        11.3270  -14.1300   16.8280 C.ar      1 QGF        -0.0031
     21 C19        11.1200  -15.4250   17.2890 C.ar      1 QGF        -0.0569
     22 C20        10.8730  -15.6290   18.6410 C.ar      1 QGF        -0.0544
     23 C21        10.8320  -14.5520   19.5240 C.ar      1 QGF         0.0335
     24 C23        11.0400  -13.2660   19.0660 C.ar      1 QGF        -0.0406
     25 C24        11.2900  -13.0560   17.7240 C.ar      1 QGF         0.0440
     26 N26        10.8840  -12.6230    7.9040 N.am      1 QGF        -0.1446
     27 O27        10.5040  -13.9090    8.3340 O.3       1 QGF        -0.2680
     28 C28        12.2080  -12.3660    7.9400 C.2       1 QGF         0.1956
     29 O29        12.9390  -13.2520    8.3480 O.2       1 QGF        -0.3830
     30 C30        10.8560  -13.4890    4.8720 C.ar      1 QGF         0.1032
     31 N31        10.2350  -14.6690    4.7910 N.ar      1 QGF        -0.2661
     32 C32        10.9270  -15.7920    4.6960 C.ar      1 QGF         0.0551
     33 C33        12.3220  -15.7180    4.6810 C.ar      1 QGF         0.1779
     34 F34        13.0700  -16.8440    4.6020 F         1 QGF        -0.1730
     35 C35        12.9460  -14.4760    4.7700 C.ar      1 QGF         0.0551
     36 N36        12.1830  -13.3980    4.8620 N.ar      1 QGF        -0.2661
     37 H           9.7667  -12.1071    2.8212 H         1 QGF         0.0260
     38 H           8.4775  -12.9632    3.7021 H         1 QGF         0.0260
     39 H           8.5730  -11.1863    3.7690 H         1 QGF         0.0260
     40 H          10.7721  -11.3814    5.0105 H         1 QGF         0.0526
     41 H           8.8295  -13.1702    6.3899 H         1 QGF         0.0322
     42 H           8.3413  -11.4660    5.9620 H         1 QGF         0.0322
     43 H           9.7567   -9.5844    6.7859 H         1 QGF         0.0256
     44 H          10.8926   -9.8651    8.1282 H         1 QGF         0.0256
     45 H          11.3238  -10.3714    6.4763 H         1 QGF         0.0256
     46 H           8.3954  -12.4907    8.6764 H         1 QGF         0.0546
     47 H           8.0030  -10.8124    7.9684 H         1 QGF         0.0546
     48 H           9.3017  -13.9915   10.7582 H         1 QGF         0.0479
     49 H           7.8995  -12.9316   10.9361 H         1 QGF         0.0479
     50 H           8.3752  -14.1951   13.0371 H         1 QGF         0.0306
     51 H           8.5430  -12.4316   13.2738 H         1 QGF         0.0306
     52 H          10.8894  -14.3294   12.7301 H         1 QGF         0.0599
     53 H          12.2269  -12.3742   13.2532 H         1 QGF         0.0306
     54 H          10.7437  -11.3971   13.5070 H         1 QGF         0.0306
     55 H          11.5468  -10.8859   11.2903 H         1 QGF         0.0479
     56 H          11.7521  -12.6211   10.9023 H         1 QGF         0.0479
     57 H          12.1576  -12.9939   15.2253 H         1 QGF         0.0727
     58 H          12.1628  -14.7588   14.9691 H         1 QGF         0.0727
     59 H          11.1510  -16.2686   16.5995 H         1 QGF         0.0558
     60 H          10.7099  -16.6401   19.0140 H         1 QGF         0.0607
     61 H          11.0072  -12.4241   19.7575 H         1 QGF         0.0612
     62 H          11.2858  -14.4032    8.5913 H         1 QGF         0.2496
     63 H          12.6079  -11.4048    7.6172 H         1 QGF         0.1561
     64 H          10.4198  -16.7546    4.6308 H         1 QGF         0.0907
     65 H          14.0329  -14.3938    4.7641 H         1 QGF         0.0907
@<TRIPOS>BOND
     1    3    1 1  
     2   23    2 1  
     3    5    3 1  
     4    3   30 1  
     5   25    4 1  
     6    6    5 1  
     7    6    7 1  
     8    8    6 1  
     9    6   26 1  
    10    9    8 1  
    11    9   10 2  
    12    9   11 2  
    13   12    9 am 
    14   13   12 1  
    15   17   12 1  
    16   14   13 1  
    17   15   14 1  
    18   15   16 1  
    19   18   15 1  
    20   16   17 1  
    21   19   18 1  
    22   20   19 1  
    23   21   20 ar 
    24   20   25 ar 
    25   22   21 ar 
    26   22   23 ar 
    27   23   24 ar 
    28   24   25 ar 
    29   26   27 1  
    30   26   28 am 
    31   28   29 2  
    32   30   31 ar 
    33   30   36 ar 
    34   31   32 ar 
    35   32   33 ar 
    36   33   34 1  
    37   33   35 ar 
    38   35   36 ar 
    39    1   37 1  
    40    1   38 1  
    41    1   39 1  
    42    3   40 1  
    43    5   41 1  
    44    5   42 1  
    45    7   43 1  
    46    7   44 1  
    47    7   45 1  
    48    8   46 1  
    49    8   47 1  
    50   13   48 1  
    51   13   49 1  
    52   14   50 1  
    53   14   51 1  
    54   15   52 1  
    55   16   53 1  
    56   16   54 1  
    57   17   55 1  
    58   17   56 1  
    59   19   57 1  
    60   19   58 1  
    61   21   59 1  
    62   22   60 1  
    63   24   61 1  
    64   27   62 1  
    65   28   63 1  
    66   32   64 1  
    67   35   65 1  
@<TRIPOS>SUBSTRUCTURE
     1 QGF         1

