### 
### Created by X-TOOL on Mon Sep 10 21:13:08 2018
### 

@<TRIPOS>MOLECULE
3q2h_ligand
   69    71     1     0     0
SMALL
GAST_HUCK


@<TRIPOS>ATOM
      1 C1          9.2210  -14.5250    2.4060 C.3       1 QHF        -0.0474
      2 F1         12.8150  -19.1190    3.9190 F         1 QHF        -0.1730
      3 N1          9.3110  -14.0750    9.6020 N.am      1 QHF        -0.2383
      4 O1          9.3610  -11.6400    8.8480 O.2       1 QHF        -0.1552
      5 S1          8.4950  -12.8020    8.8450 S.o2      1 QHF         0.0439
      6 C2          9.9240  -14.5210    3.7560 C.3       1 QHF         0.0257
      7 N2         10.1540  -13.9680   18.3050 N.2       1 QHF        -0.1775
      8 O2          7.1680  -12.7320    9.4210 O.2       1 QHF        -0.1552
      9 C3          8.9290  -14.2280    4.8970 C.3       1 QHF        -0.0053
     10 N3         10.4060  -14.6410    6.7830 N.am      1 QHF        -0.1446
     11 O3         10.0690  -15.3550   18.2270 O.3       1 QHF        -0.1900
     12 C4          9.4650  -13.6770    6.2230 C.3       1 QHF         0.1055
     13 N4         11.9730  -15.6910    3.9550 N.ar      1 QHF        -0.2661
     14 O4          9.9380  -15.9220    7.1090 O.3       1 QHF        -0.2680
     15 C5         10.1940  -12.3920    5.9920 C.3       1 QHF        -0.0342
     16 N5          9.9760  -16.9700    3.6870 N.ar      1 QHF        -0.2661
     17 O5         12.4110  -15.3940    7.5200 O.2       1 QHF        -0.3830
     18 C6          8.2710  -13.4040    7.1560 C.3       1 QHF         0.1132
     19 C7          8.3850  -15.0800   10.1790 C.3       1 QHF         0.0295
     20 C8          8.2660  -14.9340   11.6710 C.3       1 QHF        -0.0329
     21 C9          9.6430  -14.9950   12.3100 C.3       1 QHF        -0.0372
     22 C10         9.4200  -14.9230   13.8120 C.3       1 QHF        -0.0470
     23 C11        10.6680  -14.6630   14.6410 C.3       1 QHF        -0.0363
     24 C12        10.4240  -14.6360   16.1260 C.2       1 QHF        -0.0159
     25 C13        10.3540  -13.5470   17.0580 C.2       1 QHF         0.0128
     26 C14        10.4620  -12.0930   16.9110 C.3       1 QHF        -0.0299
     27 C15        10.2390  -15.7480   16.9290 C.2       1 QHF         0.1252
     28 C16        10.1980  -17.2040   16.6760 C.3       1 QHF         0.0025
     29 C17        10.5150  -13.8380   11.8240 C.3       1 QHF        -0.0329
     30 C18        10.5640  -13.6870   10.3230 C.3       1 QHF         0.0295
     31 C19        11.7350  -14.4980    7.0400 C.2       1 QHF         0.1956
     32 C20        10.6570  -15.8280    3.8080 C.ar      1 QHF         0.1032
     33 C21        12.6920  -16.8060    3.9850 C.ar      1 QHF         0.0551
     34 C22        12.0760  -18.0180    3.8790 C.ar      1 QHF         0.1779
     35 C23        10.7090  -18.0780    3.7340 C.ar      1 QHF         0.0551
     36 H           8.4483  -15.2937    2.4025 H         1 QHF         0.0260
     37 H           8.7661  -13.5499    2.2318 H         1 QHF         0.0260
     38 H           9.9470  -14.7342    1.6204 H         1 QHF         0.0260
     39 H          10.6494  -13.7182    3.8878 H         1 QHF         0.0526
     40 H           8.4956  -15.1960    5.1486 H         1 QHF         0.0322
     41 H           8.2778  -13.4447    4.5089 H         1 QHF         0.0322
     42 H          10.6606  -16.4446    7.4643 H         1 QHF         0.2496
     43 H          11.0294  -12.5665    5.3140 H         1 QHF         0.0256
     44 H           9.5131  -11.6636    5.5517 H         1 QHF         0.0256
     45 H          10.5690  -12.0125    6.9425 H         1 QHF         0.0256
     46 H           7.7402  -12.5902    6.6619 H         1 QHF         0.0546
     47 H           7.8214  -14.3876    7.2918 H         1 QHF         0.0546
     48 H           8.7770  -16.0735    9.9612 H         1 QHF         0.0478
     49 H           7.3988  -14.9308    9.7394 H         1 QHF         0.0478
     50 H           7.6523  -15.7450   12.0631 H         1 QHF         0.0283
     51 H           7.8055  -13.9734   11.9019 H         1 QHF         0.0283
     52 H          10.1667  -15.9118   12.0393 H         1 QHF         0.0303
     53 H           9.0384  -15.8969   14.1185 H         1 QHF         0.0279
     54 H           8.7471  -14.0838   13.9883 H         1 QHF         0.0279
     55 H          11.0445  -13.6800   14.3579 H         1 QHF         0.0329
     56 H          11.3628  -15.4792   14.4429 H         1 QHF         0.0329
     57 H           9.5409  -11.6246   17.2579 H         1 QHF         0.0367
     58 H          11.3013  -11.7304   17.5045 H         1 QHF         0.0367
     59 H          10.6238  -11.8462   15.8617 H         1 QHF         0.0367
     60 H           9.3911  -17.4276   15.9781 H         1 QHF         0.0423
     61 H          11.1485  -17.5242   16.2492 H         1 QHF         0.0423
     62 H          10.0243  -17.7299   17.6148 H         1 QHF         0.0423
     63 H          11.5322  -14.0392   12.1600 H         1 QHF         0.0283
     64 H          10.0844  -12.9206   12.2253 H         1 QHF         0.0283
     65 H          10.7267  -12.6285   10.1202 H         1 QHF         0.0478
     66 H          11.3492  -14.3539    9.9669 H         1 QHF         0.0478
     67 H          12.2141  -13.5468    6.8083 H         1 QHF         0.1561
     68 H          13.7752  -16.7531    4.0944 H         1 QHF         0.0907
     69 H          10.2196  -19.0489    3.6565 H         1 QHF         0.0907
@<TRIPOS>BOND
     1    6    1 1  
     2   34    2 1  
     3    5    3 am 
     4    3   19 1  
     5    3   30 1  
     6    5    4 2  
     7    5    8 2  
     8   18    5 1  
     9    6    9 1  
    10   32    6 1  
    11   11    7 1  
    12   25    7 2  
    13    9   12 1  
    14   12   10 1  
    15   10   14 1  
    16   10   31 am 
    17   27   11 1  
    18   12   15 1  
    19   12   18 1  
    20   13   32 ar 
    21   33   13 ar 
    22   32   16 ar 
    23   16   35 ar 
    24   31   17 2  
    25   19   20 1  
    26   20   21 1  
    27   21   22 1  
    28   29   21 1  
    29   22   23 1  
    30   23   24 1  
    31   24   25 1  
    32   24   27 2  
    33   25   26 1  
    34   27   28 1  
    35   30   29 1  
    36   33   34 ar 
    37   34   35 ar 
    38    1   36 1  
    39    1   37 1  
    40    1   38 1  
    41    6   39 1  
    42    9   40 1  
    43    9   41 1  
    44   14   42 1  
    45   15   43 1  
    46   15   44 1  
    47   15   45 1  
    48   18   46 1  
    49   18   47 1  
    50   19   48 1  
    51   19   49 1  
    52   20   50 1  
    53   20   51 1  
    54   21   52 1  
    55   22   53 1  
    56   22   54 1  
    57   23   55 1  
    58   23   56 1  
    59   26   57 1  
    60   26   58 1  
    61   26   59 1  
    62   28   60 1  
    63   28   61 1  
    64   28   62 1  
    65   29   63 1  
    66   29   64 1  
    67   30   65 1  
    68   30   66 1  
    69   31   67 1  
    70   33   68 1  
    71   35   69 1  
@<TRIPOS>SUBSTRUCTURE
     1 QHF         1

