### 
### Created by X-TOOL on Mon Sep 10 21:13:06 2018
### 

@<TRIPOS>MOLECULE
3q2j_ligand
   31    32     1     0     0
SMALL
GAST_HUCK


@<TRIPOS>ATOM
      1 C1         29.2340   10.7470   69.9760 C.ar      1 CKI         0.0217
      2 N2         28.8390   11.4140   71.0850 N.ar      1 CKI        -0.2974
      3 C3         27.6260   11.1500   71.6580 C.ar      1 CKI         0.0076
      4 C4         26.7850   10.1940   71.1220 C.ar      1 CKI        -0.0310
      5 C5         26.3390    8.3940   69.3230 C.ar      1 CKI         0.0562
      6 CL5        24.8400    7.9800   69.9300 Cl        1 CKI        -0.0664
      7 C6         26.7830    7.6990   68.1600 C.ar      1 CKI        -0.0397
      8 C7         28.0050    8.0030   67.6070 C.ar      1 CKI        -0.0281
      9 C8         28.8420    9.0130   68.1990 C.ar      1 CKI         0.1246
     10 C9         28.4050    9.7360   69.3860 C.ar      1 CKI         0.0361
     11 C10        27.1770    9.4410   69.9370 C.ar      1 CKI         0.0133
     12 S          30.3800    9.3200   67.4130 S.o2      1 CKI         0.0712
     13 O1S        31.4990    8.9680   68.3160 O.2       1 CKI        -0.1498
     14 O2S        30.4760   10.7980   67.0700 O.2       1 CKI        -0.1498
     15 N1'        30.4370    8.4430   66.0270 N.am      1 CKI        -0.2420
     16 C1'        31.0630    7.1270   66.2590 C.3       1 CKI         0.0665
     17 C2'        30.7990    6.4130   67.5980 C.3       1 CKI        -0.0182
     18 N2'        31.5860    5.2200   67.9390 N.4       1 CKI         0.2197
     19 H1         30.1923   10.9804   69.5262 H         1 CKI         0.0870
     20 H2         27.3208   11.6969   72.5427 H         1 CKI         0.0776
     21 H3         25.8248   10.0021   71.5869 H         1 CKI         0.0714
     22 H4         26.1593    6.9333   67.7130 H         1 CKI         0.0661
     23 H5         28.3399    7.4784   66.7194 H         1 CKI         0.0664
     24 H6         30.0931    8.7586   65.1426 H         1 CKI         0.1675
     25 H7         32.1509    7.2654   66.1739 H         1 CKI         0.0528
     26 H8         30.7150    6.4565   65.4595 H         1 CKI         0.0528
     27 H9         29.7411    6.1117   67.5990 H         1 CKI         0.0829
     28 H10        30.9710    7.1508   68.3956 H         1 CKI         0.0829
     29 H11        31.2962    4.8725   68.8397 H         1 CKI         0.1995
     30 H12        32.5643    5.4606   67.9706 H         1 CKI         0.1995
     31 H13        31.4373    4.5085   67.2407 H         1 CKI         0.1995
@<TRIPOS>BOND
     1    2    1 ar 
     2    1   10 ar 
     3    3    2 ar 
     4    4    3 ar 
     5   11    4 ar 
     6    5    6 1  
     7    5    7 ar 
     8    5   11 ar 
     9    7    8 ar 
    10    8    9 ar 
    11    9   10 ar 
    12    9   12 1  
    13   10   11 ar 
    14   12   13 2  
    15   12   14 2  
    16   12   15 am 
    17   15   16 1  
    18   16   17 1  
    19   17   18 1  
    20    1   19 1  
    21    3   20 1  
    22    4   21 1  
    23    7   22 1  
    24    8   23 1  
    25   15   24 1  
    26   16   25 1  
    27   16   26 1  
    28   17   27 1  
    29   17   28 1  
    30   18   29 1  
    31   18   30 1  
    32   18   31 1  
@<TRIPOS>SUBSTRUCTURE
     1 CKI         1

