### 
### Created by X-TOOL on Mon Sep 10 21:13:07 2018
### 

@<TRIPOS>MOLECULE
3q2m_ligand
   31    32     1     0     0
SMALL
GAST_HUCK


@<TRIPOS>ATOM
      1 C1         -2.4990   25.7210   34.9530 C.ar      1 CKI         0.0217
      2 N2         -3.7550   25.3540   34.4580 N.ar      1 CKI        -0.2974
      3 C3         -4.2200   26.0290   33.3340 C.ar      1 CKI         0.0076
      4 C4         -3.4820   27.0690   32.6710 C.ar      1 CKI        -0.0310
      5 C5         -1.3960   28.4810   32.5650 C.ar      1 CKI         0.0562
      6 CL5        -1.9380   29.3370   31.1660 Cl        1 CKI        -0.0664
      7 C6         -0.1200   28.8300   33.1050 C.ar      1 CKI        -0.0397
      8 C7          0.3890   28.1610   34.2620 C.ar      1 CKI        -0.0281
      9 C8         -0.3670   27.1200   34.9030 C.ar      1 CKI         0.1246
     10 C9         -1.6780   26.7520   34.3600 C.ar      1 CKI         0.0361
     11 C10        -2.1920   27.4400   33.1870 C.ar      1 CKI         0.0133
     12 S           0.3790   26.3510   36.3540 S.o2      1 CKI         0.0712
     13 O1S        -0.0940   27.0960   37.4950 O.2       1 CKI        -0.1498
     14 O2S         1.7900   26.4910   36.1770 O.2       1 CKI        -0.1498
     15 N1'        -0.0870   24.7070   36.5620 N.am      1 CKI        -0.2420
     16 C1'         0.9110   23.5600   36.5900 C.3       1 CKI         0.0665
     17 C2'         2.4410   23.7290   36.3760 C.3       1 CKI        -0.0182
     18 N2'         2.7990   24.7910   35.4460 N.4       1 CKI         0.2197
     19 H          -2.1194   25.2016   35.8329 H         1 CKI         0.0870
     20 H          -5.1964   25.7545   32.9347 H         1 CKI         0.0776
     21 H          -3.8927   27.5675   31.7930 H         1 CKI         0.0714
     22 H           0.4710   29.6135   32.6307 H         1 CKI         0.0661
     23 H           1.3623   28.4440   34.6627 H         1 CKI         0.0664
     24 H          -1.0781   24.4923   36.6715 H         1 CKI         0.1675
     25 H           0.6136   22.9634   35.7276 H         1 CKI         0.0528
     26 H           0.8507   23.2159   37.6225 H         1 CKI         0.0528
     27 H           2.8125   22.7943   35.9559 H         1 CKI         0.0829
     28 H           2.8746   23.9873   37.3421 H         1 CKI         0.0829
     29 H           3.8143   24.8381   35.3600 H         1 CKI         0.1995
     30 H           2.3880   24.5949   34.5333 H         1 CKI         0.1995
     31 H           2.4446   25.6813   35.7956 H         1 CKI         0.1995
@<TRIPOS>BOND
     1    2    1 ar 
     2    1   10 ar 
     3    3    2 ar 
     4    4    3 ar 
     5   11    4 ar 
     6    5    6 1  
     7    5    7 ar 
     8    5   11 ar 
     9    7    8 ar 
    10    8    9 ar 
    11    9   10 ar 
    12    9   12 1  
    13   10   11 ar 
    14   12   13 2  
    15   12   14 2  
    16   12   15 am 
    17   15   16 1  
    18   16   17 1  
    19   17   18 1  
    20    1   19 1  
    21    3   20 1  
    22    4   21 1  
    23    7   22 1  
    24    8   23 1  
    25   15   24 1  
    26   16   25 1  
    27   16   26 1  
    28   17   27 1  
    29   17   28 1  
    30   18   29 1  
    31   18   30 1  
    32   18   31 1  
@<TRIPOS>SUBSTRUCTURE
     1 CKI         1

