### 
### Created by X-TOOL on Mon Sep 10 21:13:06 2018
### 

@<TRIPOS>MOLECULE
3q32_ligand
   59    63     1     0     0
SMALL
GAST_HUCK


@<TRIPOS>ATOM
      1 C1         -2.7510   42.7110    6.0000 C.2       1 J2I        -0.0790
      2 C2         -3.7070   42.8030    4.9510 C.2       1 J2I        -0.0637
      3 C3         -1.1580   49.1080   -3.8780 C.ar      1 J2I        -0.0099
      4 C4          0.3390   50.5360   -2.6200 C.ar      1 J2I        -0.0099
      5 C5         -5.0660   44.7730   -0.0490 C.2       1 J2I        -0.0266
      6 C6         -1.6480   43.4700    5.6280 C.2       1 J2I         0.0445
      7 C7          0.9040   48.1990   -2.9760 C.ar      1 J2I         0.0320
      8 C8         -0.8400   50.3780   -3.3560 C.ar      1 J2I         0.0806
      9 C9         -0.2690   48.0290   -3.7050 C.ar      1 J2I         0.1259
     10 C10         1.2070   49.4570   -2.4240 C.ar      1 J2I         0.1259
     11 C11        -3.1230   43.5510    3.9450 C.2       1 J2I         0.1415
     12 C12        -6.1110   44.7360   -0.9670 C.2       1 J2I        -0.0148
     13 C13        -5.5060   43.9340    1.0080 C.2       1 J2I         0.1761
     14 C14        -3.5460   43.9190    2.6250 C.2       1 J2I         0.1748
     15 C15        -1.4840   45.0600    2.4260 C.2       1 J2I         0.1776
     16 C16         2.1950   46.7040   -1.4210 C.2       1 J2I         0.1871
     17 C17         0.6150   46.2740    1.9270 C.3       1 J2I         0.0523
     18 C18        -1.2240   46.2260    0.2590 C.3       1 J2I         0.0523
     19 C19         1.6500   45.9720    0.8540 C.3       1 J2I         0.0543
     20 C20        -0.2180   46.0370   -0.8700 C.3       1 J2I         0.0543
     21 C21        -6.3420   45.3320   -2.3060 C.3       1 J2I        -0.0326
     22 C22        -1.5520   52.4150   -4.4590 C.3       1 J2I         0.0578
     23 C23         1.8020   47.0030   -2.8420 C.3       1 J2I         0.0672
     24 N24        -6.7280   43.4460    0.7890 N.pl3     1 J2I        -0.2102
     25 N25        -2.7610   44.7310    1.9770 N.2       1 J2I        -0.2505
     26 N26        -1.0010   44.6640    3.5980 N.2       1 J2I        -0.1707
     27 N27        -7.0350   43.8770   -0.4490 N.2       1 J2I        -0.2519
     28 N28        -1.8700   43.9600    4.3680 N.pl3     1 J2I        -0.1837
     29 N29        -0.7020   45.7470    1.5440 N.pl3     1 J2I        -0.2788
     30 N30         1.2130   46.2720   -0.5270 N.am      1 J2I        -0.2681
     31 N31        -4.8110   43.6440    2.1800 N.pl3     1 J2I        -0.2190
     32 O32         3.3770   46.8710   -1.1030 O.2       1 J2I        -0.3946
     33 O33        -1.7030   51.4370   -3.4420 O.3       1 J2I        -0.3274
     34 F34        -0.5080   46.8080   -4.2080 F         1 J2I        -0.1925
     35 F35         2.3330   49.6760   -1.7400 F         1 J2I        -0.1925
     36 H1         -2.8629   42.1485    6.9257 H         1 J2I         0.0317
     37 H2         -4.7055   42.3685    4.9417 H         1 J2I         0.0300
     38 H3         -2.0888   48.9612   -4.4138 H         1 J2I         0.0478
     39 H4          0.5823   51.5042   -2.1974 H         1 J2I         0.0478
     40 H5         -4.1271   45.3196   -0.1241 H         1 J2I         0.0182
     41 H6         -0.7601   43.6451    6.2337 H         1 J2I         0.0813
     42 H7          0.5423   47.3633    2.0617 H         1 J2I         0.0541
     43 H8          0.9290   45.8077    2.8725 H         1 J2I         0.0541
     44 H9         -2.1396   45.6667    0.0166 H         1 J2I         0.0541
     45 H10        -1.4610   47.2964    0.3484 H         1 J2I         0.0541
     46 H11         1.8995   44.9021    0.9098 H         1 J2I         0.0542
     47 H12         2.5486   46.5697    1.0666 H         1 J2I         0.0542
     48 H13        -0.4872   46.7327   -1.6784 H         1 J2I         0.0542
     49 H14        -0.3102   45.0020   -1.2310 H         1 J2I         0.0542
     50 H15        -7.3332   45.0304   -2.6755 H         1 J2I         0.0373
     51 H16        -5.5678   44.9789   -3.0031 H         1 J2I         0.0373
     52 H17        -6.2964   46.4286   -2.2321 H         1 J2I         0.0373
     53 H18        -2.3394   53.1761   -4.3555 H         1 J2I         0.0575
     54 H19        -1.6340   51.9344   -5.4450 H         1 J2I         0.0575
     55 H20        -0.5656   52.8927   -4.3648 H         1 J2I         0.0575
     56 H21         2.7166   47.1872   -3.4247 H         1 J2I         0.0623
     57 H22         1.2776   46.1264   -3.2500 H         1 J2I         0.0623
     58 H23        -7.3039   42.8719    1.4212 H         1 J2I         0.2468
     59 H24        -5.3697   43.1066    2.8582 H         1 J2I         0.2262
@<TRIPOS>BOND
     1    2    1 1  
     2    6    1 2  
     3   11    2 2  
     4    3    8 ar 
     5    9    3 ar 
     6    4    8 ar 
     7   10    4 ar 
     8    5   12 1  
     9   13    5 2  
    10   28    6 1  
    11    7    9 ar 
    12    7   10 ar 
    13   23    7 1  
    14    8   33 1  
    15    9   34 1  
    16   10   35 1  
    17   14   11 1  
    18   11   28 1  
    19   12   21 1  
    20   12   27 2  
    21   13   24 1  
    22   31   13 1  
    23   25   14 2  
    24   14   31 1  
    25   15   25 1  
    26   15   26 2  
    27   29   15 1  
    28   16   23 1  
    29   30   16 am 
    30   16   32 2  
    31   19   17 1  
    32   17   29 1  
    33   18   20 1  
    34   29   18 1  
    35   19   30 1  
    36   20   30 1  
    37   33   22 1  
    38   24   27 1  
    39   26   28 1  
    40    1   36 1  
    41    2   37 1  
    42    3   38 1  
    43    4   39 1  
    44    5   40 1  
    45    6   41 1  
    46   17   42 1  
    47   17   43 1  
    48   18   44 1  
    49   18   45 1  
    50   19   46 1  
    51   19   47 1  
    52   20   48 1  
    53   20   49 1  
    54   21   50 1  
    55   21   51 1  
    56   21   52 1  
    57   22   53 1  
    58   22   54 1  
    59   22   55 1  
    60   23   56 1  
    61   23   57 1  
    62   24   58 1  
    63   31   59 1  
@<TRIPOS>SUBSTRUCTURE
     1 J2I         1

