### 
### Created by X-TOOL on Mon Sep 10 21:13:07 2018
### 

@<TRIPOS>MOLECULE
3q3b_ligand
   35    37     1     0     0
SMALL
GAST_HUCK


@<TRIPOS>ATOM
      1 O3         35.6950   10.7880   32.8280 O.2       1 55E        -0.4033
      2 C2         36.4620    9.8380   32.8900 C.2       1 55E         0.2532
      3 N4         37.2410    9.5400   34.0960 N.2       1 55E        -0.2816
      4 C5         38.0740    8.5240   34.1620 C.2       1 55E         0.0177
      5 C6         38.8550    8.3410   35.4450 C.ar      1 55E        -0.0113
      6 C21        39.7460    7.2570   35.5940 C.ar      1 55E        -0.0511
      7 C19        40.4900    7.0980   36.7700 C.ar      1 55E        -0.0085
      8 C20        41.4350    5.9100   36.8780 C.3       1 55E        -0.0314
      9 C17        40.3420    8.0500   37.8260 C.ar      1 55E         0.0978
     10 O18        41.0470    7.9450   38.9990 O.3       1 55E        -0.3311
     11 C16        39.4490    9.1410   37.6790 C.ar      1 55E        -0.0306
     12 C15        38.7100    9.2860   36.4940 C.ar      1 55E        -0.0587
     13 C7         38.2610    7.6780   33.0810 C.2       1 55E        -0.0085
     14 C8         37.5760    7.8750   31.9010 C.2       1 55E         0.1108
     15 N1         36.6260    9.0260   31.8100 N.am      1 55E        -0.2062
     16 C9         37.7930    7.0200   30.6760 C.ar      1 55E         0.0327
     17 C14        38.7960    5.9990   30.6620 C.ar      1 55E        -0.0417
     18 C13        39.0150    5.2300   29.4740 C.ar      1 55E        -0.0544
     19 C12        38.2370    5.4850   28.3030 C.ar      1 55E        -0.0558
     20 C11        37.2390    6.4950   28.3150 C.ar      1 55E        -0.0544
     21 C10        37.0210    7.2630   29.4980 C.ar      1 55E        -0.0417
     22 H          39.8565    6.5352   34.7847 H         1 55E         0.0586
     23 H          42.4534    6.2697   37.0252 H         1 55E         0.0369
     24 H          41.1414    5.2897   37.7248 H         1 55E         0.0369
     25 H          41.3847    5.3228   35.9611 H         1 55E         0.0369
     26 H          40.8119    8.6733   39.5786 H         1 55E         0.2490
     27 H          39.3362    9.8663   38.4848 H         1 55E         0.0546
     28 H          38.0241   10.1254   36.3795 H         1 55E         0.0602
     29 H          38.9593    6.8452   33.1646 H         1 55E         0.0407
     30 H          36.1073    9.2005   30.9493 H         1 55E         0.2541
     31 H          39.3921    5.8071   31.5541 H         1 55E         0.0683
     32 H          39.7758    4.4495   29.4630 H         1 55E         0.0634
     33 H          38.4101    4.9026   27.3980 H         1 55E         0.0667
     34 H          36.6411    6.6832   27.4233 H         1 55E         0.0634
     35 H          36.2587    8.0421   29.5032 H         1 55E         0.0683
@<TRIPOS>BOND
     1    1    2 2  
     2    2    3 1  
     3    2   15 am 
     4    3    4 2  
     5    4    5 1  
     6    4   13 1  
     7    5    6 ar 
     8    5   12 ar 
     9    6    7 ar 
    10    7    8 1  
    11    7    9 ar 
    12    9   10 1  
    13    9   11 ar 
    14   11   12 ar 
    15   13   14 2  
    16   14   15 1  
    17   14   16 1  
    18   16   17 ar 
    19   16   21 ar 
    20   17   18 ar 
    21   18   19 ar 
    22   19   20 ar 
    23   20   21 ar 
    24    6   22 1  
    25    8   23 1  
    26    8   24 1  
    27    8   25 1  
    28   10   26 1  
    29   11   27 1  
    30   12   28 1  
    31   13   29 1  
    32   15   30 1  
    33   17   31 1  
    34   18   32 1  
    35   19   33 1  
    36   20   34 1  
    37   21   35 1  
@<TRIPOS>SUBSTRUCTURE
     1 55E         1

