### 
### Created by X-TOOL on Mon Sep 10 21:13:07 2018
### 

@<TRIPOS>MOLECULE
3q3t_ligand
   76    79     1     0     0
SMALL
GAST_HUCK


@<TRIPOS>ATOM
      1 C1         31.1750   -8.8950  -11.7870 C.ar      1 RX0         0.0017
      2 C2         30.8990   -7.8080  -10.9530 C.ar      1 RX0        -0.0454
      3 C3         31.2940  -10.1550  -11.2310 C.ar      1 RX0        -0.0454
      4 C4         30.7110   -7.9480   -9.5790 C.ar      1 RX0        -0.0552
      5 C5         31.1040  -10.3190   -9.8500 C.ar      1 RX0        -0.0552
      6 C6         30.8150   -9.2150   -9.0290 C.ar      1 RX0        -0.0563
      7 C7         26.1160  -10.6720  -11.0730 C.2       1 RX0         0.1818
      8 O8         25.8160  -11.7320  -10.5630 O.2       1 RX0        -0.3966
      9 N9         26.2820  -10.6500  -12.4560 N.am      1 RX0        -0.2735
     10 C10        28.1400  -12.0150  -13.4030 C.3       1 RX0        -0.0329
     11 C11        28.4500  -10.7570  -14.2290 C.3       1 RX0        -0.0524
     12 C12        28.3950   -9.5270  -13.3300 C.3       1 RX0        -0.0191
     13 C13        26.9360   -9.3990  -12.9620 C.3       1 RX0         0.0309
     14 C14        26.6640  -11.9720  -13.0430 C.3       1 RX0         0.0338
     15 C15        28.9720   -8.2640  -14.0070 C.3       1 RX0         0.0551
     16 O16        28.2980   -8.1370  -15.2600 O.3       1 RX0        -0.4284
     17 C17        30.4710   -8.4240  -14.2400 C.ar      1 RX0        -0.0203
     18 C18        30.9230   -8.3120  -15.5630 C.ar      1 RX0        -0.0392
     19 C19        31.4210   -8.7160  -13.2470 C.ar      1 RX0         0.0057
     20 C20        32.2520   -8.4540  -15.9370 C.ar      1 RX0        -0.0339
     21 C21        32.7600   -8.8600  -13.6230 C.ar      1 RX0        -0.0261
     22 C22        33.1790   -8.7350  -14.9500 C.ar      1 RX0        -0.0348
     23 C23        28.6820   -6.9280  -13.3140 C.3       1 RX0        -0.0513
     24 C24        29.4470   -5.7800  -13.9850 C.3       1 RX0        -0.0568
     25 C25        29.1030   -4.4460  -13.3550 C.3       1 RX0        -0.0302
     26 C26        27.6300   -4.1270  -13.5990 C.3       1 RX0         0.0473
     27 O27        27.3820   -2.7410  -13.3620 O.3       1 RX0        -0.3830
     28 C28        26.0030   -2.3890  -13.5200 C.3       1 RX0         0.0364
     29 C29        27.4560   -8.9920   -9.5520 C.3       1 RX0        -0.0016
     30 C30        27.0040   -8.1330   -8.3780 C.3       1 RX0         0.1000
     31 C31        25.4820   -8.1440   -8.3510 C.3       1 RX0         0.0047
     32 C32        25.1560   -9.4170   -9.0750 C.3       1 RX0         0.0124
     33 C33        26.1510   -9.3870  -10.2320 C.3       1 RX0         0.0565
     34 O34        27.4990   -8.6730   -7.1270 O.3       1 RX0        -0.3861
     35 N35        24.9070   -8.1620   -6.9790 N.4       1 RX0         0.2227
     36 H          30.8281   -6.8135  -11.3935 H         1 RX0         0.0672
     37 H          31.5331  -11.0131  -11.8591 H         1 RX0         0.0672
     38 H          30.4880   -7.0833   -8.9539 H         1 RX0         0.0633
     39 H          31.1814  -11.3130   -9.4094 H         1 RX0         0.0633
     40 H          30.6725   -9.3563   -7.9576 H         1 RX0         0.0663
     41 H          28.7520  -12.0397  -12.5014 H         1 RX0         0.0284
     42 H          28.3666  -12.9136  -13.9769 H         1 RX0         0.0284
     43 H          27.7125  -10.6563  -15.0253 H         1 RX0         0.0261
     44 H          29.4467  -10.8447  -14.6614 H         1 RX0         0.0261
     45 H          29.0227   -9.6347  -12.4454 H         1 RX0         0.0239
     46 H          26.8845   -8.6733  -12.1504 H         1 RX0         0.0517
     47 H          26.4098   -9.1230  -13.8758 H         1 RX0         0.0517
     48 H          26.0820  -12.1279  -13.9514 H         1 RX0         0.0522
     49 H          26.4657  -12.7484  -12.3041 H         1 RX0         0.0522
     50 H          27.3546   -8.0459  -15.1069 H         1 RX0         0.1942
     51 H          30.1893   -8.1016  -16.3412 H         1 RX0         0.0838
     52 H          32.5562   -8.3472  -16.9782 H         1 RX0         0.0694
     53 H          33.5022   -9.0771  -12.8548 H         1 RX0         0.0700
     54 H          34.2313   -8.8584  -15.2060 H         1 RX0         0.0844
     55 H          29.0005   -6.9983  -12.2739 H         1 RX0         0.0184
     56 H          27.6137   -6.7233  -13.3845 H         1 RX0         0.0184
     57 H          29.1696   -5.7477  -15.0386 H         1 RX0         0.0258
     58 H          30.5155   -5.9565  -13.8615 H         1 RX0         0.0258
     59 H          29.7204   -3.6659  -13.8003 H         1 RX0         0.0287
     60 H          29.2896   -4.4940  -12.2822 H         1 RX0         0.0287
     61 H          27.0182   -4.7210  -12.9200 H         1 RX0         0.0560
     62 H          27.3795   -4.3634  -14.6331 H         1 RX0         0.0560
     63 H          25.6859   -2.6153  -14.5380 H         1 RX0         0.0523
     64 H          25.4002   -2.9611  -12.8147 H         1 RX0         0.0523
     65 H          25.8769   -1.3236  -13.3271 H         1 RX0         0.0523
     66 H          28.0388   -9.8569   -9.2351 H         1 RX0         0.0319
     67 H          28.1302   -8.4592  -10.2225 H         1 RX0         0.0319
     68 H          27.3918   -7.1212   -8.4959 H         1 RX0         0.0651
     69 H          25.0633   -7.2419   -8.7970 H         1 RX0         0.0877
     70 H          24.1172   -9.4752   -9.4001 H         1 RX0         0.0348
     71 H          25.2474  -10.3051   -8.4497 H         1 RX0         0.0348
     72 H          25.9323   -8.6689  -11.0223 H         1 RX0         0.0541
     73 H          27.1826   -8.1328   -6.3991 H         1 RX0         0.2100
     74 H          23.8888   -8.1686   -7.0384 H         1 RX0         0.1998
     75 H          25.2256   -8.9980   -6.4891 H         1 RX0         0.1998
     76 H          25.2138   -7.3317   -6.4721 H         1 RX0         0.1998
@<TRIPOS>BOND
     1    1    2 ar 
     2    1    3 ar 
     3   19    1 1  
     4    2    4 ar 
     5    3    5 ar 
     6    4    6 ar 
     7    5    6 ar 
     8    7    8 2  
     9    7    9 am 
    10   33    7 1  
    11    9   13 1  
    12    9   14 1  
    13   10   11 1  
    14   14   10 1  
    15   12   11 1  
    16   13   12 1  
    17   12   15 1  
    18   15   16 1  
    19   15   17 1  
    20   15   23 1  
    21   17   18 ar 
    22   17   19 ar 
    23   18   20 ar 
    24   19   21 ar 
    25   20   22 ar 
    26   21   22 ar 
    27   23   24 1  
    28   24   25 1  
    29   25   26 1  
    30   26   27 1  
    31   27   28 1  
    32   29   30 1  
    33   29   33 1  
    34   30   31 1  
    35   30   34 1  
    36   31   32 1  
    37   31   35 1  
    38   32   33 1  
    39    2   36 1  
    40    3   37 1  
    41    4   38 1  
    42    5   39 1  
    43    6   40 1  
    44   10   41 1  
    45   10   42 1  
    46   11   43 1  
    47   11   44 1  
    48   12   45 1  
    49   13   46 1  
    50   13   47 1  
    51   14   48 1  
    52   14   49 1  
    53   16   50 1  
    54   18   51 1  
    55   20   52 1  
    56   21   53 1  
    57   22   54 1  
    58   23   55 1  
    59   23   56 1  
    60   24   57 1  
    61   24   58 1  
    62   25   59 1  
    63   25   60 1  
    64   26   61 1  
    65   26   62 1  
    66   28   63 1  
    67   28   64 1  
    68   28   65 1  
    69   29   66 1  
    70   29   67 1  
    71   30   68 1  
    72   31   69 1  
    73   32   70 1  
    74   32   71 1  
    75   33   72 1  
    76   34   73 1  
    77   35   74 1  
    78   35   75 1  
    79   35   76 1  
@<TRIPOS>SUBSTRUCTURE
     1 RX0         1

