### 
### Created by X-TOOL on Mon Sep 10 21:13:05 2018
### 

@<TRIPOS>MOLECULE
3q43_ligand
   50    50     1     0     0
SMALL
GAST_HUCK


@<TRIPOS>ATOM
      1 C1         12.7870    9.3880   19.3530 C.3       1 D66         0.0579
      2 N1         11.7900   12.7360   12.2200 N.4       1 D66         0.2256
      3 O1         12.4990   10.7280   18.9290 O.3       1 D66        -0.3257
      4 C2         12.7980   11.1710   17.6370 C.ar      1 D66         0.0837
      5 N2         16.0230   10.9360   10.6630 N.am      1 D66        -0.2691
      6 O2         13.3370   12.3110   10.0810 O.3       1 D66        -0.3664
      7 C3         12.7540   12.5200   17.3410 C.ar      1 D66        -0.0396
      8 O3         14.6360    9.8690   11.9850 O.2       1 D66        -0.3939
      9 C4         13.0520   13.0070   16.0490 C.ar      1 D66        -0.0685
     10 O4         18.7290    8.9920   12.1680 O.co2     1 D66        -0.5666
     11 C5         13.4110   12.1250   15.0400 C.ar      1 D66        -0.0481
     12 O5         17.6760   10.8660   12.7480 O.co2     1 D66        -0.5666
     13 C6         13.7440   12.6920   13.6700 C.3       1 D66         0.0236
     14 C7         13.0500   12.0360   12.4850 C.3       1 D66         0.0276
     15 C8         14.0170   12.1470   11.3230 C.3       1 D66         0.1879
     16 C9         14.9110   10.8990   11.3390 C.2       1 D66         0.2125
     17 C10        16.8830    9.7510   10.7440 C.3       1 D66         0.0946
     18 C11        17.7300    9.6240    9.4720 C.3       1 D66        -0.0156
     19 C12        16.9920    9.0190    8.2750 C.3       1 D66        -0.0431
     20 C13        16.4860    7.5980    8.5350 C.3       1 D66        -0.0625
     21 C14        17.9590    9.0950    7.1010 C.3       1 D66        -0.0625
     22 C15        17.8150    9.8280   11.9350 C.2       1 D66         0.0601
     23 C16        13.4760   10.7600   15.3290 C.ar      1 D66        -0.0685
     24 C17        13.1640   10.2960   16.6280 C.ar      1 D66        -0.0396
     25 H          12.2472    8.6840   18.7197 H         1 D66         0.0575
     26 H          13.8584    9.2047   19.2711 H         1 D66         0.0575
     27 H          12.4735    9.2608   20.3892 H         1 D66         0.0575
     28 H          11.3207   12.3000   11.4262 H         1 D66         0.2001
     29 H          11.1911   12.6792   13.0437 H         1 D66         0.2001
     30 H          11.9843   13.7142   12.0062 H         1 D66         0.2001
     31 H          16.2832   11.7490   10.1047 H         1 D66         0.1875
     32 H          13.9803   12.3774    9.3716 H         1 D66         0.2136
     33 H          12.4822   13.2268   18.1250 H         1 D66         0.0525
     34 H          12.9999   14.0764   15.8446 H         1 D66         0.0530
     35 H          14.8122   12.5305   13.5250 H         1 D66         0.0463
     36 H          13.4117   13.7301   13.6811 H         1 D66         0.0463
     37 H          12.8006   10.9903   12.6648 H         1 D66         0.0924
     38 H          14.6334   13.0393   11.4321 H         1 D66         0.0898
     39 H          16.2329    8.8830   10.8538 H         1 D66         0.0726
     40 H          18.5589    8.9560    9.7063 H         1 D66         0.0308
     41 H          18.0287   10.6325    9.1859 H         1 D66         0.0308
     42 H          16.0806    9.5790    8.0654 H         1 D66         0.0297
     43 H          17.3312    6.9490    8.7642 H         1 D66         0.0232
     44 H          15.7951    7.6083    9.3780 H         1 D66         0.0232
     45 H          15.9726    7.2284    7.6473 H         1 D66         0.0232
     46 H          18.2224   10.1363    6.9157 H         1 D66         0.0232
     47 H          18.8594    8.5274    7.3362 H         1 D66         0.0232
     48 H          17.4849    8.6754    6.2137 H         1 D66         0.0232
     49 H          13.7673   10.0521   14.5530 H         1 D66         0.0530
     50 H          13.2126    9.2278   16.8393 H         1 D66         0.0525
@<TRIPOS>BOND
     1    3    1 1  
     2   14    2 1  
     3    4    3 1  
     4    7    4 ar 
     5    4   24 ar 
     6    5   16 am 
     7   17    5 1  
     8   15    6 1  
     9    9    7 ar 
    10   16    8 2  
    11   11    9 ar 
    12   22   10 ar 
    13   13   11 1  
    14   11   23 ar 
    15   22   12 ar 
    16   14   13 1  
    17   15   14 1  
    18   16   15 1  
    19   17   18 1  
    20   17   22 1  
    21   18   19 1  
    22   19   20 1  
    23   19   21 1  
    24   23   24 ar 
    25    1   25 1  
    26    1   26 1  
    27    1   27 1  
    28    2   28 1  
    29    2   29 1  
    30    2   30 1  
    31    5   31 1  
    32    6   32 1  
    33    7   33 1  
    34    9   34 1  
    35   13   35 1  
    36   13   36 1  
    37   14   37 1  
    38   15   38 1  
    39   17   39 1  
    40   18   40 1  
    41   18   41 1  
    42   19   42 1  
    43   20   43 1  
    44   20   44 1  
    45   20   45 1  
    46   21   46 1  
    47   21   47 1  
    48   21   48 1  
    49   23   49 1  
    50   24   50 1  
@<TRIPOS>SUBSTRUCTURE
     1 D66         1

