### 
### Created by X-TOOL on Mon Sep 10 21:13:06 2018
### 

@<TRIPOS>MOLECULE
3q44_ligand
   60    61     1     0     0
SMALL
GAST_HUCK


@<TRIPOS>ATOM
      1 C1         17.2420    9.0780    7.0360 C.3       1 D50        -0.0625
      2 N1         15.4250   10.7780   10.5820 N.am      1 D50        -0.2691
      3 O1         13.9390    9.6190   11.7240 O.2       1 D50        -0.3939
      4 C2         16.3420    9.0290    8.2410 C.3       1 D50        -0.0431
      5 N2         11.2460   12.7430   11.9840 N.4       1 D50         0.2256
      6 O2         12.8170   12.1970    9.8930 O.3       1 D50        -0.3664
      7 C3         15.8120    7.6000    8.4500 C.3       1 D50        -0.0625
      8 O3         12.1540   10.1800   18.6040 O.3       1 D50        -0.3099
      9 C4         17.1690    9.5400    9.4170 C.3       1 D50        -0.0156
     10 O4         17.1020   10.7430   12.6490 O.co2     1 D50        -0.5666
     11 C5         16.3490    9.6640   10.6690 C.3       1 D50         0.0946
     12 O5         18.0750    8.8160   12.1410 O.co2     1 D50        -0.5666
     13 C6         14.2660   10.6850   11.1690 C.2       1 D50         0.2125
     14 C7         13.4490   11.9820   11.1860 C.3       1 D50         0.1879
     15 C8         12.4360   11.9060   12.3170 C.3       1 D50         0.0276
     16 C9         13.1310   12.5110   13.5140 C.3       1 D50         0.0236
     17 C10        12.8380   11.8650   14.8410 C.ar      1 D50        -0.0481
     18 C11        13.2690   10.5600   15.1310 C.ar      1 D50        -0.0685
     19 C12        13.0230   10.0080   16.3840 C.ar      1 D50        -0.0393
     20 C13        12.3690   10.7420   17.3480 C.ar      1 D50         0.0868
     21 C14        11.0280   10.4060   19.4460 C.3       1 D50         0.1028
     22 C15        11.1280    9.4110   20.5780 C.ar      1 D50        -0.0131
     23 C16        10.8140    9.7900   21.8870 C.ar      1 D50        -0.0578
     24 C17        10.9110    8.8660   22.9270 C.ar      1 D50        -0.0685
     25 C18        11.3270    7.5620   22.6600 C.ar      1 D50        -0.0687
     26 C19        11.6540    7.1620   21.3580 C.ar      1 D50        -0.0685
     27 C20        11.5460    8.1020   20.3210 C.ar      1 D50        -0.0578
     28 C21        11.9620   12.0370   17.0600 C.ar      1 D50        -0.0393
     29 C22        12.1930   12.6210   15.8070 C.ar      1 D50        -0.0685
     30 C23        17.2050    9.7750   11.8940 C.2       1 D50         0.0601
     31 H1         16.6930    8.7180    6.1534 H         1 D50         0.0232
     32 H2         18.1200    8.4380    7.2078 H         1 D50         0.0232
     33 H3         17.5709   10.1138    6.8658 H         1 D50         0.0232
     34 H4         15.6739   11.6055   10.0787 H         1 D50         0.1875
     35 H5         15.4823    9.6980    8.0886 H         1 D50         0.0297
     36 H6         10.5769   12.6900   12.7360 H         1 D50         0.2001
     37 H7         10.8237   12.4036   11.1340 H         1 D50         0.2001
     38 H8         11.5337   13.7007   11.8571 H         1 D50         0.2001
     39 H9         13.4859   12.2597    9.2214 H         1 D50         0.2136
     40 H10        15.1562    7.5777    9.3328 H         1 D50         0.0232
     41 H11        16.6580    6.9140    8.6042 H         1 D50         0.0232
     42 H12        15.2428    7.2865    7.5624 H         1 D50         0.0232
     43 H13        17.5779   10.5285    9.1609 H         1 D50         0.0308
     44 H14        17.9954    8.8380    9.6018 H         1 D50         0.0308
     45 H15        15.7537    8.7440   10.7647 H         1 D50         0.0726
     46 H16        14.1263   12.8265   11.3812 H         1 D50         0.0898
     47 H17        12.1340   10.8662   12.5111 H         1 D50         0.0924
     48 H18        12.8305   13.5671   13.5799 H         1 D50         0.0463
     49 H19        14.2155   12.4484   13.3411 H         1 D50         0.0463
     50 H20        13.7935    9.9828   14.3782 H         1 D50         0.0530
     51 H21        13.3472    8.9969   16.6021 H         1 D50         0.0525
     52 H22        10.0959   10.2483   18.8836 H         1 D50         0.0776
     53 H23        11.0491   11.4326   19.8404 H         1 D50         0.0776
     54 H24        10.4943   10.8049   22.0938 H         1 D50         0.0557
     55 H25        10.6636    9.1607   23.9404 H         1 D50         0.0599
     56 H26        11.3984    6.8474   23.4720 H         1 D50         0.0559
     57 H27        11.9831    6.1492   21.1557 H         1 D50         0.0599
     58 H28        11.7902    7.8086   19.3064 H         1 D50         0.0557
     59 H29        11.4519   12.6121   17.8243 H         1 D50         0.0525
     60 H30        11.8758   13.6365   15.5991 H         1 D50         0.0530
@<TRIPOS>BOND
     1    4    1 1  
     2    2   11 1  
     3   13    2 am 
     4   13    3 2  
     5    4    7 1  
     6    9    4 1  
     7   15    5 1  
     8   14    6 1  
     9   20    8 1  
    10    8   21 1  
    11   11    9 1  
    12   30   10 ar 
    13   11   30 1  
    14   30   12 ar 
    15   14   13 1  
    16   15   14 1  
    17   16   15 1  
    18   17   16 1  
    19   18   17 ar 
    20   17   29 ar 
    21   19   18 ar 
    22   19   20 ar 
    23   20   28 ar 
    24   21   22 1  
    25   22   23 ar 
    26   22   27 ar 
    27   23   24 ar 
    28   24   25 ar 
    29   25   26 ar 
    30   26   27 ar 
    31   28   29 ar 
    32    1   31 1  
    33    1   32 1  
    34    1   33 1  
    35    2   34 1  
    36    4   35 1  
    37    5   36 1  
    38    5   37 1  
    39    5   38 1  
    40    6   39 1  
    41    7   40 1  
    42    7   41 1  
    43    7   42 1  
    44    9   43 1  
    45    9   44 1  
    46   11   45 1  
    47   14   46 1  
    48   15   47 1  
    49   16   48 1  
    50   16   49 1  
    51   18   50 1  
    52   19   51 1  
    53   21   52 1  
    54   21   53 1  
    55   23   54 1  
    56   24   55 1  
    57   25   56 1  
    58   26   57 1  
    59   27   58 1  
    60   28   59 1  
    61   29   60 1  
@<TRIPOS>SUBSTRUCTURE
     1 D50         1

