### 
### Created by X-TOOL on Mon Sep 10 21:13:07 2018
### 

@<TRIPOS>MOLECULE
3q4b_ligand
   78    80     1     0     0
SMALL
GAST_HUCK


@<TRIPOS>ATOM
      1 C1         25.3160   -9.1970   -6.3710 C.3       1 RX5        -0.0445
      2 N1         25.5350   -8.0720   -7.2880 N.4       1 RX5         0.2284
      3 O1         25.4310  -11.2350  -11.1690 O.2       1 RX5        -0.4007
      4 C2         26.2920   -8.4090   -8.5250 C.3       1 RX5        -0.0022
      5 N2         26.0060   -9.1650  -10.8360 N.am      1 RX5        -0.2676
      6 O2         29.2030   -7.1570  -13.4380 O.3       1 RX5        -0.3618
      7 C3         25.5220   -9.3270   -9.4650 C.3       1 RX5         0.0739
      8 N3         26.3380  -10.1480  -12.9240 N.am      1 RX5        -0.2590
      9 O3         27.8540   -2.6940  -13.6150 O.2       1 RX5        -0.3776
     10 C4         25.9080  -10.2030  -11.6500 C.2       1 RX5         0.2601
     11 N4         27.8940   -4.7900  -12.5890 N.am      1 RX5        -0.2603
     12 O4         25.8550   -3.6220  -12.8980 O.3       1 RX5        -0.2673
     13 C5         26.9440   -8.9620  -13.5810 C.3       1 RX5         0.0412
     14 C6         28.4120   -9.3260  -13.8840 C.3       1 RX5         0.0154
     15 C7         28.4600  -10.5760  -14.8020 C.3       1 RX5        -0.0424
     16 C8         27.6300  -11.7620  -14.2580 C.3       1 RX5        -0.0322
     17 C9         26.2140  -11.3350  -13.7920 C.3       1 RX5         0.0343
     18 C10        29.1870   -8.1430  -14.4660 C.3       1 RX5         0.0972
     19 C11        27.6450   -8.9850   -8.1350 C.3       1 RX5        -0.0030
     20 C12        28.7560   -8.7410   -9.1500 C.3       1 RX5        -0.0123
     21 C13        29.8010   -9.8440   -8.9650 C.3       1 RX5         0.0507
     22 O14        30.8880   -9.6470   -9.8890 O.3       1 RX5        -0.3795
     23 C15        31.6330   -8.4820   -9.5280 C.3       1 RX5         0.0477
     24 C16        30.7260   -7.2610   -9.6420 C.3       1 RX5        -0.0291
     25 C17        29.4490   -7.4190   -8.8580 C.3       1 RX5        -0.0459
     26 C18        29.5600   -5.8650  -13.9650 C.3       1 RX5         0.0707
     27 C19        29.3540   -4.8960  -12.7960 C.3       1 RX5         0.0564
     28 C20        27.2840   -3.6700  -13.0510 C.2       1 RX5         0.3193
     29 C21        30.6190   -8.4440  -14.7940 C.ar      1 RX5        -0.0137
     30 C22        31.5410   -8.7370  -13.7920 C.ar      1 RX5        -0.0440
     31 C23        32.8580   -9.0120  -14.1170 C.ar      1 RX5         0.0338
     32 C24        33.3250   -8.9860  -15.4220 C.ar      1 RX5        -0.0548
     33 C25        32.3940   -8.6870  -16.4120 C.ar      1 RX5        -0.0680
     34 C26        31.0580   -8.4410  -16.1090 C.ar      1 RX5        -0.0577
     35 C27        25.1110   -2.6210  -13.6230 C.3       1 RX5         0.0663
     36 CL2        33.9910   -9.4230  -12.8060 Cl        1 RX5        -0.0725
     37 H1         24.7518   -8.8498   -5.4929 H         1 RX5         0.0777
     38 H2         26.2867   -9.6003   -6.0470 H         1 RX5         0.0777
     39 H3         24.7453   -9.9840   -6.8858 H         1 RX5         0.0777
     40 H4         26.0469   -7.3591   -6.7922 H         1 RX5         0.2014
     41 H5         24.6344   -7.7107   -7.5609 H         1 RX5         0.2014
     42 H6         26.4720   -7.4707   -9.0702 H         1 RX5         0.0870
     43 H7         26.3976   -8.2991  -11.1472 H         1 RX5         0.1847
     44 H8         24.4522   -9.0741   -9.4248 H         1 RX5         0.0573
     45 H9         25.6639  -10.3714   -9.1504 H         1 RX5         0.0573
     46 H10        27.3785   -5.5126  -12.1284 H         1 RX5         0.1868
     47 H11        26.8999   -8.0923  -12.9090 H         1 RX5         0.0524
     48 H12        26.4100   -8.7314  -14.5146 H         1 RX5         0.0524
     49 H13        28.8942   -9.5931  -12.9321 H         1 RX5         0.0367
     50 H14        29.5072  -10.8979  -14.9003 H         1 RX5         0.0272
     51 H15        28.0672  -10.2988  -15.7913 H         1 RX5         0.0272
     52 H16        28.1640  -12.2031  -13.4034 H         1 RX5         0.0285
     53 H17        27.5269  -12.5143  -15.0539 H         1 RX5         0.0285
     54 H18        25.5947  -11.0900  -14.6675 H         1 RX5         0.0519
     55 H19        25.7460  -12.1568  -13.2302 H         1 RX5         0.0519
     56 H20        28.6753   -7.7721  -15.3664 H         1 RX5         0.0763
     57 H21        27.5309  -10.0714   -8.0060 H         1 RX5         0.0324
     58 H22        27.9480   -8.5321   -7.1795 H         1 RX5         0.0324
     59 H23        28.3507   -8.7473  -10.1726 H         1 RX5         0.0325
     60 H24        29.3356  -10.8229   -9.1523 H         1 RX5         0.0562
     61 H25        30.1869   -9.8124   -7.9354 H         1 RX5         0.0562
     62 H26        32.4921   -8.3684  -10.2055 H         1 RX5         0.0560
     63 H27        31.9926   -8.5796   -8.4930 H         1 RX5         0.0560
     64 H28        30.4733   -7.1063  -10.7013 H         1 RX5         0.0287
     65 H29        31.2673   -6.3821   -9.2620 H         1 RX5         0.0287
     66 H30        29.6842   -7.3717   -7.7845 H         1 RX5         0.0269
     67 H31        28.7679   -6.5962   -9.1208 H         1 RX5         0.0269
     68 H32        28.9083   -5.5973  -14.8098 H         1 RX5         0.0582
     69 H33        30.6094   -5.8572  -14.2946 H         1 RX5         0.0582
     70 H34        29.8388   -5.2866  -11.8891 H         1 RX5         0.0542
     71 H35        29.7754   -3.9100  -13.0414 H         1 RX5         0.0542
     72 H36        31.2263   -8.7497  -12.7548 H         1 RX5         0.0563
     73 H37        34.3632   -9.1884  -15.6593 H         1 RX5         0.0565
     74 H38        32.7175   -8.6446  -17.4457 H         1 RX5         0.0599
     75 H39        30.3536   -8.2451  -16.9093 H         1 RX5         0.0559
     76 H40        24.0399   -2.7232  -13.3944 H         1 RX5         0.0575
     77 H41        25.2700   -2.7566  -14.7030 H         1 RX5         0.0575
     78 H42        25.4557   -1.6200  -13.3244 H         1 RX5         0.0575
@<TRIPOS>BOND
     1    2    1 1  
     2    4    2 1  
     3   10    3 2  
     4    7    4 1  
     5    4   19 1  
     6    5    7 1  
     7   10    5 am 
     8    6   18 1  
     9   26    6 1  
    10    8   10 am 
    11   13    8 1  
    12    8   17 1  
    13   28    9 2  
    14   27   11 1  
    15   11   28 am 
    16   28   12 1  
    17   12   35 1  
    18   14   13 1  
    19   14   15 1  
    20   18   14 1  
    21   15   16 1  
    22   16   17 1  
    23   18   29 1  
    24   19   20 1  
    25   20   21 1  
    26   20   25 1  
    27   21   22 1  
    28   22   23 1  
    29   24   23 1  
    30   25   24 1  
    31   26   27 1  
    32   29   30 ar 
    33   29   34 ar 
    34   30   31 ar 
    35   31   32 ar 
    36   31   36 1  
    37   32   33 ar 
    38   33   34 ar 
    39    1   37 1  
    40    1   38 1  
    41    1   39 1  
    42    2   40 1  
    43    2   41 1  
    44    4   42 1  
    45    5   43 1  
    46    7   44 1  
    47    7   45 1  
    48   11   46 1  
    49   13   47 1  
    50   13   48 1  
    51   14   49 1  
    52   15   50 1  
    53   15   51 1  
    54   16   52 1  
    55   16   53 1  
    56   17   54 1  
    57   17   55 1  
    58   18   56 1  
    59   19   57 1  
    60   19   58 1  
    61   20   59 1  
    62   21   60 1  
    63   21   61 1  
    64   23   62 1  
    65   23   63 1  
    66   24   64 1  
    67   24   65 1  
    68   25   66 1  
    69   25   67 1  
    70   26   68 1  
    71   26   69 1  
    72   27   70 1  
    73   27   71 1  
    74   30   72 1  
    75   32   73 1  
    76   33   74 1  
    77   34   75 1  
    78   35   76 1  
    79   35   77 1  
    80   35   78 1  
@<TRIPOS>SUBSTRUCTURE
     1 RX5         1

