### 
### Created by X-TOOL on Mon Sep 10 21:13:07 2018
### 

@<TRIPOS>MOLECULE
3q5h_ligand
   78    80     1     0     0
SMALL
GAST_HUCK


@<TRIPOS>ATOM
      1 C1         29.3250   -8.1790  -14.4320 C.3       1 RX6         0.0972
      2 N1         28.0580   -4.7840  -12.6560 N.am      1 RX6        -0.2603
      3 O1         31.0520   -9.9120  -10.0740 O.3       1 RX6        -0.3795
      4 C2         25.5970   -2.3910  -13.6530 C.3       1 RX6         0.0663
      5 O2         26.1080   -3.5270  -12.9560 O.3       1 RX6        -0.2673
      6 C3         30.7050   -8.5840  -14.7400 C.ar      1 RX6        -0.0137
      7 O3         29.5180   -7.1390  -13.4800 O.3       1 RX6        -0.3618
      8 C4         31.6370   -8.8650  -13.7180 C.ar      1 RX6        -0.0440
      9 C5         31.0880   -8.6270  -16.0780 C.ar      1 RX6        -0.0577
     10 C6         32.9420   -9.1790  -14.0670 C.ar      1 RX6         0.0338
     11 C7         32.3930   -8.9560  -16.4020 C.ar      1 RX6        -0.0680
     12 C8         33.3200   -9.2400  -15.4040 C.ar      1 RX6        -0.0548
     13 C9         27.5340   -3.6600  -13.0580 C.2       1 RX6         0.3193
     14 CL28       34.1620   -9.6080  -12.8200 Cl        1 RX6        -0.0725
     15 C32        26.7500   -9.1000   -9.3050 C.3       1 RX6         0.0823
     16 C33        25.3610   -8.7490   -8.7700 C.3       1 RX6        -0.0106
     17 C34        27.8460   -8.1340   -8.8950 C.3       1 RX6        -0.0202
     18 N35        25.3620   -8.3010   -7.3510 N.4       1 RX6         0.2264
     19 O35        28.2100   -2.7530  -13.5180 O.2       1 RX6        -0.3776
     20 C36        29.1960   -8.3850   -9.5840 C.3       1 RX6        -0.0152
     21 C37        30.2060   -7.4120   -8.9690 C.3       1 RX6        -0.0460
     22 C38        31.6230   -7.6980   -9.5030 C.3       1 RX6        -0.0291
     23 C39        32.0760   -9.1720   -9.4930 C.3       1 RX6         0.0477
     24 C40        29.7630   -9.7850   -9.3930 C.3       1 RX6         0.0505
     25 N42        26.7750   -9.1200  -10.7390 N.am      1 RX6        -0.2649
     26 C43        26.4560  -10.1950  -11.4480 C.2       1 RX6         0.2603
     27 O44        26.0930  -11.2620  -10.8930 O.2       1 RX6        -0.4007
     28 N45        26.5650  -10.0780  -12.7750 N.am      1 RX6        -0.2590
     29 C46        27.6880  -11.6930  -14.1880 C.3       1 RX6        -0.0322
     30 C47        28.5430  -10.5400  -14.6900 C.3       1 RX6        -0.0424
     31 C48        28.5380   -9.2900  -13.7570 C.3       1 RX6         0.0154
     32 C49        27.0590   -8.8830  -13.4760 C.3       1 RX6         0.0412
     33 C50        26.2840  -11.1890  -13.6740 C.3       1 RX6         0.0343
     34 C51        25.5810   -9.3180   -6.3310 C.3       1 RX6        -0.0448
     35 CT2        29.7150   -5.8290  -14.0100 C.3       1 RX6         0.0707
     36 CT3        29.4820   -4.9310  -12.7790 C.3       1 RX6         0.0564
     37 H1         28.7982   -7.8295  -15.3321 H         1 RX6         0.0763
     38 H2         27.4910   -5.5153  -12.2768 H         1 RX6         0.1868
     39 H3         24.5042   -2.3491  -13.5344 H         1 RX6         0.0575
     40 H4         25.8470   -2.4731  -14.7211 H         1 RX6         0.0575
     41 H5         26.0459   -1.4753  -13.2407 H         1 RX6         0.0575
     42 H6         31.3375   -8.8358  -12.6766 H         1 RX6         0.0563
     43 H7         30.3703   -8.4047  -16.8594 H         1 RX6         0.0559
     44 H8         32.6954   -8.9927  -17.4423 H         1 RX6         0.0599
     45 H9         34.3363   -9.5087  -15.6685 H         1 RX6         0.0565
     46 H10        27.0050  -10.1005   -8.9255 H         1 RX6         0.0606
     47 H11        24.7217   -9.6404   -8.8522 H         1 RX6         0.0836
     48 H12        24.9445   -7.9407   -9.3890 H         1 RX6         0.0836
     49 H13        27.9922   -8.2191   -7.8081 H         1 RX6         0.0292
     50 H14        27.5170   -7.1138   -9.1419 H         1 RX6         0.0292
     51 H15        24.4672   -7.8750   -7.1670 H         1 RX6         0.2011
     52 H16        26.0896   -7.6105   -7.2516 H         1 RX6         0.2011
     53 H17        29.0843   -8.1914  -10.6610 H         1 RX6         0.0324
     54 H18        30.2009   -7.5280   -7.8752 H         1 RX6         0.0269
     55 H19        29.9217   -6.3819   -9.2299 H         1 RX6         0.0269
     56 H20        32.3337   -7.1255   -8.8889 H         1 RX6         0.0287
     57 H21        31.6669   -7.3417  -10.5428 H         1 RX6         0.0287
     58 H22        33.0029   -9.2870  -10.0741 H         1 RX6         0.0560
     59 H23        32.2469   -9.5084   -8.4597 H         1 RX6         0.0560
     60 H24        29.9005   -9.9766   -8.3186 H         1 RX6         0.0562
     61 H25        29.0592  -10.5207   -9.8095 H         1 RX6         0.0562
     62 H26        27.0443   -8.2885  -11.2249 H         1 RX6         0.1850
     63 H27        28.2128  -12.1939  -13.3611 H         1 RX6         0.0285
     64 H28        27.5326  -12.4073  -15.0099 H         1 RX6         0.0285
     65 H29        28.1666  -10.2353  -15.6776 H         1 RX6         0.0272
     66 H30        29.5797  -10.8950  -14.7862 H         1 RX6         0.0272
     67 H31        29.0244   -9.5404  -12.8027 H         1 RX6         0.0367
     68 H32        27.0008   -7.9883  -12.8387 H         1 RX6         0.0524
     69 H33        26.5052   -8.7049  -14.4095 H         1 RX6         0.0524
     70 H34        25.6658  -10.8511  -14.5188 H         1 RX6         0.0519
     71 H35        25.7617  -11.9940  -13.1363 H         1 RX6         0.0519
     72 H36        25.5567   -8.8502   -5.3357 H         1 RX6         0.0777
     73 H37        26.5611   -9.7915   -6.4897 H         1 RX6         0.0777
     74 H38        24.7906  -10.0801   -6.3974 H         1 RX6         0.0777
     75 H39        28.9880   -5.6088  -14.8056 H         1 RX6         0.0582
     76 H40        30.7356   -5.7084  -14.4022 H         1 RX6         0.0582
     77 H41        29.8961   -5.4051  -11.8769 H         1 RX6         0.0542
     78 H42        29.9556   -3.9494  -12.9276 H         1 RX6         0.0542
@<TRIPOS>BOND
     1    1    6 1  
     2    7    1 1  
     3    1   31 1  
     4    2   13 am 
     5   36    2 1  
     6    3   23 1  
     7   24    3 1  
     8    5    4 1  
     9   13    5 1  
    10    6    8 ar 
    11    6    9 ar 
    12   35    7 1  
    13    8   10 ar 
    14    9   11 ar 
    15   10   12 ar 
    16   10   14 1  
    17   11   12 ar 
    18   13   19 2  
    19   15   16 1  
    20   15   17 1  
    21   25   15 1  
    22   16   18 1  
    23   17   20 1  
    24   18   34 1  
    25   20   21 1  
    26   20   24 1  
    27   21   22 1  
    28   22   23 1  
    29   26   25 am 
    30   26   27 2  
    31   28   26 am 
    32   32   28 1  
    33   28   33 1  
    34   30   29 1  
    35   29   33 1  
    36   31   30 1  
    37   31   32 1  
    38   35   36 1  
    39    1   37 1  
    40    2   38 1  
    41    4   39 1  
    42    4   40 1  
    43    4   41 1  
    44    8   42 1  
    45    9   43 1  
    46   11   44 1  
    47   12   45 1  
    48   15   46 1  
    49   16   47 1  
    50   16   48 1  
    51   17   49 1  
    52   17   50 1  
    53   18   51 1  
    54   18   52 1  
    55   20   53 1  
    56   21   54 1  
    57   21   55 1  
    58   22   56 1  
    59   22   57 1  
    60   23   58 1  
    61   23   59 1  
    62   24   60 1  
    63   24   61 1  
    64   25   62 1  
    65   29   63 1  
    66   29   64 1  
    67   30   65 1  
    68   30   66 1  
    69   31   67 1  
    70   32   68 1  
    71   32   69 1  
    72   33   70 1  
    73   33   71 1  
    74   34   72 1  
    75   34   73 1  
    76   34   74 1  
    77   35   75 1  
    78   35   76 1  
    79   36   77 1  
    80   36   78 1  
@<TRIPOS>SUBSTRUCTURE
     1 RX6         1

