### 
### Created by X-TOOL on Mon Sep 10 21:13:07 2018
### 

@<TRIPOS>MOLECULE
3q6k_ligand
   26    27     1     0     0
SMALL
GAST_HUCK


@<TRIPOS>ATOM
      1 OH         38.6400   12.6350  -27.9670 O.3       1 SRO        -0.3421
      2 CZ3        38.1740   13.3240  -26.8940 C.ar      1 SRO         0.0693
      3 CH2        37.0700   14.1810  -27.0860 C.ar      1 SRO        -0.0459
      4 CZ2        36.5820   14.9050  -25.9910 C.ar      1 SRO        -0.0495
      5 CE2        37.2280   14.7180  -24.7550 C.ar      1 SRO         0.0512
      6 NE1        37.0460   15.2160  -23.4990 N.pl3     1 SRO        -0.2936
      7 CD1        37.9730   14.6990  -22.6410 C.2       1 SRO         0.0142
      8 CG         38.7860   13.8310  -23.3540 C.2       1 SRO        -0.0452
      9 CD2        38.3160   13.8390  -24.6830 C.ar      1 SRO        -0.0312
     10 CE3        38.7520   13.1750  -25.7280 C.ar      1 SRO        -0.0489
     11 CB         39.9250   13.0510  -22.7470 C.3       1 SRO         0.0032
     12 CA         41.2510   13.5550  -23.2970 C.3       1 SRO        -0.0314
     13 NZ         42.0970   12.4390  -23.6520 N.4       1 SRO         0.2194
     14 H          39.3868   12.0945  -27.6991 H         1 SRO         0.2441
     15 H          36.6058   14.2778  -28.0675 H         1 SRO         0.0481
     16 H          35.7365   15.5854  -26.0921 H         1 SRO         0.0526
     17 H          36.3189   15.8817  -23.2372 H         1 SRO         0.2193
     18 H          38.0593   14.9287  -21.5790 H         1 SRO         0.0790
     19 H          39.5989   12.4965  -25.6250 H         1 SRO         0.0435
     20 H          39.8107   11.9961  -22.9964 H         1 SRO         0.0399
     21 H          39.9126   13.1811  -21.6649 H         1 SRO         0.0399
     22 H          41.7499   14.1542  -22.5353 H         1 SRO         0.0828
     23 H          41.0638   14.1589  -24.1849 H         1 SRO         0.0828
     24 H          42.9822   12.7883  -24.0191 H         1 SRO         0.1995
     25 H          42.2719   11.8696  -22.8240 H         1 SRO         0.1995
     26 H          41.6321   11.8740  -24.3626 H         1 SRO         0.1995
@<TRIPOS>BOND
     1    1    2 1  
     2    2    3 ar 
     3    2   10 ar 
     4    3    4 ar 
     5    4    5 ar 
     6    5    6 1  
     7    5    9 ar 
     8    6    7 1  
     9    7    8 2  
    10    8    9 1  
    11    8   11 1  
    12    9   10 ar 
    13   11   12 1  
    14   12   13 1  
    15    1   14 1  
    16    3   15 1  
    17    4   16 1  
    18    6   17 1  
    19    7   18 1  
    20   10   19 1  
    21   11   20 1  
    22   11   21 1  
    23   12   22 1  
    24   12   23 1  
    25   13   24 1  
    26   13   25 1  
    27   13   26 1  
@<TRIPOS>SUBSTRUCTURE
     1 SRO         1

