### 
### Created by X-TOOL on Mon Sep 10 21:13:07 2018
### 

@<TRIPOS>MOLECULE
3q6w_ligand
   70    75     1     0     0
SMALL
GAST_HUCK


@<TRIPOS>ATOM
      1 C          -5.6000   -7.0780  -15.2230 C.ar      1 Q6W         0.0584
      2 N          -6.3860   -8.6130  -16.8900 N.ar      1 Q6W        -0.2943
      3 O          -4.8230   -6.1970  -13.2410 O.2       1 Q6W        -0.3839
      4 C1         -6.6170   -7.7750  -15.8560 C.ar      1 Q6W         0.0561
      5 C2         -8.0340   -7.7080  -15.5540 C.2       1 Q6W        -0.0346
      6 C3         -8.7110   -6.7540  -14.8890 C.2       1 Q6W        -0.0454
      7 C4         -8.3180   -5.5750  -14.1670 C.ar      1 Q6W        -0.0061
      8 C5         -6.9250   -5.3440  -13.7590 C.ar      1 Q6W         0.0367
      9 C6         -5.7460   -6.2180  -14.0470 C.2       1 Q6W         0.1551
     10 C7         -4.3010   -7.2240  -15.6800 C.ar      1 Q6W        -0.0262
     11 C8         -4.0510   -8.0540  -16.7550 C.ar      1 Q6W        -0.0028
     12 C9         -5.1190   -8.7360  -17.3050 C.ar      1 Q6W         0.0127
     13 C10        -9.2330   -4.6700  -13.7780 C.ar      1 Q6W        -0.0514
     14 C11        -8.8940   -3.5000  -12.9990 C.ar      1 Q6W        -0.0518
     15 C12        -7.6390   -3.2650  -12.5840 C.ar      1 Q6W        -0.0321
     16 C13        -6.5570   -4.1940  -12.8960 C.ar      1 Q6W        -0.0387
     17 C14        -2.7090   -8.1840  -17.2860 C.2       1 Q6W         0.0100
     18 C15        -7.1680   -2.1060  -11.7920 C.3       1 Q6W         0.0003
     19 C16        -6.5250   -1.0660  -12.6940 C.3       1 Q6W         0.0476
     20 C17        -5.0890   -1.3600  -13.0670 C.2       1 Q6W         0.1801
     21 N18        -4.6470   -0.4730  -14.0310 N.am      1 Q6W        -0.2731
     22 O19        -4.4020   -2.2610  -12.5900 O.2       1 Q6W        -0.3967
     23 C20        -2.3800   -8.8230  -18.4630 C.2       1 Q6W         0.0676
     24 N21        -1.0300   -8.6380  -18.6100 N.pl3     1 Q6W        -0.1976
     25 N22        -0.4660   -7.9000  -17.6450 N.2       1 Q6W        -0.2117
     26 C23        -1.4950   -7.6230  -16.8230 C.2       1 Q6W         0.0082
     27 C24        -0.2020   -9.1230  -19.7070 C.3       1 Q6W         0.0932
     28 C25         0.9190  -10.0110  -19.1880 C.3       1 Q6W         0.0205
     29 C26         1.9230  -10.3500  -20.2840 C.3       1 Q6W        -0.0306
     30 N27         2.4250   -9.0730  -20.8470 N.4       1 Q6W         0.2271
     31 C28         1.3480   -8.2810  -21.5000 C.3       1 Q6W        -0.0306
     32 C29         0.3670   -7.9060  -20.4130 C.3       1 Q6W         0.0205
     33 C30        -3.2680   -0.4040  -14.4410 C.3       1 Q6W         0.0798
     34 C31        -2.4670    0.5750  -13.6300 C.ar      1 Q6W         0.0502
     35 N32        -1.6360    1.3800  -14.3100 N.ar      1 Q6W        -0.2960
     36 C33        -0.9210    2.2550  -13.5880 C.ar      1 Q6W         0.0028
     37 C34        -0.9860    2.3730  -12.2150 C.ar      1 Q6W        -0.0410
     38 C35        -1.8470    1.5330  -11.5390 C.ar      1 Q6W        -0.0488
     39 C36        -2.5960    0.6230  -12.2570 C.ar      1 Q6W        -0.0304
     40 H1         -8.6316   -8.5439  -15.9147 H         1 Q6W         0.0648
     41 H2         -9.7889   -6.9085  -14.9003 H         1 Q6W         0.0692
     42 H3         -3.4884   -6.6920  -15.1986 H         1 Q6W         0.0733
     43 H4         -4.9182   -9.4149  -18.1259 H         1 Q6W         0.0826
     44 H5        -10.2682   -4.8239  -14.0602 H         1 Q6W         0.0638
     45 H6         -9.6748   -2.7930  -12.7430 H         1 Q6W         0.0607
     46 H7         -5.5496   -4.0530  -12.5214 H         1 Q6W         0.0613
     47 H8         -6.4292   -2.4496  -11.0531 H         1 Q6W         0.0460
     48 H9         -8.0241   -1.6526  -11.2710 H         1 Q6W         0.0460
     49 H10        -6.5534   -0.0965  -12.1750 H         1 Q6W         0.0526
     50 H11        -7.1145   -1.0033  -13.6206 H         1 Q6W         0.0526
     51 H12        -5.3085    0.1428  -14.4590 H         1 Q6W         0.1881
     52 H13        -3.0500   -9.3601  -19.1328 H         1 Q6W         0.1059
     53 H14        -1.4042   -7.0367  -15.9098 H         1 Q6W         0.0680
     54 H15        -0.8208   -9.7021  -20.4082 H         1 Q6W         0.0685
     55 H16         0.4843  -10.9447  -18.8016 H         1 Q6W         0.0349
     56 H17         1.4423   -9.4862  -18.3752 H         1 Q6W         0.0349
     57 H18         1.4321  -10.9396  -21.0723 H         1 Q6W         0.0815
     58 H19         2.7586  -10.9270  -19.8611 H         1 Q6W         0.0815
     59 H20         3.1366   -9.2779  -21.5309 H         1 Q6W         0.2013
     60 H21         2.8237   -8.5245  -20.1012 H         1 Q6W         0.2013
     61 H22         0.8473   -8.8849  -22.2710 H         1 Q6W         0.0815
     62 H23         1.7691   -7.3749  -21.9600 H         1 Q6W         0.0815
     63 H24         0.8825   -7.2763  -19.6729 H         1 Q6W         0.0349
     64 H25        -0.4609   -7.3390  -20.8637 H         1 Q6W         0.0349
     65 H26        -3.2303   -0.0990  -15.4972 H         1 Q6W         0.0713
     66 H27        -2.8185   -1.4019  -14.3312 H         1 Q6W         0.0713
     67 H28        -0.2454    2.9151  -14.1198 H         1 Q6W         0.0803
     68 H29        -0.3815    3.1005  -11.6855 H         1 Q6W         0.0652
     69 H30        -1.9338    1.5871  -10.4598 H         1 Q6W         0.0719
     70 H31        -3.2788   -0.0473  -11.7475 H         1 Q6W         0.0652
@<TRIPOS>BOND
     1    1    4 ar 
     2    1    9 1  
     3    1   10 ar 
     4    4    2 ar 
     5    2   12 ar 
     6    9    3 2  
     7    4    5 1  
     8    5    6 2  
     9    6    7 1  
    10    7    8 ar 
    11    7   13 ar 
    12    8    9 1  
    13    8   16 ar 
    14   10   11 ar 
    15   11   12 ar 
    16   11   17 1  
    17   13   14 ar 
    18   14   15 ar 
    19   15   16 ar 
    20   15   18 1  
    21   17   23 2  
    22   17   26 1  
    23   18   19 1  
    24   19   20 1  
    25   20   21 am 
    26   20   22 2  
    27   21   33 1  
    28   23   24 1  
    29   24   25 1  
    30   24   27 1  
    31   25   26 2  
    32   27   28 1  
    33   27   32 1  
    34   28   29 1  
    35   29   30 1  
    36   30   31 1  
    37   31   32 1  
    38   33   34 1  
    39   34   35 ar 
    40   34   39 ar 
    41   35   36 ar 
    42   36   37 ar 
    43   37   38 ar 
    44   38   39 ar 
    45    5   40 1  
    46    6   41 1  
    47   10   42 1  
    48   12   43 1  
    49   13   44 1  
    50   14   45 1  
    51   16   46 1  
    52   18   47 1  
    53   18   48 1  
    54   19   49 1  
    55   19   50 1  
    56   21   51 1  
    57   23   52 1  
    58   26   53 1  
    59   27   54 1  
    60   28   55 1  
    61   28   56 1  
    62   29   57 1  
    63   29   58 1  
    64   30   59 1  
    65   30   60 1  
    66   31   61 1  
    67   31   62 1  
    68   32   63 1  
    69   32   64 1  
    70   33   65 1  
    71   33   66 1  
    72   36   67 1  
    73   37   68 1  
    74   38   69 1  
    75   39   70 1  
@<TRIPOS>SUBSTRUCTURE
     1 Q6W         1

