### 
### Created by X-TOOL on Mon Sep 10 21:13:05 2018
### 

@<TRIPOS>MOLECULE
3q77_ligand
   50    52     1     0     0
SMALL
GAST_HUCK


@<TRIPOS>ATOM
      1 C1         38.2000  -13.2210    2.2430 C.2       1 2HY         0.3260
      2 F1         39.1390   -7.8320   -1.7260 F         1 2HY        -0.2207
      3 N1         39.2950  -12.6890    1.6630 N.am      1 2HY        -0.1425
      4 O1         37.0960  -13.1700    1.6640 O.2       1 2HY        -0.3784
      5 C2         39.4290  -13.9090    4.2780 C.3       1 2HY         0.0983
      6 F2         37.3250   -8.2510   -0.6500 F         1 2HY        -0.2207
      7 N2         38.2380  -13.8330    3.4410 N.am      1 2HY        -0.2440
      8 O2         42.9990  -13.2280    3.9280 O.2       1 2HY        -0.3945
      9 C3         40.6140  -13.3850    3.6000 C.2       1 2HY         0.0685
     10 F3         39.1040   -7.8500    0.4240 F         1 2HY        -0.2207
     11 N3         37.8100   -9.1960    8.8700 N.1       1 2HY        -0.3345
     12 O3         41.7620  -13.9940    5.7280 O.3       1 2HY        -0.2862
     13 C4         40.4970  -12.7320    2.2730 C.2       1 2HY         0.0914
     14 C5         39.1430  -12.0520    0.4100 C.ar      1 2HY         0.1271
     15 C6         38.9860  -10.6600    0.4420 C.ar      1 2HY        -0.0048
     16 C7         38.8210   -9.9210   -0.7260 C.ar      1 2HY         0.0363
     17 C8         38.8040  -10.5890   -1.9490 C.ar      1 2HY        -0.0432
     18 C9         38.9460  -11.9830   -1.9810 C.ar      1 2HY        -0.0410
     19 C10        39.1150  -12.7170   -0.8070 C.ar      1 2HY        -0.0040
     20 C11        38.6270   -8.4240   -0.6640 C.3       1 2HY         0.3733
     21 C13        39.0900  -12.8800    5.3190 C.ar      1 2HY        -0.0074
     22 C14        38.8380  -11.5500    4.9440 C.ar      1 2HY        -0.0464
     23 C15        38.5020  -10.5780    5.8870 C.ar      1 2HY        -0.0338
     24 C16        38.4140  -10.9210    7.2320 C.ar      1 2HY         0.0877
     25 C17        38.6650  -12.2440    7.6230 C.ar      1 2HY        -0.0338
     26 C18        39.0010  -13.2090    6.6700 C.ar      1 2HY        -0.0464
     27 C19        38.0970  -10.0230    8.1010 C.1       1 2HY         0.0925
     28 C20        41.8910  -13.5000    4.3750 C.2       1 2HY         0.2165
     29 C21        42.8830  -14.5830    6.3670 C.3       1 2HY         0.0968
     30 C22        43.0210  -13.9290    7.7280 C.3       1 2HY         0.0716
     31 C23        41.7240  -12.1490    1.6100 C.3       1 2HY         0.0017
     32 O33        43.9530  -14.6830    8.5100 O.3       1 2HY        -0.3924
     33 H1         39.6017  -14.9182    4.6800 H         1 2HY         0.0780
     34 H2         37.3991  -14.2612    3.7770 H         1 2HY         0.1906
     35 H3         38.9932  -10.1474    1.3971 H         1 2HY         0.0740
     36 H4         38.6815  -10.0329   -2.8714 H         1 2HY         0.0756
     37 H5         38.9241  -12.4993   -2.9339 H         1 2HY         0.0668
     38 H6         39.2232  -13.7949   -0.8453 H         1 2HY         0.0783
     39 H7         38.9061  -11.2725    3.8983 H         1 2HY         0.0582
     40 H8         38.3101   -9.5586    5.5723 H         1 2HY         0.0700
     41 H9         38.5981  -12.5193    8.6693 H         1 2HY         0.0700
     42 H10        39.1951  -14.2276    6.9861 H         1 2HY         0.0582
     43 H11        43.7910  -14.4077    5.7714 H         1 2HY         0.0632
     44 H12        42.7242  -15.6652    6.4838 H         1 2HY         0.0632
     45 H13        42.0432  -13.9137    8.2316 H         1 2HY         0.0583
     46 H14        43.3877  -12.8989    7.6077 H         1 2HY         0.0583
     47 H15        42.5955  -12.2850    2.2673 H         1 2HY         0.0452
     48 H16        41.5669  -11.0758    1.4269 H         1 2HY         0.0452
     49 H17        41.9026  -12.6619    0.6535 H         1 2HY         0.0452
     50 H18        44.0459  -14.2801    9.3653 H         1 2HY         0.2095
@<TRIPOS>BOND
     1    1    3 am 
     2    1    4 2  
     3    7    1 am 
     4   20    2 1  
     5   13    3 1  
     6    3   14 1  
     7    5    7 1  
     8    5    9 1  
     9   21    5 1  
    10   20    6 1  
    11   28    8 2  
    12    9   13 2  
    13    9   28 1  
    14   20   10 1  
    15   27   11 3  
    16   28   12 1  
    17   12   29 1  
    18   13   31 1  
    19   14   15 ar 
    20   14   19 ar 
    21   15   16 ar 
    22   16   17 ar 
    23   16   20 1  
    24   18   17 ar 
    25   19   18 ar 
    26   22   21 ar 
    27   21   26 ar 
    28   23   22 ar 
    29   24   23 ar 
    30   24   25 ar 
    31   24   27 1  
    32   25   26 ar 
    33   29   30 1  
    34   30   32 1  
    35    5   33 1  
    36    7   34 1  
    37   15   35 1  
    38   17   36 1  
    39   18   37 1  
    40   19   38 1  
    41   22   39 1  
    42   23   40 1  
    43   25   41 1  
    44   26   42 1  
    45   29   43 1  
    46   29   44 1  
    47   30   45 1  
    48   30   46 1  
    49   31   47 1  
    50   31   48 1  
    51   31   49 1  
    52   32   50 1  
@<TRIPOS>SUBSTRUCTURE
     1 2HY         1

