### 
### Created by X-TOOL on Mon Sep 10 21:13:06 2018
### 

@<TRIPOS>MOLECULE
3q8d_ligand
   56    57     1     0     0
SMALL
GAST_HUCK


@<TRIPOS>ATOM
      1 N          31.4110   13.4070   68.4060 N.4       1 ILE         0.2381
      2 CA         31.9180   12.1680   67.7420 C.3       1 ILE         0.0678
      3 C          32.1570   12.3200   66.2270 C.2       1 ILE         0.2295
      4 O          32.8550   11.5000   65.6270 O.2       1 ILE        -0.3905
      5 CB         31.0200   10.9360   68.0660 C.3       1 ILE         0.0164
      6 CG1        31.8720    9.6810   68.2950 C.3       1 ILE        -0.0460
      7 CG2        29.9570   10.7150   66.9910 C.3       1 ILE        -0.0551
      8 CD1        31.1790    8.6090   69.1170 C.3       1 ILE        -0.0647
      9 N          31.6760   13.4260   65.6270 N.am      1 PRO        -0.2471
     10 CA         31.9810   13.6520   64.2200 C.3       1 PRO         0.1339
     11 C          32.8240   14.8990   64.0040 C.2       1 PRO         0.2037
     12 O          34.0260   14.8120   63.7590 O.2       1 PRO        -0.3944
     13 CB         30.5990   13.9000   63.6230 C.3       1 PRO        -0.0104
     14 CG         29.8800   14.6410   64.7090 C.3       1 PRO        -0.0281
     15 CD         30.4800   14.1870   66.0340 C.3       1 PRO         0.0371
     16 N          32.1430   16.0280   63.8820 N.am      1 PHE        -0.2677
     17 CA         32.5700   17.0450   62.9400 C.3       1 PHE         0.1039
     18 C          33.3560   18.1480   63.6280 C.2       1 PHE         0.0621
     19 O          32.9240   19.2940   63.7030 O.co2     1 PHE        -0.5664
     20 CB         31.3800   17.6010   62.1500 C.3       1 PHE         0.0159
     21 CG         30.4840   18.5070   62.9440 C.ar      1 PHE        -0.0392
     22 CD1        30.8110   19.8390   63.1220 C.ar      1 PHE        -0.0602
     23 CD2        29.2420   18.0660   63.3690 C.ar      1 PHE        -0.0602
     24 CE1        29.9670   20.6910   63.8040 C.ar      1 PHE        -0.0686
     25 CE2        28.3790   18.9170   64.0340 C.ar      1 PHE        -0.0686
     26 CZ         28.7520   20.2300   64.2670 C.ar      1 PHE        -0.0687
     27 OXT        34.4590   17.9050   64.1100 O.co2     1 PHE        -0.5664
     28 H          32.0211   14.1904   68.1725 H         1 ILE         0.2015
     29 H          30.4644   13.6028   68.0803 H         1 ILE         0.2015
     30 H          31.4026   13.2705   69.4168 H         1 ILE         0.2015
     31 H          32.9041   11.9900   68.1709 H         1 ILE         0.1101
     32 H          30.4891   11.1459   68.9945 H         1 ILE         0.0378
     33 H          32.7607    9.9885   68.8462 H         1 ILE         0.0269
     34 H          32.0862    9.2514   67.3164 H         1 ILE         0.0269
     35 H          30.4421   10.4548   66.0502 H         1 ILE         0.0236
     36 H          29.2959    9.9041   67.2968 H         1 ILE         0.0236
     37 H          29.3773   11.6290   66.8617 H         1 ILE         0.0236
     38 H          30.9263    9.0117   70.0978 H         1 ILE         0.0230
     39 H          30.2689    8.2934   68.6069 H         1 ILE         0.0230
     40 H          31.8461    7.7550   69.2344 H         1 ILE         0.0230
     41 H          32.5422   12.8237   63.7875 H         1 PRO         0.0802
     42 H          30.0932   12.9769   63.3400 H         1 PRO         0.0313
     43 H          30.6405   14.4613   62.6895 H         1 PRO         0.0313
     44 H          28.8114   14.4284   64.6775 H         1 PRO         0.0287
     45 H          29.9964   15.7174   64.5826 H         1 PRO         0.0287
     46 H          30.7199   15.0221   66.6921 H         1 PRO         0.0524
     47 H          29.7854   13.5896   66.6245 H         1 PRO         0.0524
     48 H          31.3129   16.1835   64.4540 H         1 PHE         0.1877
     49 H          33.2439   16.5728   62.2252 H         1 PHE         0.0749
     50 H          30.7777   16.7494   61.8337 H         1 PHE         0.0467
     51 H          31.7866   18.1903   61.3281 H         1 PHE         0.0467
     52 H          31.7485   20.2209   62.7179 H         1 PHE         0.0557
     53 H          28.9414   17.0360   63.1770 H         1 PHE         0.0557
     54 H          30.2597   21.7267   63.9767 H         1 PHE         0.0599
     55 H          27.4084   18.5557   64.3737 H         1 PHE         0.0599
     56 H          28.0872   20.8977   64.8149 H         1 PHE         0.0559
@<TRIPOS>BOND
     1    1    2 1  
     2    2    3 1  
     3    2    5 1  
     4    3    4 2  
     5    3    9 am 
     6    5    6 1  
     7    5    7 1  
     8    6    8 1  
     9    9   10 1  
    10    9   15 1  
    11   10   11 1  
    12   10   13 1  
    13   11   12 2  
    14   11   16 am 
    15   13   14 1  
    16   14   15 1  
    17   16   17 1  
    18   17   18 1  
    19   17   20 1  
    20   18   19 ar 
    21   18   27 ar 
    22   20   21 1  
    23   21   22 ar 
    24   21   23 ar 
    25   22   24 ar 
    26   23   25 ar 
    27   24   26 ar 
    28   25   26 ar 
    29    1   28 1  
    30    1   29 1  
    31    1   30 1  
    32    2   31 1  
    33    5   32 1  
    34    6   33 1  
    35    6   34 1  
    36    7   35 1  
    37    7   36 1  
    38    7   37 1  
    39    8   38 1  
    40    8   39 1  
    41    8   40 1  
    42   10   41 1  
    43   13   42 1  
    44   13   43 1  
    45   14   44 1  
    46   14   45 1  
    47   15   46 1  
    48   15   47 1  
    49   16   48 1  
    50   17   49 1  
    51   20   50 1  
    52   20   51 1  
    53   22   52 1  
    54   23   53 1  
    55   24   54 1  
    56   25   55 1  
    57   26   56 1  
@<TRIPOS>SUBSTRUCTURE
     1 ILE         1

