### 
### Created by X-TOOL on Mon Sep 10 21:13:05 2018
### 

@<TRIPOS>MOLECULE
3q8h_ligand
   45    48     1     0     0
SMALL
GAST_HUCK


@<TRIPOS>ATOM
      1 N1         10.6920  -27.1610  -24.5350 N.am      1 AO9        -0.1787
      2 C2         11.0360  -26.9040  -25.8430 C.2       1 AO9         0.3024
      3 O2         10.2600  -27.1390  -26.7480 O.2       1 AO9        -0.3877
      4 N3         12.2360  -26.4210  -26.0890 N.am      1 AO9        -0.1994
      5 C4         13.0950  -26.1120  -25.1480 C.cat     1 AO9         0.2477
      6 N4         14.2700  -25.5920  -25.4710 N.pl3     1 AO9        -0.2260
      7 C5         12.7640  -26.3610  -23.8510 C.2       1 AO9         0.0021
      8 C6         11.5310  -26.8870  -23.5870 C.2       1 AO9         0.0347
      9 C1'         9.3860  -27.7050  -24.2080 C.3       1 AO9         0.1988
     10 C2'         9.4830  -28.9540  -23.3940 C.3       1 AO9         0.1370
     11 O2'         9.5410  -30.0190  -24.2760 O.3       1 AO9        -0.3838
     12 C3'         8.1980  -28.9620  -22.6810 C.3       1 AO9         0.1141
     13 O3'         7.3840  -29.5820  -23.6310 O.3       1 AO9        -0.3864
     14 C30         6.4790  -27.6040  -19.4730 C.2       1 AO9         0.2134
     15 O31         5.5470  -27.1500  -20.0290 O.2       1 AO9        -0.3910
     16 C32         6.3720  -28.0510  -18.1080 C.2       1 AO9         0.1595
     17 N33         5.0490  -28.1900  -17.4690 N.2       1 AO9        -0.2326
     18 C34         5.3360  -28.5610  -16.2540 C.2       1 AO9         0.3020
     19 N35         6.6620  -28.7440  -16.0020 N.pl3     1 AO9        -0.1647
     20 C36         7.3070  -28.3970  -17.1470 C.2       1 AO9         0.1266
     21 S37         3.9810  -28.7860  -15.3700 S.3       1 AO9         0.1240
     22 C38         2.9000  -28.2730  -16.6470 C.2       1 AO9         0.0912
     23 C39         3.6970  -27.9800  -17.7810 C.2       1 AO9         0.0621
     24 C4'         7.8330  -27.4890  -22.5570 C.3       1 AO9         0.1103
     25 O4'         8.7800  -26.8110  -23.3340 O.3       1 AO9        -0.3383
     26 C5'         7.9070  -26.8340  -21.2020 C.3       1 AO9         0.0587
     27 N5'         7.6440  -27.6660  -20.0620 N.am      1 AO9        -0.2853
     28 H1         12.5058  -26.2829  -27.0419 H         1 AO9         0.1927
     29 H2         14.9459  -25.3487  -24.7329 H         1 AO9         0.4596
     30 H3         14.5075  -25.4310  -26.4602 H         1 AO9         0.4596
     31 H4         13.4640  -26.1464  -23.0448 H         1 AO9         0.0163
     32 H5         11.2465  -27.0807  -22.5538 H         1 AO9         0.0999
     33 H6          8.7945  -27.8663  -25.1213 H         1 AO9         0.0976
     34 H7         10.3431  -28.9536  -22.7083 H         1 AO9         0.0674
     35 H8          8.7555  -30.0295  -24.8102 H         1 AO9         0.2101
     36 H9          8.2121  -29.4801  -21.7108 H         1 AO9         0.0648
     37 H10         7.7230  -30.4492  -23.8193 H         1 AO9         0.2100
     38 H11         7.0879  -29.0766  -15.1251 H         1 AO9         0.2659
     39 H12         8.3870  -28.3919  -17.2864 H         1 AO9         0.1527
     40 H13         1.8158  -28.1937  -16.5820 H         1 AO9         0.1399
     41 H14         3.3190  -27.6439  -18.7454 H         1 AO9         0.0957
     42 H15         6.8172  -27.3493  -22.9552 H         1 AO9         0.0644
     43 H16         7.1752  -26.0128  -21.1897 H         1 AO9         0.0545
     44 H17         8.9209  -26.4234  -21.0865 H         1 AO9         0.0545
     45 H18         8.3478  -28.2891  -19.7207 H         1 AO9         0.1837
@<TRIPOS>BOND
     1    1    2 am 
     2    1    8 1  
     3    9    1 1  
     4    2    3 2  
     5    2    4 am 
     6    4    5 ar 
     7    5    6 ar 
     8    7    5 1  
     9    8    7 2  
    10    9   10 1  
    11   25    9 1  
    12   10   11 1  
    13   12   10 1  
    14   12   13 1  
    15   24   12 1  
    16   14   15 2  
    17   14   16 1  
    18   27   14 am 
    19   16   17 1  
    20   16   20 2  
    21   17   18 2  
    22   17   23 1  
    23   19   18 1  
    24   18   21 1  
    25   20   19 1  
    26   22   21 1  
    27   23   22 2  
    28   24   25 1  
    29   26   24 1  
    30   26   27 1  
    31    4   28 1  
    32    6   29 1  
    33    6   30 1  
    34    7   31 1  
    35    8   32 1  
    36    9   33 1  
    37   10   34 1  
    38   11   35 1  
    39   12   36 1  
    40   13   37 1  
    41   19   38 1  
    42   20   39 1  
    43   22   40 1  
    44   23   41 1  
    45   24   42 1  
    46   26   43 1  
    47   26   44 1  
    48   27   45 1  
@<TRIPOS>SUBSTRUCTURE
     1 AO9         1

