### 
### Created by X-TOOL on Mon Sep 10 21:13:10 2018
### 

@<TRIPOS>MOLECULE
3q92_ligand
   57    61     1     0     0
SMALL
GAST_HUCK


@<TRIPOS>ATOM
      1 C01        -2.4940   -1.2620   13.8960 C.3       1 XNB        -0.0064
      2 S02        -1.7020   -0.7660   15.4560 S.3       1 XNB        -0.1100
      3 C03        -2.5530    0.6420   16.1390 C.ar      1 XNB         0.0408
      4 C04        -2.6350    1.8780   15.4880 C.ar      1 XNB        -0.0581
      5 C05        -3.3550    2.9310   16.0630 C.ar      1 XNB        -0.0786
      6 C06        -3.9840    2.7400   17.2910 C.ar      1 XNB        -0.0775
      7 C07        -3.9040    1.4930   17.9390 C.ar      1 XNB        -0.0422
      8 C08        -3.1960    0.3970   17.3820 C.ar      1 XNB         0.0817
      9 N09        -3.0770   -0.9290   17.9860 N.pl3     1 XNB        -0.2481
     10 C10        -4.0070   -1.4650   18.9240 C.ar      1 XNB         0.1689
     11 N11        -5.0250   -0.6370   19.3860 N.ar      1 XNB        -0.2270
     12 C12        -5.9910   -1.1520   20.3210 C.ar      1 XNB         0.1735
     13 N13        -5.9550   -2.4490   20.7840 N.ar      1 XNB        -0.2725
     14 C14        -4.9490   -3.2670   20.3290 C.ar      1 XNB         0.1032
     15 C15        -4.8620   -4.7170   20.8050 C.ar      1 XNB         0.1522
     16 N16        -3.8430   -5.4760   20.3270 N.ar      1 XNB        -0.2519
     17 C17        -2.9340   -4.9030   19.4220 C.ar      1 XNB         0.0646
     18 N18        -2.9300   -3.6680   18.9510 N.ar      1 XNB        -0.2819
     19 C19        -3.9550   -2.8410   19.4140 C.ar      1 XNB         0.1134
     20 N20        -5.8700   -5.0990   21.6990 N.pl3     1 XNB        -0.2938
     21 C21        -5.9430   -6.4490   22.2750 C.3       1 XNB         0.0347
     22 C22        -6.0710   -7.7640   21.5430 C.3       1 XNB        -0.0200
     23 C23        -7.2060   -8.0690   20.5550 C.3       1 XNB        -0.0480
     24 C24        -7.2170   -8.7060   21.9160 C.3       1 XNB        -0.0480
     25 N25        -7.0770   -0.3340   20.8260 N.pl3     1 XNB        -0.2687
     26 C26        -7.2300    1.0830   20.3950 C.3       1 XNB         0.0737
     27 C27        -8.6850    1.6130   20.3350 C.3       1 XNB        -0.0124
     28 N28        -9.4350    1.3120   21.5640 N.4       1 XNB         0.2299
     29 C29        -9.4990   -0.1300   21.8350 C.3       1 XNB        -0.0124
     30 C30        -8.1120   -0.8360   21.7950 C.3       1 XNB         0.0737
     31 H          -3.5347   -1.5247   14.0858 H         1 XNB         0.0363
     32 H          -2.4502   -0.4340   13.1885 H         1 XNB         0.0363
     33 H          -1.9701   -2.1235   13.4819 H         1 XNB         0.0363
     34 H          -2.1362    2.0210   14.5295 H         1 XNB         0.0534
     35 H          -3.4231    3.8926   15.5543 H         1 XNB         0.0508
     36 H          -4.5391    3.5576   17.7510 H         1 XNB         0.0532
     37 H          -4.4022    1.3653   18.9000 H         1 XNB         0.0523
     38 H          -2.2793   -1.5062   17.7198 H         1 XNB         0.2207
     39 H          -2.1365   -5.5550   19.0655 H         1 XNB         0.1034
     40 H          -6.5799   -4.4147   21.9601 H         1 XNB         0.1893
     41 H          -6.8996   -6.4041   22.7957 H         1 XNB         0.0533
     42 H          -4.9482   -6.5463   22.7098 H         1 XNB         0.0533
     43 H          -4.9839   -7.8075   21.4772 H         1 XNB         0.0321
     44 H          -7.3194   -8.3715   19.5140 H         1 XNB         0.0269
     45 H          -7.8904   -7.5210   19.9074 H         1 XNB         0.0269
     46 H          -7.9165   -8.8450   22.7403 H         1 XNB         0.0269
     47 H          -7.3421   -9.7003   22.3446 H         1 XNB         0.0269
     48 H          -6.8379    1.1411   19.3796 H         1 XNB         0.0580
     49 H          -6.7107    1.6894   21.1371 H         1 XNB         0.0580
     50 H          -9.1900    1.1260   19.5008 H         1 XNB         0.0834
     51 H          -8.6476    2.6959   20.2163 H         1 XNB         0.0834
     52 H         -10.3882    1.6557   21.4466 H         1 XNB         0.2015
     53 H          -8.9575    1.7611   22.3455 H         1 XNB         0.2015
     54 H         -10.1168   -0.5807   21.0583 H         1 XNB         0.0834
     55 H          -9.8998   -0.2553   22.8409 H         1 XNB         0.0834
     56 H          -7.6806   -0.6715   22.7824 H         1 XNB         0.0580
     57 H          -8.3224   -1.8586   21.4819 H         1 XNB         0.0580
@<TRIPOS>BOND
     1    1    2 1  
     2    2    3 1  
     3    3    4 ar 
     4    3    8 ar 
     5    4    5 ar 
     6    5    6 ar 
     7    6    7 ar 
     8    7    8 ar 
     9    8    9 1  
    10    9   10 1  
    11   10   11 ar 
    12   10   19 ar 
    13   11   12 ar 
    14   12   13 ar 
    15   12   25 1  
    16   13   14 ar 
    17   14   15 ar 
    18   14   19 ar 
    19   15   16 ar 
    20   15   20 1  
    21   16   17 ar 
    22   17   18 ar 
    23   18   19 ar 
    24   20   21 1  
    25   21   22 1  
    26   22   23 1  
    27   22   24 1  
    28   23   24 1  
    29   25   26 1  
    30   25   30 1  
    31   26   27 1  
    32   27   28 1  
    33   28   29 1  
    34   29   30 1  
    35    1   31 1  
    36    1   32 1  
    37    1   33 1  
    38    4   34 1  
    39    5   35 1  
    40    6   36 1  
    41    7   37 1  
    42    9   38 1  
    43   17   39 1  
    44   20   40 1  
    45   21   41 1  
    46   21   42 1  
    47   22   43 1  
    48   23   44 1  
    49   23   45 1  
    50   24   46 1  
    51   24   47 1  
    52   26   48 1  
    53   26   49 1  
    54   27   50 1  
    55   27   51 1  
    56   28   52 1  
    57   28   53 1  
    58   29   54 1  
    59   29   55 1  
    60   30   56 1  
    61   30   57 1  
@<TRIPOS>SUBSTRUCTURE
     1 XNB         1

