### 
### Created by X-TOOL on Mon Sep 10 21:13:08 2018
### 

@<TRIPOS>MOLECULE
3q96_ligand
   69    73     1     0     0
SMALL
GAST_HUCK


@<TRIPOS>ATOM
      1 C4         21.2410   -8.7270  -11.2920 C.ar      1 0NF         0.0401
      2 C5         22.3680   -7.9840  -10.9290 C.ar      1 0NF         0.1225
      3 C6         23.5180   -8.6280  -10.4670 C.ar      1 0NF        -0.0238
      4 C8         18.9570  -10.3740  -11.6970 C.2       1 0NF         0.2071
      5 C10        19.9690   -8.0270  -11.8030 C.3       1 0NF        -0.0016
      6 C13        24.1770   -5.3590  -11.7430 C.ar      1 0NF        -0.0416
      7 C15        25.3410   -3.9740  -10.1300 C.ar      1 0NF        -0.0506
      8 C17        23.4270   -5.2750   -9.4480 C.ar      1 0NF        -0.0331
      9 C20        25.6150   -2.7940   -7.4800 C.3       1 0NF         0.0643
     10 C21        24.5490   -3.8890   -7.6780 C.3       1 0NF        -0.0034
     11 C22        26.0590   -2.7520   -6.0190 C.2       1 0NF         0.2089
     12 C26        27.0820   -2.1650   -3.4050 C.ar      1 0NF         0.0143
     13 C28        27.5500   -0.4540   -1.7680 C.ar      1 0NF        -0.0131
     14 N33        26.1000    2.2630   -1.3720 N.4       1 0NF         0.1780
     15 C32        27.2500    2.0160   -2.2500 C.3       1 0NF        -0.0185
     16 C38        28.5300    2.2890   -1.4540 C.3       1 0NF        -0.0411
     17 C39        27.1690    2.9480   -3.4640 C.3       1 0NF        -0.0411
     18 C29        27.1910    0.5350   -2.6780 C.ar      1 0NF         0.0163
     19 C30        26.7670    0.1520   -3.9540 C.ar      1 0NF         0.0114
     20 C27        27.4980   -1.7920   -2.1370 C.ar      1 0NF         0.0669
     21 C34        27.8880   -2.8710   -1.1490 C.3       1 0NF         0.3811
     22 F37        28.2630   -2.2920   -0.0090 F         1 0NF        -0.2193
     23 F35        26.8270   -3.6610   -0.9560 F         1 0NF        -0.2193
     24 F36        28.9040   -3.5720   -1.6520 F         1 0NF        -0.2193
     25 C25        26.7140   -1.1950   -4.3260 C.ar      1 0NF         0.1196
     26 N24        26.3110   -1.5200   -5.5610 N.am      1 0NF        -0.2233
     27 O23        26.1720   -3.7920   -5.3720 O.2       1 0NF        -0.3847
     28 C19        26.8460   -3.0280   -8.3630 C.3       1 0NF        -0.0236
     29 C18        26.4830   -3.0000   -9.8480 C.3       1 0NF        -0.0238
     30 C16        24.4520   -4.3780   -9.1310 C.ar      1 0NF        -0.0457
     31 C14        25.1990   -4.4670  -11.4270 C.ar      1 0NF        -0.0740
     32 C12        23.2950   -5.7770  -10.7450 C.ar      1 0NF         0.1034
     33 O11        22.2730   -6.6300  -11.0490 O.3       1 0NF        -0.2627
     34 C1         23.5290  -10.0160  -10.3800 C.ar      1 0NF        -0.0234
     35 N2         22.4580  -10.7110  -10.7270 N.ar      1 0NF        -0.3072
     36 C3         21.3360  -10.1170  -11.1740 C.ar      1 0NF         0.1312
     37 C9         18.7060   -8.8590  -11.5750 C.3       1 0NF         0.0507
     38 O31        18.0150  -11.1220  -11.9670 O.2       1 0NF        -0.3837
     39 N7         20.2430  -10.9230  -11.5090 N.am      1 0NF        -0.2240
     40 H          24.3959   -8.0500  -10.1782 H         1 0NF         0.0504
     41 H          20.0796   -7.8734  -12.8764 H         1 0NF         0.0413
     42 H          19.8577   -7.0920  -11.2539 H         1 0NF         0.0413
     43 H          24.0667   -5.7282  -12.7626 H         1 0NF         0.0480
     44 H          22.7239   -5.5856   -8.6752 H         1 0NF         0.0474
     45 H          25.1591   -1.8460   -7.7657 H         1 0NF         0.0565
     46 H          23.5828   -3.4643   -7.4058 H         1 0NF         0.0437
     47 H          24.8300   -4.7412   -7.0593 H         1 0NF         0.0437
     48 H          27.0439   -3.2194   -3.6785 H         1 0NF         0.0934
     49 H          27.8726   -0.1785   -0.7639 H         1 0NF         0.1044
     50 H          25.2370    2.0859   -1.8861 H         1 0NF         0.1958
     51 H          26.1501    1.6412   -0.5650 H         1 0NF         0.1958
     52 H          26.1165    3.2330   -1.0569 H         1 0NF         0.1958
     53 H          28.5324    3.3254   -1.1165 H         1 0NF         0.0192
     54 H          28.5683    1.6244   -0.5909 H         1 0NF         0.0192
     55 H          29.3969    2.1107   -2.0902 H         1 0NF         0.0192
     56 H          26.2449    2.7539   -4.0084 H         1 0NF         0.0192
     57 H          27.1825    3.9843   -3.1264 H         1 0NF         0.0192
     58 H          28.0222    2.7663   -4.1175 H         1 0NF         0.0192
     59 H          26.4723    0.9173   -4.6720 H         1 0NF         0.0933
     60 H          26.1832   -0.7511   -6.2189 H         1 0NF         0.2260
     61 H          27.2593   -4.0085   -8.1268 H         1 0NF         0.0312
     62 H          27.5668   -2.2338   -8.1685 H         1 0NF         0.0312
     63 H          26.1679   -1.9924  -10.1194 H         1 0NF         0.0394
     64 H          27.3543   -3.2924  -10.4340 H         1 0NF         0.0394
     65 H          25.8963   -4.1504  -12.2027 H         1 0NF         0.0514
     66 H          24.4213  -10.5320  -10.0254 H         1 0NF         0.0684
     67 H          18.3541   -8.6600  -10.5627 H         1 0NF         0.0526
     68 H          17.9802   -8.5790  -12.3385 H         1 0NF         0.0526
     69 H          20.3784  -11.9279  -11.6196 H         1 0NF         0.2282
@<TRIPOS>BOND
     1    2    1 ar 
     2    1    5 1  
     3    1   36 ar 
     4    2    3 ar 
     5   33    2 1  
     6    3   34 ar 
     7   37    4 1  
     8    4   38 2  
     9    4   39 am 
    10    5   37 1  
    11    6   31 ar 
    12   32    6 ar 
    13    7   29 1  
    14   30    7 ar 
    15   31    7 ar 
    16    8   30 ar 
    17   32    8 ar 
    18   10    9 1  
    19    9   11 1  
    20    9   28 1  
    21   30   10 1  
    22   11   26 am 
    23   11   27 2  
    24   12   20 ar 
    25   25   12 ar 
    26   18   13 ar 
    27   20   13 ar 
    28   15   14 1  
    29   15   16 1  
    30   15   17 1  
    31   18   15 1  
    32   19   18 ar 
    33   25   19 ar 
    34   20   21 1  
    35   21   22 1  
    36   21   23 1  
    37   21   24 1  
    38   26   25 1  
    39   29   28 1  
    40   32   33 1  
    41   34   35 ar 
    42   35   36 ar 
    43   36   39 1  
    44    3   40 1  
    45    5   41 1  
    46    5   42 1  
    47    6   43 1  
    48    8   44 1  
    49    9   45 1  
    50   10   46 1  
    51   10   47 1  
    52   12   48 1  
    53   13   49 1  
    54   14   50 1  
    55   14   51 1  
    56   14   52 1  
    57   16   53 1  
    58   16   54 1  
    59   16   55 1  
    60   17   56 1  
    61   17   57 1  
    62   17   58 1  
    63   19   59 1  
    64   26   60 1  
    65   28   61 1  
    66   28   62 1  
    67   29   63 1  
    68   29   64 1  
    69   31   65 1  
    70   34   66 1  
    71   37   67 1  
    72   37   68 1  
    73   39   69 1  
@<TRIPOS>SUBSTRUCTURE
     1 0NF         1

