### 
### Created by X-TOOL on Mon Sep 10 21:13:10 2018
### 

@<TRIPOS>MOLECULE
3qa2_ligand
   56    60     1     0     0
SMALL
GAST_HUCK


@<TRIPOS>ATOM
      1 C01        -3.1160   -1.2070   15.1500 C.3       1 XNA        -0.0330
      2 C02        -3.5590    0.1010   15.8150 C.ar      1 XNA        -0.0199
      3 C03        -3.6990    1.3200   15.0640 C.ar      1 XNA        -0.0689
      4 C04        -4.1370    2.5280   15.7130 C.ar      1 XNA        -0.0794
      5 C05        -4.4450    2.5520   17.1240 C.ar      1 XNA        -0.0775
      6 C06        -4.2990    1.3390   17.8910 C.ar      1 XNA        -0.0430
      7 C07        -3.8580    0.1340   17.2350 C.ar      1 XNA         0.0709
      8 N08        -3.6890   -1.0890   17.9940 N.pl3     1 XNA        -0.2489
      9 C09        -4.7160   -1.4480   18.9630 C.ar      1 XNA         0.1689
     10 N10        -5.6900   -0.5610   19.4160 N.ar      1 XNA        -0.2270
     11 C11        -6.5990   -1.0300   20.3620 C.ar      1 XNA         0.1735
     12 N12        -6.5780   -2.3320   20.8810 N.ar      1 XNA        -0.2725
     13 C13        -5.5920   -3.1930   20.4090 C.ar      1 XNA         0.1032
     14 C14        -5.4730   -4.5800   20.8730 C.ar      1 XNA         0.1522
     15 N15        -4.5040   -5.4020   20.4090 N.ar      1 XNA        -0.2519
     16 C16        -3.6090   -4.9130   19.4590 C.ar      1 XNA         0.0646
     17 N17        -3.6240   -3.6390   18.9460 N.ar      1 XNA        -0.2819
     18 C18        -4.6100   -2.8240   19.4340 C.ar      1 XNA         0.1134
     19 N19        -6.4280   -5.0560   21.8830 N.pl3     1 XNA        -0.2938
     20 C20        -6.2970   -6.4340   22.3590 C.3       1 XNA         0.0347
     21 C21        -7.4260   -7.2430   21.6970 C.3       1 XNA        -0.0200
     22 C22        -8.3340   -7.9530   22.7030 C.3       1 XNA        -0.0480
     23 C23        -7.3360   -8.7620   21.8590 C.3       1 XNA        -0.0480
     24 N24        -7.6680   -0.1330   20.9150 N.pl3     1 XNA        -0.2687
     25 C25        -7.7120    1.2700   20.6420 C.3       1 XNA         0.0737
     26 C26        -9.1700    1.6040   20.2560 C.3       1 XNA        -0.0124
     27 N27       -10.1080    1.2270   21.4050 N.4       1 XNA         0.2299
     28 C28        -9.9360   -0.2610   21.7310 C.3       1 XNA        -0.0124
     29 C29        -8.4520   -0.5570   22.0390 C.3       1 XNA         0.0737
     30 H          -3.8290   -1.4767   14.3709 H         1 XNA         0.0370
     31 H          -2.1281   -1.0727   14.7095 H         1 XNA         0.0370
     32 H          -3.0770   -1.9985   15.8984 H         1 XNA         0.0370
     33 H          -3.4722    1.3290   13.9979 H         1 XNA         0.0526
     34 H          -4.2382    3.4423   15.1283 H         1 XNA         0.0508
     35 H          -4.7823    3.4719   17.6016 H         1 XNA         0.0532
     36 H          -4.5205    1.3339   18.9582 H         1 XNA         0.0522
     37 H          -2.8720   -1.6832   17.8534 H         1 XNA         0.2207
     38 H          -2.8387   -5.5932   19.0956 H         1 XNA         0.1034
     39 H          -7.1609   -4.4441   22.2420 H         1 XNA         0.1893
     40 H          -6.3750   -6.4775   23.4453 H         1 XNA         0.0533
     41 H          -5.3216   -6.8435   22.0961 H         1 XNA         0.0533
     42 H          -7.5681   -6.5784   20.8448 H         1 XNA         0.0321
     43 H          -9.3892   -7.9826   22.9747 H         1 XNA         0.0269
     44 H          -8.6334   -7.8555   23.7465 H         1 XNA         0.0269
     45 H          -6.5724   -9.5263   22.0032 H         1 XNA         0.0269
     46 H          -7.3278   -9.6533   21.2317 H         1 XNA         0.0269
     47 H          -7.0280    1.5292   19.8339 H         1 XNA         0.0580
     48 H          -7.4007    1.8445   21.5144 H         1 XNA         0.0580
     49 H          -9.4458    1.0400   19.3650 H         1 XNA         0.0834
     50 H          -9.2549    2.6722   20.0563 H         1 XNA         0.0834
     51 H         -11.0738    1.4073   21.1309 H         1 XNA         0.2015
     52 H          -9.8818    1.7855   22.2280 H         1 XNA         0.2015
     53 H         -10.2540   -0.8577   20.8761 H         1 XNA         0.0834
     54 H         -10.5432   -0.5134   22.6003 H         1 XNA         0.0834
     55 H          -8.1413   -0.0214   22.9361 H         1 XNA         0.0580
     56 H          -8.3109   -1.6237   22.2134 H         1 XNA         0.0580
@<TRIPOS>BOND
     1    1    2 1  
     2    2    3 ar 
     3    2    7 ar 
     4    3    4 ar 
     5    4    5 ar 
     6    5    6 ar 
     7    6    7 ar 
     8    7    8 1  
     9    8    9 1  
    10    9   10 ar 
    11    9   18 ar 
    12   10   11 ar 
    13   11   12 ar 
    14   11   24 1  
    15   12   13 ar 
    16   13   14 ar 
    17   13   18 ar 
    18   14   15 ar 
    19   14   19 1  
    20   15   16 ar 
    21   16   17 ar 
    22   17   18 ar 
    23   19   20 1  
    24   20   21 1  
    25   21   22 1  
    26   21   23 1  
    27   22   23 1  
    28   24   25 1  
    29   24   29 1  
    30   25   26 1  
    31   26   27 1  
    32   27   28 1  
    33   28   29 1  
    34    1   30 1  
    35    1   31 1  
    36    1   32 1  
    37    3   33 1  
    38    4   34 1  
    39    5   35 1  
    40    6   36 1  
    41    8   37 1  
    42   16   38 1  
    43   19   39 1  
    44   20   40 1  
    45   20   41 1  
    46   21   42 1  
    47   22   43 1  
    48   22   44 1  
    49   23   45 1  
    50   23   46 1  
    51   25   47 1  
    52   25   48 1  
    53   26   49 1  
    54   26   50 1  
    55   27   51 1  
    56   27   52 1  
    57   28   53 1  
    58   28   54 1  
    59   29   55 1  
    60   29   56 1  
@<TRIPOS>SUBSTRUCTURE
     1 XNA         1

