### 
### Created by X-TOOL on Mon Sep 10 21:13:11 2018
### 

@<TRIPOS>MOLECULE
3qai_ligand
   58    63     1     0     0
SMALL
GAST_HUCK


@<TRIPOS>ATOM
      1 C01        -2.7790   -1.1480   13.6760 C.3       1 XNN        -0.0064
      2 S02        -1.9960   -0.8440   15.3130 S.3       1 XNN        -0.1100
      3 C03        -2.7570    0.5800   16.0730 C.ar      1 XNN         0.0408
      4 C04        -2.8040    1.7910   15.4040 C.ar      1 XNN        -0.0581
      5 C05        -3.4320    2.9080   15.9690 C.ar      1 XNN        -0.0786
      6 C06        -4.0100    2.7730   17.2200 C.ar      1 XNN        -0.0775
      7 C07        -3.9690    1.5420   17.9030 C.ar      1 XNN        -0.0422
      8 C08        -3.3580    0.3900   17.3540 C.ar      1 XNN         0.0817
      9 N09        -3.1740   -0.9250   17.9200 N.pl3     1 XNN        -0.2481
     10 C10        -4.1570   -1.5200   18.8140 C.ar      1 XNN         0.1689
     11 N11        -5.1910   -0.7810   19.2370 N.ar      1 XNN        -0.2270
     12 C12        -6.1800   -1.3870   20.0790 C.ar      1 XNN         0.1732
     13 N13        -6.1370   -2.6820   20.4960 N.ar      1 XNN        -0.2725
     14 C14        -5.0590   -3.4430   20.0640 C.ar      1 XNN         0.1032
     15 C15        -4.9730   -4.8760   20.4930 C.ar      1 XNN         0.1522
     16 N16        -3.9170   -5.6320   20.0800 N.ar      1 XNN        -0.2519
     17 C17        -2.9910   -4.9900   19.2610 C.ar      1 XNN         0.0646
     18 N18        -2.9830   -3.7230   18.8170 N.ar      1 XNN        -0.2819
     19 C19        -4.0480   -2.9340   19.2350 C.ar      1 XNN         0.1134
     20 N20        -5.9900   -5.2690   21.3250 N.pl3     1 XNN        -0.2938
     21 C21        -6.2080   -6.6770   21.7550 C.3       1 XNN         0.0347
     22 C22        -6.1350   -7.8710   20.8400 C.3       1 XNN        -0.0200
     23 C23        -7.3910   -8.4730   20.1840 C.3       1 XNN        -0.0480
     24 C24        -6.7090   -9.2250   21.3050 C.3       1 XNN        -0.0480
     25 N25        -7.2560   -0.6010   20.6170 N.pl3     1 XNN        -0.2769
     26 C26        -8.4850   -0.9880   21.4310 C.3       1 XNN         0.0510
     27 C27        -8.9610    0.4870   21.3580 C.3       1 XNN         0.0911
     28 C28        -9.2230    1.0490   22.7920 C.3       1 XNN        -0.0190
     29 N29       -10.6880    1.0870   22.4560 N.4       1 XNN         0.2283
     30 C30       -10.3290    1.1370   20.9910 C.3       1 XNN        -0.0190
     31 C31        -7.7990    0.7920   20.3650 C.3       1 XNN         0.0510
     32 H          -3.8447   -1.3317   13.8129 H         1 XNN         0.0363
     33 H          -2.6384   -0.2743   13.0396 H         1 XNN         0.0363
     34 H          -2.3162   -2.0174   13.2091 H         1 XNN         0.0363
     35 H          -2.3439    1.8767   14.4196 H         1 XNN         0.0534
     36 H          -3.4649    3.8592   15.4377 H         1 XNN         0.0508
     37 H          -4.5023    3.6291   17.6814 H         1 XNN         0.0532
     38 H          -4.4247    1.4743   18.8908 H         1 XNN         0.0523
     39 H          -2.3322   -1.4518   17.6872 H         1 XNN         0.2207
     40 H          -2.1524   -5.6046   18.9336 H         1 XNN         0.1034
     41 H          -6.6334   -4.5559   21.6685 H         1 XNN         0.1893
     42 H          -7.2562   -6.6727   22.0538 H         1 XNN         0.0533
     43 H          -5.3722   -6.8484   22.4334 H         1 XNN         0.0533
     44 H          -5.1793   -7.5030   20.4667 H         1 XNN         0.0321
     45 H          -7.7645   -8.6757   19.1803 H         1 XNN         0.0269
     46 H          -8.3982   -8.1546   19.9154 H         1 XNN         0.0269
     47 H          -6.9820   -9.7146   22.2398 H         1 XNN         0.0269
     48 H          -6.3501  -10.2342   21.5067 H         1 XNN         0.0269
     49 H          -8.3788   -1.4904   22.3925 H         1 XNN         0.0537
     50 H          -9.1358   -1.7985   21.1030 H         1 XNN         0.0537
     51 H          -8.7048    1.9380   23.1514 H         1 XNN         0.0822
     52 H          -8.8619    0.5245   23.6767 H         1 XNN         0.0822
     53 H         -11.2940    1.7985   22.8645 H         1 XNN         0.2014
     54 H         -11.3185    0.3674   22.8097 H         1 XNN         0.2014
     55 H         -10.9788    0.6939   20.2363 H         1 XNN         0.0822
     56 H         -10.3767    2.0709   20.4309 H         1 XNN         0.0822
     57 H          -8.0100    1.1305   19.3506 H         1 XNN         0.0537
     58 H          -7.1657    1.6682   20.5038 H         1 XNN         0.0537
@<TRIPOS>BOND
     1    1    2 1  
     2    2    3 1  
     3    3    4 ar 
     4    3    8 ar 
     5    4    5 ar 
     6    5    6 ar 
     7    6    7 ar 
     8    7    8 ar 
     9    8    9 1  
    10    9   10 1  
    11   10   11 ar 
    12   10   19 ar 
    13   11   12 ar 
    14   12   13 ar 
    15   12   25 1  
    16   13   14 ar 
    17   14   15 ar 
    18   14   19 ar 
    19   15   16 ar 
    20   15   20 1  
    21   16   17 ar 
    22   17   18 ar 
    23   18   19 ar 
    24   20   21 1  
    25   21   22 1  
    26   22   23 1  
    27   22   24 1  
    28   23   24 1  
    29   25   26 1  
    30   25   31 1  
    31   26   27 1  
    32   27   28 1  
    33   27   30 1  
    34   27   31 1  
    35   28   29 1  
    36   29   30 1  
    37    1   32 1  
    38    1   33 1  
    39    1   34 1  
    40    4   35 1  
    41    5   36 1  
    42    6   37 1  
    43    7   38 1  
    44    9   39 1  
    45   17   40 1  
    46   20   41 1  
    47   21   42 1  
    48   21   43 1  
    49   22   44 1  
    50   23   45 1  
    51   23   46 1  
    52   24   47 1  
    53   24   48 1  
    54   26   49 1  
    55   26   50 1  
    56   28   51 1  
    57   28   52 1  
    58   29   53 1  
    59   29   54 1  
    60   30   55 1  
    61   30   56 1  
    62   31   57 1  
    63   31   58 1  
@<TRIPOS>SUBSTRUCTURE
     1 XNN         1

