### 
### Created by X-TOOL on Mon Sep 10 21:13:07 2018
### 

@<TRIPOS>MOLECULE
3qak_ligand
  104   110     1     0     0
SMALL
GAST_HUCK


@<TRIPOS>ATOM
      1 C1         -5.4030  -11.1280   49.4650 C.3       1 UKA         0.1408
      2 N1         -4.3290   -9.9270   51.3680 N.pl3     1 UKA        -0.1899
      3 O1         -3.1030  -10.7160   49.4040 O.3       1 UKA        -0.3181
      4 C2         -5.1080  -10.2300   48.2720 C.3       1 UKA         0.1295
      5 N2         -2.1660   -8.9620   46.6600 N.am      1 UKA        -0.2850
      6 O2         -5.7350  -10.6420   47.0650 O.3       1 UKA        -0.3840
      7 C3         -3.6080  -10.3080   48.1180 C.3       1 UKA         0.1788
      8 N3         -4.2780   -8.0130   52.4550 N.2       1 UKA        -0.2926
      9 O3         -5.5760  -12.5030   49.1070 O.3       1 UKA        -0.3834
     10 C4         -4.1610  -11.0010   50.3290 C.3       1 UKA         0.2038
     11 N4         -5.9900  -10.0200   55.0120 N.ar      1 UKA        -0.2516
     12 O4         -3.4730   -7.9700   48.1990 O.2       1 UKA        -0.3941
     13 C5         -3.0710   -8.9830   47.6590 C.2       1 UKA         0.2080
     14 N5         -5.4670  -11.2130   53.0940 N.ar      1 UKA        -0.2512
     15 O5         -6.5250  -13.4780   54.4540 O.2       1 UKA        -0.3737
     16 C6         -1.5900   -7.7190   46.1470 C.3       1 UKA         0.0281
     17 N6         -5.4280   -7.7970   55.3050 N.pl3     1 UKA        -0.2966
     18 O6         -9.8250  -12.7320   59.6040 O.2       1 UKA        -0.4008
     19 C7         -1.0650   -7.8060   44.7330 C.3       1 UKA        -0.0449
     20 N7         -7.4820  -12.0490   55.9490 N.am      1 UKA        -0.2803
     21 C8         -3.9440   -8.6430   51.3090 C.2       1 UKA         0.1142
     22 N8         -7.7270  -12.5110   58.9730 N.am      1 UKA        -0.2712
     23 C9         -4.8820   -8.9260   53.2460 C.ar      1 UKA         0.1087
     24 N9         -8.5550  -11.3370   60.7430 N.am      1 UKA        -0.2700
     25 C10        -4.9080  -10.1160   52.5480 C.ar      1 UKA         0.1671
     26 N10       -10.5180   -8.7490   63.2270 N.pl3     1 UKA        -0.2940
     27 C11        -5.4550   -8.8940   54.5190 C.ar      1 UKA         0.1366
     28 N11        -9.2950   -7.0630   64.4370 N.ar      1 UKA        -0.2853
     29 C12        -5.9960  -11.1700   54.3160 C.ar      1 UKA         0.1651
     30 C13        -5.6890   -7.9240   56.7310 C.3       1 UKA         0.0513
     31 C14        -6.9630   -7.1980   57.1430 C.3       1 UKA         0.0460
     32 C15        -6.9990   -6.9300   58.6010 C.ar      1 UKA        -0.0269
     33 C16        -8.1310   -7.9590   56.6810 C.ar      1 UKA        -0.0269
     34 C17        -7.6760   -5.8060   59.0290 C.ar      1 UKA        -0.0580
     35 C18        -7.7260   -5.4920   60.3700 C.ar      1 UKA        -0.0682
     36 C19        -7.0920   -6.2890   61.3100 C.ar      1 UKA        -0.0685
     37 C20        -6.4090   -7.4170   60.9010 C.ar      1 UKA        -0.0682
     38 C21        -6.3630   -7.7380   59.5410 C.ar      1 UKA        -0.0580
     39 C22        -8.6730   -8.9830   57.4360 C.ar      1 UKA        -0.0580
     40 C23        -9.7680   -9.6850   56.9470 C.ar      1 UKA        -0.0682
     41 C24       -10.3180   -9.3560   55.7170 C.ar      1 UKA        -0.0685
     42 C25        -9.7680   -8.3180   54.9580 C.ar      1 UKA        -0.0682
     43 C26        -8.6710   -7.6240   55.4440 C.ar      1 UKA        -0.0580
     44 C27        -6.6650  -12.3610   54.9290 C.2       1 UKA         0.2369
     45 C28        -8.3970  -12.9590   56.6040 C.3       1 UKA         0.0507
     46 C29        -7.8020  -13.4780   57.8910 C.3       1 UKA         0.0513
     47 C30        -8.7470  -12.2190   59.7700 C.2       1 UKA         0.2576
     48 C31        -9.5870  -10.9340   61.6990 C.3       1 UKA         0.0460
     49 C32       -10.5270   -9.8930   61.0950 C.3       1 UKA        -0.0098
     50 C33       -11.3960   -9.1910   62.1350 C.3       1 UKA         0.0317
     51 C34        -9.8660   -9.8300   63.9600 C.3       1 UKA         0.0317
     52 C35        -8.8830  -10.4010   62.9530 C.3       1 UKA        -0.0098
     53 C36       -10.9900   -6.3310   62.9490 C.ar      1 UKA        -0.0160
     54 C37       -10.6930   -5.0030   63.2750 C.ar      1 UKA        -0.0542
     55 C38        -9.6810   -4.7340   64.1940 C.ar      1 UKA        -0.0480
     56 C39        -8.9880   -5.8010   64.7720 C.ar      1 UKA        -0.0042
     57 C40       -10.2740   -7.3810   63.5420 C.ar      1 UKA         0.1135
     58 H          -6.3322  -10.8287   49.9498 H         1 UKA         0.0678
     59 H          -5.4940   -9.2267   48.4524 H         1 UKA         0.0673
     60 H          -1.8717   -9.8465   46.2461 H         1 UKA         0.1851
     61 H          -6.6873  -10.6474   47.1861 H         1 UKA         0.2102
     62 H          -3.2939  -11.0247   47.3593 H         1 UKA         0.0869
     63 H          -6.3109  -12.5830   48.4946 H         1 UKA         0.2101
     64 H          -3.9516  -11.9057   50.8997 H         1 UKA         0.0998
     65 H          -0.7423   -7.4733   46.7866 H         1 UKA         0.0517
     66 H          -2.3873   -6.9757   46.1453 H         1 UKA         0.0517
     67 H          -5.2254   -6.8826   54.9010 H         1 UKA         0.1858
     68 H          -0.2816   -8.5623   44.6836 H         1 UKA         0.0249
     69 H          -1.8785   -8.0792   44.0609 H         1 UKA         0.0249
     70 H          -0.6575   -6.8391   44.4380 H         1 UKA         0.0249
     71 H          -7.4550  -11.0884   56.2910 H         1 UKA         0.1851
     72 H          -3.4377   -8.1785   50.4628 H         1 UKA         0.1362
     73 H          -6.8411  -12.0299   59.1285 H         1 UKA         0.1846
     74 H          -7.6310  -10.9139   60.8298 H         1 UKA         0.1848
     75 H          -4.8531   -7.4805   57.2720 H         1 UKA         0.0573
     76 H          -5.8087   -8.9822   56.9633 H         1 UKA         0.0573
     77 H          -6.9833   -6.2190   56.6642 H         1 UKA         0.0639
     78 H          -8.1737   -5.1634   58.3027 H         1 UKA         0.0561
     79 H          -8.2709   -4.6058   60.6953 H         1 UKA         0.0600
     80 H          -7.1324   -6.0265   62.3672 H         1 UKA         0.0561
     81 H          -5.9096   -8.0522   61.6326 H         1 UKA         0.0600
     82 H          -5.8251   -8.6277   59.2135 H         1 UKA         0.0561
     83 H          -8.2452   -9.2371   58.4058 H         1 UKA         0.0561
     84 H         -10.1967  -10.4981   57.5329 H         1 UKA         0.0600
     85 H         -11.1801   -9.9072   55.3414 H         1 UKA         0.0561
     86 H         -10.1988   -8.0567   53.9914 H         1 UKA         0.0600
     87 H          -8.2322   -6.8168   54.8575 H         1 UKA         0.0561
     88 H          -8.5919  -13.8016   55.9405 H         1 UKA         0.0540
     89 H          -9.3208  -12.4272   56.8317 H         1 UKA         0.0540
     90 H          -8.4530  -14.2818   58.2346 H         1 UKA         0.0537
     91 H          -6.7777  -13.7742   57.6648 H         1 UKA         0.0537
     92 H         -10.2096  -11.7893   61.9613 H         1 UKA         0.0554
     93 H         -11.1924  -10.4106   60.4041 H         1 UKA         0.0307
     94 H          -9.9119   -9.1337   60.6121 H         1 UKA         0.0307
     95 H         -11.9055   -8.3369   61.6890 H         1 UKA         0.0520
     96 H         -12.1585   -9.8717   62.5136 H         1 UKA         0.0520
     97 H         -10.5742  -10.5759   64.3207 H         1 UKA         0.0520
     98 H          -9.3764   -9.4814   64.8694 H         1 UKA         0.0520
     99 H          -8.2050   -9.6034   62.6495 H         1 UKA         0.0307
    100 H          -8.3552  -11.2297   63.4250 H         1 UKA         0.0307
    101 H         -11.7808   -6.5502   62.2315 H         1 UKA         0.0610
    102 H         -11.2485   -4.1863   62.8140 H         1 UKA         0.0699
    103 H          -9.4333   -3.7060   64.4584 H         1 UKA         0.0597
    104 H          -8.1967   -5.6074   65.4962 H         1 UKA         0.0781
@<TRIPOS>BOND
     1    1    4 1  
     2    1    9 1  
     3   10    1 1  
     4    2   10 1  
     5    2   21 1  
     6   25    2 1  
     7    3    7 1  
     8   10    3 1  
     9    4    6 1  
    10    7    4 1  
    11   13    5 am 
    12    5   16 1  
    13    7   13 1  
    14    8   21 2  
    15   23    8 1  
    16   11   27 ar 
    17   29   11 ar 
    18   13   12 2  
    19   14   25 ar 
    20   29   14 ar 
    21   44   15 2  
    22   16   19 1  
    23   27   17 1  
    24   17   30 1  
    25   47   18 2  
    26   20   44 am 
    27   45   20 1  
    28   22   46 1  
    29   47   22 am 
    30   25   23 ar 
    31   27   23 ar 
    32   24   47 am 
    33   48   24 1  
    34   26   50 1  
    35   26   51 1  
    36   57   26 1  
    37   28   56 ar 
    38   57   28 ar 
    39   44   29 1  
    40   30   31 1  
    41   31   32 1  
    42   31   33 1  
    43   32   34 ar 
    44   32   38 ar 
    45   33   39 ar 
    46   33   43 ar 
    47   34   35 ar 
    48   35   36 ar 
    49   37   36 ar 
    50   38   37 ar 
    51   39   40 ar 
    52   40   41 ar 
    53   42   41 ar 
    54   43   42 ar 
    55   46   45 1  
    56   49   48 1  
    57   52   48 1  
    58   50   49 1  
    59   51   52 1  
    60   53   54 ar 
    61   53   57 ar 
    62   54   55 ar 
    63   55   56 ar 
    64    1   58 1  
    65    4   59 1  
    66    5   60 1  
    67    6   61 1  
    68    7   62 1  
    69    9   63 1  
    70   10   64 1  
    71   16   65 1  
    72   16   66 1  
    73   17   67 1  
    74   19   68 1  
    75   19   69 1  
    76   19   70 1  
    77   20   71 1  
    78   21   72 1  
    79   22   73 1  
    80   24   74 1  
    81   30   75 1  
    82   30   76 1  
    83   31   77 1  
    84   34   78 1  
    85   35   79 1  
    86   36   80 1  
    87   37   81 1  
    88   38   82 1  
    89   39   83 1  
    90   40   84 1  
    91   41   85 1  
    92   42   86 1  
    93   43   87 1  
    94   45   88 1  
    95   45   89 1  
    96   46   90 1  
    97   46   91 1  
    98   48   92 1  
    99   49   93 1  
   100   49   94 1  
   101   50   95 1  
   102   50   96 1  
   103   51   97 1  
   104   51   98 1  
   105   52   99 1  
   106   52  100 1  
   107   53  101 1  
   108   54  102 1  
   109   55  103 1  
   110   56  104 1  
@<TRIPOS>SUBSTRUCTURE
     1 UKA         1

