### 
### Created by X-TOOL on Mon Sep 10 21:13:07 2018
### 

@<TRIPOS>MOLECULE
3qaq_ligand
   41    44     1     0     0
SMALL
GAST_HUCK


@<TRIPOS>ATOM
      1 N1         20.3970   14.0490   23.0470 N.ar      1 QAQ        -0.2011
      2 N3         20.2340   12.1550   24.3750 N.ar      1 QAQ        -0.2370
      3 C4         22.1760   15.7900   21.6010 C.ar      1 QAQ         0.1048
      4 C5         23.2830   16.2140   20.8610 C.ar      1 QAQ         0.0205
      5 C6         23.7070   14.2600   21.6470 C.2       1 QAQ         0.2620
      6 C7         21.0600   16.6290   21.7100 C.ar      1 QAQ        -0.0390
      7 C8         21.0540   17.8810   21.0840 C.ar      1 QAQ        -0.0767
      8 C10        23.2800   17.4610   20.2380 C.ar      1 QAQ        -0.0667
      9 C13        25.6350   12.8340   21.7330 C.ar      1 QAQ         0.0598
     10 C15        27.6630   12.9220   20.4020 C.ar      1 QAQ        -0.0798
     11 C17        27.6600   11.7850   22.5250 C.ar      1 QAQ         0.0781
     12 N8         15.0740   14.6290   24.1580 N.1       1 QAQ        -0.3013
     13 C12        16.2130   14.5800   23.9760 C.1       1 QAQ         0.1156
     14 C11        17.6660   14.6930   23.6930 C.3       1 QAQ         0.1574
     15 N7         18.3610   13.4400   24.0530 N.pl3     1 QAQ        -0.2613
     16 C1         19.6590   13.2290   23.8190 C.ar      1 QAQ         0.1961
     17 C3         21.5120   11.9010   24.1730 C.ar      1 QAQ         0.0777
     18 N2         22.2390   12.7000   23.4180 N.ar      1 QAQ        -0.2286
     19 C2         21.7020   13.7880   22.8390 C.ar      1 QAQ         0.2472
     20 N4         22.4770   14.5750   22.0710 N.pl3     1 QAQ        -0.1291
     21 C9         22.1670   18.2940   20.3490 C.ar      1 QAQ        -0.0792
     22 N5         24.1990   15.2530   20.9100 N.2       1 QAQ        -0.3002
     23 N6         24.3370   13.1060   21.9270 N.pl3     1 QAQ        -0.2254
     24 C18        26.3140   12.1020   22.7020 C.ar      1 QAQ        -0.0106
     25 C14        26.3160   13.2310   20.5790 C.ar      1 QAQ        -0.0489
     26 C16        28.3360   12.1950   21.3780 C.ar      1 QAQ        -0.0448
     27 O1         28.3210   11.0800   23.4800 O.3       1 QAQ        -0.3361
     28 H          20.1922   16.3057   22.2849 H         1 QAQ         0.0549
     29 H          20.1835   18.5313   21.1700 H         1 QAQ         0.0520
     30 H          24.1479   17.7852   19.6638 H         1 QAQ         0.0524
     31 H          28.1865   13.2483   19.5034 H         1 QAQ         0.0561
     32 H          18.0798   15.5103   24.2837 H         1 QAQ         0.0834
     33 H          17.8062   14.8831   22.6289 H         1 QAQ         0.0834
     34 H          17.8229   12.6992   24.5026 H         1 QAQ         0.1921
     35 H          21.9698   11.0253   24.6330 H         1 QAQ         0.1155
     36 H          22.1660   19.2688   19.8613 H         1 QAQ         0.0519
     37 H          23.7685   12.3604   22.3286 H         1 QAQ         0.2219
     38 H          25.7923   11.7756   23.6017 H         1 QAQ         0.0455
     39 H          25.7864   13.7897   19.8073 H         1 QAQ         0.0447
     40 H          29.3891   11.9468   21.2459 H         1 QAQ         0.0448
     41 H          27.7191   10.8757   24.1994 H         1 QAQ         0.2478
@<TRIPOS>BOND
     1    1   16 ar 
     2   19    1 ar 
     3   16    2 ar 
     4   17    2 ar 
     5    3    4 ar 
     6    3    6 ar 
     7   20    3 1  
     8    4    8 ar 
     9   22    4 1  
    10   20    5 1  
    11    5   22 2  
    12    5   23 1  
    13    6    7 ar 
    14    7   21 ar 
    15    8   21 ar 
    16   23    9 1  
    17    9   24 ar 
    18    9   25 ar 
    19   25   10 ar 
    20   10   26 ar 
    21   24   11 ar 
    22   11   26 ar 
    23   11   27 1  
    24   13   12 3  
    25   14   13 1  
    26   15   14 1  
    27   16   15 1  
    28   18   17 ar 
    29   19   18 ar 
    30   19   20 1  
    31    6   28 1  
    32    7   29 1  
    33    8   30 1  
    34   10   31 1  
    35   14   32 1  
    36   14   33 1  
    37   15   34 1  
    38   17   35 1  
    39   21   36 1  
    40   23   37 1  
    41   24   38 1  
    42   25   39 1  
    43   26   40 1  
    44   27   41 1  
@<TRIPOS>SUBSTRUCTURE
     1 QAQ         1

