### 
### Created by X-TOOL on Mon Sep 10 21:13:08 2018
### 

@<TRIPOS>MOLECULE
3qar_ligand
   36    39     1     0     0
SMALL
GAST_HUCK


@<TRIPOS>ATOM
      1 N1         19.6800   12.2810   24.2590 N.ar      1 QAR        -0.2416
      2 N3         21.7330   12.9740   23.4020 N.ar      1 QAR        -0.2321
      3 C4         21.5510   15.9450   21.4520 C.ar      1 QAR         0.1047
      4 C5         22.6370   16.3970   20.7010 C.ar      1 QAR         0.0208
      5 C6         23.1240   14.4510   21.4780 C.2       1 QAR         0.2661
      6 C7         20.4100   16.7490   21.5800 C.ar      1 QAR        -0.0390
      7 C8         20.3610   18.0010   20.9600 C.ar      1 QAR        -0.0767
      8 C10        22.5920   17.6500   20.0840 C.ar      1 QAR        -0.0667
      9 C13        25.7040   11.9970   22.1020 C.2       1 QAR        -0.0296
     10 C14        26.9300   12.0110   21.5910 C.2       1 QAR        -0.0258
     11 N8         26.9940   13.0170   20.7180 N.2       1 QAR        -0.2427
     12 N9         25.9040   13.5980   20.6700 N.pl3     1 QAR        -0.2016
     13 C12        25.0650   13.0040   21.5160 C.2       1 QAR         0.1816
     14 N6         23.7770   13.3100   21.7590 N.pl3     1 QAR        -0.1953
     15 N5         23.5790   15.4570   20.7380 N.2       1 QAR        -0.2995
     16 C9         21.4560   18.4520   20.2110 C.ar      1 QAR        -0.0792
     17 N4         21.8910   14.7400   21.9130 N.pl3     1 QAR        -0.1306
     18 C2         21.1380   13.9390   22.6850 C.ar      1 QAR         0.2372
     19 N2         19.8010   14.0720   22.7650 N.ar      1 QAR        -0.2119
     20 C3         21.0080   12.1550   24.1790 C.ar      1 QAR         0.0879
     21 C11        21.6990   11.0710   24.9810 C.3       1 QAR         0.0031
     22 C1         19.0790   13.2460   23.5510 C.ar      1 QAR         0.1822
     23 N7         17.7640   13.3650   23.6380 N.pl3     1 QAR        -0.3006
     24 H          19.5594   16.3974   22.1640 H         1 QAR         0.0549
     25 H          19.4728   18.6251   21.0590 H         1 QAR         0.0520
     26 H          23.4445   18.0017   19.5030 H         1 QAR         0.0525
     27 H          25.3062   11.3057   22.8449 H         1 QAR         0.0206
     28 H          27.7384   11.3237   21.8404 H         1 QAR         0.0604
     29 H          25.6837   14.4001   20.0797 H         1 QAR         0.2517
     30 H          23.2257   12.5829   22.2148 H         1 QAR         0.2281
     31 H          21.4210   19.4284   19.7277 H         1 QAR         0.0519
     32 H          21.5046   11.2261   26.0422 H         1 QAR         0.0483
     33 H          21.3153   10.0966   24.6787 H         1 QAR         0.0483
     34 H          22.7725   11.1132   24.7970 H         1 QAR         0.0483
     35 H          17.2812   14.0893   23.1063 H         1 QAR         0.1861
     36 H          17.2332   12.7325   24.2368 H         1 QAR         0.1861
@<TRIPOS>BOND
     1   20    1 ar 
     2    1   22 ar 
     3   18    2 ar 
     4    2   20 ar 
     5    3    4 ar 
     6    3    6 ar 
     7   17    3 1  
     8    4    8 ar 
     9   15    4 1  
    10    5   14 1  
    11    5   15 2  
    12   17    5 1  
    13    6    7 ar 
    14    7   16 ar 
    15    8   16 ar 
    16    9   10 1  
    17   13    9 2  
    18   11   10 2  
    19   12   11 1  
    20   13   12 1  
    21   14   13 1  
    22   17   18 1  
    23   18   19 ar 
    24   19   22 ar 
    25   20   21 1  
    26   22   23 1  
    27    6   24 1  
    28    7   25 1  
    29    8   26 1  
    30    9   27 1  
    31   10   28 1  
    32   12   29 1  
    33   14   30 1  
    34   16   31 1  
    35   21   32 1  
    36   21   33 1  
    37   21   34 1  
    38   23   35 1  
    39   23   36 1  
@<TRIPOS>SUBSTRUCTURE
     1 QAR         1

