### 
### Created by X-TOOL on Mon Sep 10 21:13:09 2018
### 

@<TRIPOS>MOLECULE
3qbc_ligand
   18    19     1     0     0
SMALL
GAST_HUCK


@<TRIPOS>ATOM
      1 O1          0.7840   -1.6030   11.1050 O.2       1 B55        -0.3429
      2 C5          1.4320   -2.1050   12.0240 C.2       1 B55         0.3013
      3 C2          1.5760   -1.5410   13.3630 C.2       1 B55         0.3016
      4 N1          1.0910   -0.3620   13.9010 N.pl3     1 B55        -0.1502
      5 N4          2.0960   -3.3220   11.9820 N.am      1 B55        -0.2440
      6 C4          2.8220   -3.9250   13.0040 C.cat     1 B55         0.1928
      7 N3          3.4010   -5.1210   12.7400 N.pl3     1 B55        -0.3352
      8 N2          2.9280   -3.4320   14.2030 N.pl3     1 B55        -0.2262
      9 C3          2.2940   -2.2300   14.2640 C.2       1 B55         0.2583
     10 N5          2.2610   -1.4570   15.4320 N.2       1 B55        -0.1895
     11 C1          1.5130   -0.3840   15.1440 C.2       1 B55         0.2537
     12 S1          1.1930    0.8130   16.3880 S.3       1 B55        -0.0105
     13 H1          0.5292    0.3644   13.4345 H         1 B55         0.2698
     14 H2          2.0473   -3.8234   11.1181 H         1 B55         0.1822
     15 H3          3.9473   -5.6009   13.4695 H         1 B55         0.1763
     16 H4          3.2949   -5.5504   11.8098 H         1 B55         0.1763
     17 H5          3.4182   -3.8838   14.9882 H         1 B55         0.2370
     18 H6          0.6195    1.5484   16.0054 H         1 B55         0.1493
@<TRIPOS>BOND
     1    1    2 2  
     2    2    3 1  
     3    2    5 am 
     4    3    4 1  
     5    3    9 2  
     6    4   11 1  
     7    5    6 ar 
     8    6    7 ar 
     9    6    8 ar 
    10    8    9 1  
    11    9   10 1  
    12   10   11 2  
    13   11   12 1  
    14    4   13 1  
    15    5   14 1  
    16    7   15 1  
    17    7   16 1  
    18    8   17 1  
    19   12   18 1  
@<TRIPOS>SUBSTRUCTURE
     1 B55         1

