### 
### Created by X-TOOL on Mon Sep 10 21:13:07 2018
### 

@<TRIPOS>MOLECULE
3qbh_ligand
   79    82     1     0     0
SMALL
GAST_HUCK


@<TRIPOS>ATOM
      1 S1         28.7780    5.2150   14.3000 S.o2      1 QBH        -0.0252
      2 C2         29.5930    3.6230   14.1070 C.3       1 QBH         0.1107
      3 C5         30.9700    3.8330   13.4070 C.3       1 QBH         0.0254
      4 C7         31.9250    4.7850   14.1980 C.3       1 QBH         0.1050
      5 C9         31.3680    6.2090   14.5170 C.3       1 QBH         0.0178
      6 C11        29.9880    6.1180   15.2500 C.3       1 QBH         0.0729
      7 C14        32.3940    7.0700   15.3420 C.3       1 QBH        -0.0189
      8 C17        31.8020    8.3860   15.8730 C.ar      1 QBH        -0.0601
      9 C18        31.5160    8.5250   17.2550 C.ar      1 QBH        -0.0669
     10 C20        30.9550    9.7160   17.7760 C.ar      1 QBH        -0.0180
     11 C21        30.6770   10.7830   16.8740 C.ar      1 QBH         0.0822
     12 C22        30.9710   10.6570   15.4960 C.ar      1 QBH        -0.0463
     13 C24        31.5340    9.4630   14.9910 C.ar      1 QBH        -0.0758
     14 O26        30.1060   11.9770   17.3100 O.3       1 QBH        -0.3413
     15 C28        30.6650    9.8190   19.2910 C.3       1 QBH         0.0033
     16 C31        29.3520    9.1360   19.7770 C.3       1 QBH         0.0823
     17 N33        29.2380    7.6830   19.6880 N.am      1 QBH        -0.2416
     18 C34        28.1800    7.2680   18.9400 C.2       1 QBH         0.3226
     19 O35        27.5250    8.3320   18.4570 O.3       1 QBH        -0.2613
     20 C36        28.0520    9.5350   19.0420 C.3       1 QBH         0.1019
     21 O39        27.8220    6.1280   18.6920 O.2       1 QBH        -0.3774
     22 C40        30.1620    6.7260   20.3190 C.3       1 QBH         0.0361
     23 C43        30.2440    6.7890   21.8660 C.3       1 QBH        -0.0354
     24 C46        31.1530    5.6460   22.3960 C.3       1 QBH        -0.0635
     25 O50        33.1640    4.8650   13.4740 O.3       1 QBH        -0.3857
     26 N52        31.6490    2.5440   13.0870 N.4       1 QBH         0.2442
     27 C54        31.0770    1.6410   12.0330 C.3       1 QBH        -0.0011
     28 C57        30.9750    2.3530   10.6680 C.ar      1 QBH        -0.0054
     29 C58        32.1410    2.7400    9.9650 C.ar      1 QBH        -0.0539
     30 C60        32.0660    3.3980    8.7080 C.ar      1 QBH        -0.0471
     31 C61        30.7890    3.6680    8.1630 C.ar      1 QBH        -0.0670
     32 C63        29.6130    3.2880    8.8530 C.ar      1 QBH        -0.0750
     33 C65        29.7040    2.6300   10.1050 C.ar      1 QBH        -0.0622
     34 C67        33.3530    3.8070    7.9570 C.3       1 QBH        -0.0146
     35 C69        33.9860    5.0620    8.6140 C.3       1 QBH        -0.0529
     36 C73        34.4040    2.6810    7.7570 C.3       1 QBH        -0.0529
     37 O77        27.5960    4.9960   15.1010 O.2       1 QBH        -0.1741
     38 O78        28.6370    5.8460   13.0000 O.2       1 QBH        -0.1741
     39 H1         28.9654    2.9606   13.4928 H         1 QBH         0.0557
     40 H2         29.7489    3.1673   15.0959 H         1 QBH         0.0557
     41 H3         30.7571    4.3267   12.4474 H         1 QBH         0.0893
     42 H4         32.1270    4.3060   15.1674 H         1 QBH         0.0655
     43 H5         31.2030    6.7220   13.5581 H         1 QBH         0.0363
     44 H6         30.1323    5.6095   16.2146 H         1 QBH         0.0505
     45 H7         29.6122    7.1369   15.4252 H         1 QBH         0.0505
     46 H8         33.2490    7.3097   14.6927 H         1 QBH         0.0408
     47 H9         32.7401    6.4731   16.1987 H         1 QBH         0.0408
     48 H10        31.7315    7.7020   17.9267 H         1 QBH         0.0467
     49 H11        30.7632   11.4812   14.8233 H         1 QBH         0.0505
     50 H12        31.7597    9.3713   13.9347 H         1 QBH         0.0472
     51 H13        30.6929   12.6977   17.1135 H         1 QBH         0.2433
     52 H14        30.6071   10.8860   19.5520 H         1 QBH         0.0426
     53 H15        31.5056    9.3552   19.8280 H         1 QBH         0.0426
     54 H16        29.2592    9.4223   20.8350 H         1 QBH         0.0604
     55 H17        28.2712   10.2741   18.2573 H         1 QBH         0.0636
     56 H18        27.3286    9.9594   19.7537 H         1 QBH         0.0636
     57 H19        31.1692    6.9154   19.9195 H         1 QBH         0.0522
     58 H20        29.8411    5.7118   20.0389 H         1 QBH         0.0522
     59 H21        29.2348    6.6780   22.2893 H         1 QBH         0.0282
     60 H22        30.6642    7.7592   22.1695 H         1 QBH         0.0282
     61 H23        31.2054    5.6983   23.4935 H         1 QBH         0.0230
     62 H24        32.1633    5.7558   21.9750 H         1 QBH         0.0230
     63 H25        30.7339    4.6746   22.0948 H         1 QBH         0.0230
     64 H26        33.8050    5.3329   13.9962 H         1 QBH         0.2101
     65 H27        31.6811    2.0109   13.9419 H         1 QBH         0.2032
     66 H28        32.5873    2.7723   12.7979 H         1 QBH         0.2032
     67 H29        30.0717    1.3211   12.3445 H         1 QBH         0.0979
     68 H30        31.7263    0.7593   11.9278 H         1 QBH         0.0979
     69 H31        33.1134    2.5296   10.3955 H         1 QBH         0.0496
     70 H32        30.7101    4.1715    7.2063 H         1 QBH         0.0500
     71 H33        28.6409    3.5007    8.4230 H         1 QBH         0.0582
     72 H34        28.8023    2.3388   10.6316 H         1 QBH         0.0501
     73 H35        33.0339    4.1021    6.9465 H         1 QBH         0.0455
     74 H36        34.8999    5.3399    8.0685 H         1 QBH         0.0254
     75 H37        34.2375    4.8401    9.6616 H         1 QBH         0.0254
     76 H38        33.2695    5.8958    8.5776 H         1 QBH         0.0254
     77 H39        33.9227    1.8088    7.2905 H         1 QBH         0.0254
     78 H40        34.8212    2.3912    8.7327 H         1 QBH         0.0254
     79 H41        35.2125    3.0454    7.1062 H         1 QBH         0.0254
@<TRIPOS>BOND
     1    1    2 1  
     2    1    6 1  
     3    1   37 2  
     4    1   38 2  
     5    2    3 1  
     6    3    4 1  
     7    3   26 1  
     8    4    5 1  
     9    4   25 1  
    10    5    6 1  
    11    5    7 1  
    12    7    8 1  
    13    8    9 ar 
    14    8   13 ar 
    15    9   10 ar 
    16   10   11 ar 
    17   10   15 1  
    18   11   12 ar 
    19   11   14 1  
    20   12   13 ar 
    21   15   16 1  
    22   16   17 1  
    23   16   20 1  
    24   17   18 am 
    25   17   22 1  
    26   18   19 1  
    27   18   21 2  
    28   19   20 1  
    29   22   23 1  
    30   23   24 1  
    31   26   27 1  
    32   27   28 1  
    33   28   29 ar 
    34   28   33 ar 
    35   29   30 ar 
    36   30   31 ar 
    37   30   34 1  
    38   31   32 ar 
    39   32   33 ar 
    40   34   35 1  
    41   34   36 1  
    42    2   39 1  
    43    2   40 1  
    44    3   41 1  
    45    4   42 1  
    46    5   43 1  
    47    6   44 1  
    48    6   45 1  
    49    7   46 1  
    50    7   47 1  
    51    9   48 1  
    52   12   49 1  
    53   13   50 1  
    54   14   51 1  
    55   15   52 1  
    56   15   53 1  
    57   16   54 1  
    58   20   55 1  
    59   20   56 1  
    60   22   57 1  
    61   22   58 1  
    62   23   59 1  
    63   23   60 1  
    64   24   61 1  
    65   24   62 1  
    66   24   63 1  
    67   25   64 1  
    68   26   65 1  
    69   26   66 1  
    70   27   67 1  
    71   27   68 1  
    72   29   69 1  
    73   31   70 1  
    74   32   71 1  
    75   33   72 1  
    76   34   73 1  
    77   35   74 1  
    78   35   75 1  
    79   35   76 1  
    80   36   77 1  
    81   36   78 1  
    82   36   79 1  
@<TRIPOS>SUBSTRUCTURE
     1 QBH         1

