### 
### Created by X-TOOL on Mon Sep 10 21:13:12 2018
### 

@<TRIPOS>MOLECULE
3qbn_ligand
   42    44     1     0     0
SMALL
GAST_HUCK


@<TRIPOS>ATOM
      1 N1         -2.9690   33.1570   -7.6050 N.ar      1 E9Z        -0.2697
      2 C2         -3.0740   33.2420   -6.2690 C.ar      1 E9Z         0.1920
      3 N3         -3.7000   32.2570   -5.6190 N.ar      1 E9Z        -0.2384
      4 C4         -4.1990   31.1730   -6.2340 C.ar      1 E9Z         0.1284
      5 C5         -4.0650   31.0860   -7.6210 C.ar      1 E9Z         0.0939
      6 C6         -3.4350   32.1260   -8.2770 C.ar      1 E9Z         0.0139
      7 CAA        -0.0660   37.9720    3.4700 C.3       1 E9Z         0.0366
      8 CAC        -2.3920   33.7190   -3.2560 C.ar      1 E9Z        -0.0461
      9 CAD        -1.1750   35.5660   -4.1970 C.ar      1 E9Z        -0.0461
     10 CAE        -1.8240   33.9850   -2.0000 C.ar      1 E9Z        -0.0419
     11 CAF        -0.6110   35.8380   -2.9450 C.ar      1 E9Z        -0.0419
     12 CAH         0.2520   36.7890    1.3290 C.3       1 E9Z         0.0746
     13 CAI        -0.6030   36.6340    0.0210 C.3       1 E9Z         0.0913
     14 CAJ        -4.8530   29.8900   -2.9030 C.3       1 E9Z        -0.0275
     15 CAK        -6.2380   29.4750   -3.4620 C.3       1 E9Z        -0.0275
     16 NAN        -2.5850   34.3330   -5.6250 N.pl3     1 E9Z        -0.2505
     17 NAO        -4.8030   30.2280   -5.4750 N.pl3     1 E9Z        -0.2997
     18 OAP        -0.5190   36.8900    2.5900 O.3       1 E9Z        -0.3803
     19 OAQ        -0.3630   35.3140   -0.5980 O.3       1 E9Z        -0.3229
     20 CAS        -2.0700   34.5030   -4.3760 C.ar      1 E9Z         0.0550
     21 CAT        -0.9350   35.0580   -1.8300 C.ar      1 E9Z         0.0798
     22 CAW        -5.4570   30.5970   -4.1500 C.3       1 E9Z         0.0406
     23 CL5        -4.6620   29.7490   -8.5480 Cl        1 E9Z        -0.0763
     24 H          -3.3230   32.0922   -9.3607 H         1 E9Z         0.0852
     25 H           0.9776   37.8077    3.7381 H         1 E9Z         0.0524
     26 H          -0.1633   38.9255    2.9510 H         1 E9Z         0.0524
     27 H          -0.6768   37.9842    4.3727 H         1 E9Z         0.0524
     28 H          -3.0934   32.8916   -3.3636 H         1 E9Z         0.0512
     29 H          -0.9128   36.1933   -5.0490 H         1 E9Z         0.0512
     30 H          -2.0757   33.3524   -1.1488 H         1 E9Z         0.0516
     31 H           0.0886   36.6670   -2.8378 H         1 E9Z         0.0516
     32 H           0.8045   37.7232    1.2285 H         1 E9Z         0.0586
     33 H           0.8602   35.8881    1.4096 H         1 E9Z         0.0586
     34 H          -0.3171   37.4141   -0.6845 H         1 E9Z         0.0632
     35 H          -1.6594   36.7200    0.2752 H         1 E9Z         0.0632
     36 H          -3.9174   29.4273   -2.5890 H         1 E9Z         0.0289
     37 H          -4.3915   30.1491   -1.9501 H         1 E9Z         0.0289
     38 H          -7.2460   29.2993   -3.0862 H         1 E9Z         0.0289
     39 H          -6.7601   28.5597   -3.7409 H         1 E9Z         0.0289
     40 H          -2.6078   35.1869   -6.1825 H         1 E9Z         0.2150
     41 H          -4.8201   29.2593   -5.7939 H         1 E9Z         0.1850
     42 H          -5.6787   31.6282   -4.4249 H         1 E9Z         0.0559
@<TRIPOS>BOND
     1    2    1 ar 
     2    1    6 ar 
     3    2    3 ar 
     4   16    2 1  
     5    3    4 ar 
     6    4    5 ar 
     7    4   17 1  
     8    6    5 ar 
     9    5   23 1  
    10   18    7 1  
    11   10    8 ar 
    12    8   20 ar 
    13   11    9 ar 
    14    9   20 ar 
    15   21   10 ar 
    16   21   11 ar 
    17   13   12 1  
    18   12   18 1  
    19   19   13 1  
    20   15   14 1  
    21   22   14 1  
    22   22   15 1  
    23   20   16 1  
    24   17   22 1  
    25   19   21 1  
    26    6   24 1  
    27    7   25 1  
    28    7   26 1  
    29    7   27 1  
    30    8   28 1  
    31    9   29 1  
    32   10   30 1  
    33   11   31 1  
    34   12   32 1  
    35   12   33 1  
    36   13   34 1  
    37   13   35 1  
    38   14   36 1  
    39   14   37 1  
    40   15   38 1  
    41   15   39 1  
    42   16   40 1  
    43   17   41 1  
    44   22   42 1  
@<TRIPOS>SUBSTRUCTURE
     1 E9Z         1

