### 
### Created by X-TOOL on Mon Sep 10 21:13:05 2018
### 

@<TRIPOS>MOLECULE
3qc4_ligand
   60    64     1     0     0
SMALL
GAST_HUCK


@<TRIPOS>ATOM
      1 C          15.1040   32.2130   21.3850 C.2       1 MP7         0.0943
      2 F           9.3500   26.8700   21.0990 F         1 MP7        -0.1861
      3 N          14.0790   30.4490   19.9550 N.am      1 MP7        -0.1903
      4 O          12.7870   31.7070   21.3690 O.2       1 MP7        -0.4179
      5 C1         16.3270   31.8230   20.8310 C.2       1 MP7        -0.0534
      6 C2         16.4100   30.7950   19.8680 C.2       1 MP7        -0.0294
      7 C3         15.2760   30.0900   19.4440 C.2       1 MP7         0.0778
      8 C4         13.9160   31.4820   20.9020 C.2       1 MP7         0.2189
      9 C5         12.8390   29.7900   19.5990 C.3       1 MP7         0.1035
     10 C6         12.4340   28.6350   20.4750 C.ar      1 MP7        -0.0156
     11 C7         13.3400   27.9010   21.1950 C.ar      1 MP7        -0.0631
     12 C8         12.8800   26.8140   21.9490 C.ar      1 MP7        -0.0364
     13 C9         11.5200   26.4690   21.9060 C.ar      1 MP7         0.1576
     14 C10        10.6250   27.2250   21.1580 C.ar      1 MP7         0.1589
     15 C11        11.1080   28.3010   20.4300 C.ar      1 MP7        -0.0255
     16 F12        11.0800   25.4540   22.5830 F         1 MP7        -0.1901
     17 C13         9.4790   38.4850   20.5180 C.ar      1 MP7         0.0807
     18 C14        10.5200   37.9790   19.6730 C.ar      1 MP7         0.0832
     19 C15        11.4910   37.1220   20.1710 C.ar      1 MP7        -0.0248
     20 C16        11.4200   36.7650   21.5310 C.ar      1 MP7         0.0634
     21 C17        10.4010   37.2690   22.3970 C.ar      1 MP7        -0.0606
     22 C18         9.4190   38.0880   21.8700 C.ar      1 MP7        -0.0607
     23 N19         8.6630   39.2490   19.7670 N.am      1 MP7        -0.2260
     24 N20        10.3010   38.4830   18.4520 N.am      1 MP7        -0.2226
     25 O21        12.4010   35.9890   22.0850 O.3       1 MP7        -0.3267
     26 C22        12.3490   35.5610   23.4590 C.3       1 MP7         0.0993
     27 C23        13.6550   34.8420   23.7440 C.3       1 MP7         0.1011
     28 C24        13.9030   34.5440   25.2180 C.ar      1 MP7        -0.0157
     29 C25        13.7810   35.5490   26.1840 C.ar      1 MP7        -0.0581
     30 C26        14.0380   35.3110   27.5270 C.ar      1 MP7        -0.0685
     31 C27        14.4520   34.0380   27.9440 C.ar      1 MP7        -0.0687
     32 C28        14.6060   33.0290   27.0170 C.ar      1 MP7        -0.0685
     33 C29        14.3230   33.2860   25.6520 C.ar      1 MP7        -0.0581
     34 C30         9.2350   39.2320   18.5280 C.2       1 MP7         0.3042
     35 O31         8.7620   39.8480   17.4850 O.2       1 MP7        -0.3964
     36 N32        13.7890   33.6610   22.8960 N.am      1 MP7        -0.2756
     37 C33        14.9860   33.3020   22.4220 C.2       1 MP7         0.1860
     38 O34        16.0530   33.7950   22.8130 O.2       1 MP7        -0.4051
     39 H1         17.2387   32.3254   21.1508 H         1 MP7         0.0743
     40 H2         17.3807   30.5431   19.4434 H         1 MP7         0.0398
     41 H3         15.3576   29.2770   18.7240 H         1 MP7         0.1316
     42 H4         12.9405   29.4136   18.5704 H         1 MP7         0.0807
     43 H5         12.0354   30.5402   19.6374 H         1 MP7         0.0807
     44 H6         14.3933   28.1570   21.1812 H         1 MP7         0.0514
     45 H7         13.5690   26.2434   22.5612 H         1 MP7         0.0576
     46 H8         10.4283   28.8838   19.8188 H         1 MP7         0.0533
     47 H9         12.2794   36.7394   19.5330 H         1 MP7         0.0385
     48 H10        10.3978   37.0134   23.4504 H         1 MP7         0.0386
     49 H11         8.6018   38.4254   22.4972 H         1 MP7         0.0438
     50 H12         7.8287   39.7209   20.0520 H         1 MP7         0.2215
     51 H13        10.8518   38.3165   17.6341 H         1 MP7         0.2248
     52 H14        11.4999   34.8784   23.6112 H         1 MP7         0.0654
     53 H15        12.2433   36.4315   24.1231 H         1 MP7         0.0654
     54 H16        14.4556   35.5334   23.4422 H         1 MP7         0.0744
     55 H17        13.4769   36.5424   25.8744 H         1 MP7         0.0557
     56 H18        13.9189   36.1079   28.2522 H         1 MP7         0.0599
     57 H19        14.6505   33.8475   28.9925 H         1 MP7         0.0559
     58 H20        14.9410   32.0466   27.3297 H         1 MP7         0.0599
     59 H21        14.4355   32.4867   24.9284 H         1 MP7         0.0557
     60 H22        12.9808   33.1178   22.6686 H         1 MP7         0.1858
@<TRIPOS>BOND
     1    1    5 2  
     2    1    8 1  
     3   37    1 1  
     4   14    2 1  
     5    3    7 1  
     6    8    3 am 
     7    3    9 1  
     8    8    4 2  
     9    5    6 1  
    10    6    7 2  
    11    9   10 1  
    12   10   11 ar 
    13   10   15 ar 
    14   11   12 ar 
    15   12   13 ar 
    16   14   13 ar 
    17   13   16 1  
    18   15   14 ar 
    19   18   17 ar 
    20   22   17 ar 
    21   17   23 1  
    22   19   18 ar 
    23   18   24 1  
    24   20   19 ar 
    25   20   21 ar 
    26   25   20 1  
    27   21   22 ar 
    28   23   34 am 
    29   24   34 am 
    30   26   25 1  
    31   27   26 1  
    32   27   28 1  
    33   36   27 1  
    34   28   29 ar 
    35   28   33 ar 
    36   29   30 ar 
    37   30   31 ar 
    38   32   31 ar 
    39   33   32 ar 
    40   34   35 2  
    41   36   37 am 
    42   37   38 2  
    43    5   39 1  
    44    6   40 1  
    45    7   41 1  
    46    9   42 1  
    47    9   43 1  
    48   11   44 1  
    49   12   45 1  
    50   15   46 1  
    51   19   47 1  
    52   21   48 1  
    53   22   49 1  
    54   23   50 1  
    55   24   51 1  
    56   26   52 1  
    57   26   53 1  
    58   27   54 1  
    59   29   55 1  
    60   30   56 1  
    61   31   57 1  
    62   32   58 1  
    63   33   59 1  
    64   36   60 1  
@<TRIPOS>SUBSTRUCTURE
     1 MP7         1

