### 
### Created by X-TOOL on Mon Sep 10 21:13:08 2018
### 

@<TRIPOS>MOLECULE
3qce_ligand
   25    26     1     0     0
SMALL
GAST_HUCK


@<TRIPOS>ATOM
      1 C1         34.0480   54.6640   79.0750 C.2       1 NXY         0.0149
      2 C2         34.5230   53.3640   78.5930 C.2       1 NXY         0.0655
      3 S3         33.5910   56.0440   78.0990 S.3       1 NXY        -0.1008
      4 C4         34.1320   54.4270   80.3690 C.2       1 NXY        -0.0547
      5 S5         34.9730   52.2960   79.9730 S.3       1 NXY        -0.0433
      6 C6         34.6050   52.9900   77.1630 C.2       1 NXY         0.0581
      7 C7         32.7530   57.1120   79.2960 C.3       1 NXY         0.0384
      8 C8         34.4870   53.4840   81.2210 C.2       1 NXY        -0.0045
      9 O9         34.9220   51.8130   76.8930 O.co2     1 NXY        -0.5678
     10 O10        34.3580   53.8380   76.2810 O.co2     1 NXY        -0.5678
     11 C11        31.9300   58.1840   78.5920 C.ar      1 NXY        -0.0305
     12 C12        30.5250   57.9400   78.4440 C.ar      1 NXY        -0.0450
     13 C13        32.5720   59.4090   78.1670 C.ar      1 NXY        -0.0587
     14 C14        29.7780   59.0270   77.9090 C.ar      1 NXY         0.0477
     15 C15        31.8180   60.4720   77.5810 C.ar      1 NXY        -0.0541
     16 C16        30.4180   60.2370   77.4840 C.ar      1 NXY         0.0469
     17 CL17       28.0580   58.9890   77.8950 Cl        1 NXY        -0.0718
     18 CL18       29.3780   61.4820   76.8620 Cl        1 NXY        -0.0764
     19 H          33.7950   55.3048   80.9204 H         1 NXY         0.0421
     20 H          33.5057   57.6003   79.9150 H         1 NXY         0.0561
     21 H          32.0843   56.5001   79.9015 H         1 NXY         0.0561
     22 H          34.4850   53.4426   82.3102 H         1 NXY         0.0770
     23 H          30.0631   56.9923   78.7207 H         1 NXY         0.0563
     24 H          33.6483   59.5229   78.2959 H         1 NXY         0.0559
     25 H          32.2814   61.3954   77.2337 H         1 NXY         0.0606
@<TRIPOS>BOND
     1    1    2 2  
     2    1    3 1  
     3    1    4 1  
     4    2    5 1  
     5    2    6 1  
     6    3    7 1  
     7    4    8 2  
     8    5    8 1  
     9    6    9 ar 
    10    6   10 ar 
    11    7   11 1  
    12   11   12 ar 
    13   11   13 ar 
    14   12   14 ar 
    15   13   15 ar 
    16   14   16 ar 
    17   14   17 1  
    18   15   16 ar 
    19   16   18 1  
    20    4   19 1  
    21    7   20 1  
    22    7   21 1  
    23    8   22 1  
    24   12   23 1  
    25   13   24 1  
    26   15   25 1  
@<TRIPOS>SUBSTRUCTURE
     1 NXY         1

