### 
### Created by X-TOOL on Mon Sep 10 21:13:08 2018
### 

@<TRIPOS>MOLECULE
3qcf_ligand
   25    26     1     0     0
SMALL
GAST_HUCK


@<TRIPOS>ATOM
      1 C1         34.0070   54.7180   78.7580 C.2       1 NXY         0.0149
      2 C2         34.5100   53.4320   78.2500 C.2       1 NXY         0.0655
      3 S3         33.4780   56.0930   77.8450 S.3       1 NXY        -0.1008
      4 C4         34.1360   54.5030   80.0520 C.2       1 NXY        -0.0547
      5 S5         34.9070   52.3200   79.6580 S.3       1 NXY        -0.0433
      6 C6         34.6590   53.1560   76.7950 C.2       1 NXY         0.0581
      7 C7         32.7230   57.0810   79.1360 C.3       1 NXY         0.0384
      8 C8         34.5380   53.5680   80.8870 C.2       1 NXY        -0.0045
      9 O9         34.8770   51.9930   76.3930 O.co2     1 NXY        -0.5678
     10 O10        34.5700   54.1210   76.0120 O.co2     1 NXY        -0.5678
     11 C11        31.8910   58.1520   78.4670 C.ar      1 NXY        -0.0305
     12 C12        30.5020   57.8810   78.3540 C.ar      1 NXY        -0.0450
     13 C13        32.5140   59.3860   78.0260 C.ar      1 NXY        -0.0587
     14 C14        29.7400   58.9370   77.8230 C.ar      1 NXY         0.0477
     15 C15        31.7530   60.4390   77.4570 C.ar      1 NXY        -0.0541
     16 C16        30.3560   60.1660   77.3920 C.ar      1 NXY         0.0469
     17 CL17       28.0490   58.7760   77.8350 Cl        1 NXY        -0.0718
     18 CL18       29.3240   61.4280   76.8200 Cl        1 NXY        -0.0764
     19 H1         33.8040   55.3785   80.6080 H         1 NXY         0.0421
     20 H2         33.5030   57.5457   79.7569 H         1 NXY         0.0561
     21 H3         32.0817   56.4474   79.7662 H         1 NXY         0.0561
     22 H4         34.6196   53.5573   81.9729 H         1 NXY         0.0770
     23 H5         30.0638   56.9357   78.6531 H         1 NXY         0.0563
     24 H6         33.5859   59.5059   78.1339 H         1 NXY         0.0559
     25 H7         32.1930   61.3649   77.1045 H         1 NXY         0.0606
@<TRIPOS>BOND
     1    1    2 2  
     2    1    3 1  
     3    1    4 1  
     4    2    5 1  
     5    2    6 1  
     6    3    7 1  
     7    4    8 2  
     8    5    8 1  
     9    6    9 ar 
    10    6   10 ar 
    11    7   11 1  
    12   11   12 ar 
    13   11   13 ar 
    14   12   14 ar 
    15   13   15 ar 
    16   14   16 ar 
    17   14   17 1  
    18   15   16 ar 
    19   16   18 1  
    20    4   19 1  
    21    7   20 1  
    22    7   21 1  
    23    8   22 1  
    24   12   23 1  
    25   13   24 1  
    26   15   25 1  
@<TRIPOS>SUBSTRUCTURE
     1 NXY         1

