### 
### Created by X-TOOL on Mon Sep 10 21:13:08 2018
### 

@<TRIPOS>MOLECULE
3qch_ligand
   33    34     1     0     0
SMALL
GAST_HUCK


@<TRIPOS>ATOM
      1 C1         20.0320   30.3370   62.5530 C.2       1 NX2         0.0234
      2 C2         19.0920   29.7120   63.2730 C.2       1 NX2        -0.0494
      3 C3         19.4850   30.0290   64.6420 C.2       1 NX2        -0.0006
      4 S4         21.0150   30.9450   64.6100 S.3       1 NX2        -0.0367
      5 C5         21.1100   31.0380   62.8920 C.2       1 NX2         0.1057
      6 S6         19.7010   30.2280   60.7600 S.3       1 NX2        -0.0963
      7 C7         18.1670   29.3100   60.8110 C.3       1 NX2         0.0394
      8 C8         17.7130   28.8820   59.4560 C.ar      1 NX2        -0.0304
      9 C9         17.9540   27.5090   59.0970 C.ar      1 NX2        -0.0450
     10 C10        16.5780   29.4700   57.3220 C.ar      1 NX2        -0.0541
     11 C11        17.0470   29.8470   58.6150 C.ar      1 NX2        -0.0586
     12 C12        17.4690   27.1320   57.8090 C.ar      1 NX2         0.0477
     13 C13        16.7910   28.1000   56.9680 C.ar      1 NX2         0.0469
     14 CL14       16.1760   27.5490   55.4670 Cl        1 NX2        -0.0764
     15 CL15       17.7090   25.5130   57.2200 Cl        1 NX2        -0.0718
     16 C16        22.1450   31.7440   62.1110 C.2       1 NX2         0.2160
     17 N17        23.0550   32.4750   62.7770 N.am      1 NX2        -0.1622
     18 O18        22.1410   31.6480   60.8930 O.2       1 NX2        -0.3979
     19 S19        24.3760   33.1540   62.0040 S.o2      1 NX2         0.0575
     20 C20        25.6370   31.8930   61.7600 C.3       1 NX2         0.0778
     21 O21        23.9620   33.6310   60.6940 O.2       1 NX2        -0.1512
     22 O22        24.9370   34.1120   62.9360 O.2       1 NX2        -0.1512
     23 H1         18.2482   29.1178   62.9252 H         1 NX2         0.0435
     24 H2         18.9331   29.7511   65.5387 H         1 NX2         0.0807
     25 H3         17.3896   29.9464   61.2589 H         1 NX2         0.0563
     26 H4         18.3119   28.4149   61.4337 H         1 NX2         0.0563
     27 H5         18.4647   26.8148   59.7545 H         1 NX2         0.0563
     28 H6         16.0937   30.1727   56.6536 H         1 NX2         0.0606
     29 H7         16.9027   30.8620   58.9672 H         1 NX2         0.0559
     30 H8         22.9402   32.6172   63.7602 H         1 NX2         0.2120
     31 H9         26.5060   32.3369   61.2522 H         1 NX2         0.0486
     32 H10        25.2277   31.0797   61.1428 H         1 NX2         0.0486
     33 H11        25.9481   31.4918   62.7358 H         1 NX2         0.0486
@<TRIPOS>BOND
     1    1    2 1  
     2    1    5 2  
     3    1    6 1  
     4    2    3 2  
     5    3    4 1  
     6    4    5 1  
     7    5   16 1  
     8    6    7 1  
     9    7    8 1  
    10    8    9 ar 
    11    8   11 ar 
    12    9   12 ar 
    13   11   10 ar 
    14   10   13 ar 
    15   12   13 ar 
    16   12   15 1  
    17   13   14 1  
    18   16   17 am 
    19   16   18 2  
    20   17   19 am 
    21   19   20 1  
    22   19   21 2  
    23   19   22 2  
    24    2   23 1  
    25    3   24 1  
    26    7   25 1  
    27    7   26 1  
    28    9   27 1  
    29   10   28 1  
    30   11   29 1  
    31   17   30 1  
    32   20   31 1  
    33   20   32 1  
    34   20   33 1  
@<TRIPOS>SUBSTRUCTURE
     1 NX2         1

