### 
### Created by X-TOOL on Mon Sep 10 21:13:08 2018
### 

@<TRIPOS>MOLECULE
3qci_ligand
   42    44     1     0     0
SMALL
GAST_HUCK


@<TRIPOS>ATOM
      1 S1         20.6840   30.7920   64.7490 S.3       1 NX3        -0.0367
      2 C2         20.5910   30.8860   63.0450 C.2       1 NX3         0.1057
      3 C3         19.5490   30.1740   62.6060 C.2       1 NX3         0.0234
      4 C4         18.7360   29.5870   63.6690 C.2       1 NX3        -0.0494
      5 C5         19.2700   29.8240   64.8580 C.2       1 NX3        -0.0006
      6 C6         21.5500   31.6730   62.2290 C.2       1 NX3         0.2163
      7 N7         22.4920   32.3650   62.8750 N.am      1 NX3        -0.1577
      8 O8         21.4220   31.6720   61.0120 O.2       1 NX3        -0.3978
      9 S9         23.4130   33.4600   62.1020 S.o2      1 NX3         0.0867
     10 S10        19.1790   29.9590   60.9190 S.3       1 NX3        -0.0963
     11 C11        17.6460   29.1040   61.0130 C.3       1 NX3         0.0394
     12 C12        17.2160   28.6730   59.6380 C.ar      1 NX3        -0.0304
     13 C13        16.6160   29.6290   58.7200 C.ar      1 NX3        -0.0586
     14 C14        16.1940   29.2400   57.4170 C.ar      1 NX3        -0.0541
     15 C15        16.4010   27.8630   57.0920 C.ar      1 NX3         0.0469
     16 C16        16.9990   26.8970   57.9890 C.ar      1 NX3         0.0477
     17 C17        17.4200   27.2880   59.2870 C.ar      1 NX3        -0.0450
     18 CL18       17.1980   25.2300   57.4850 Cl        1 NX3        -0.0718
     19 CL19       15.8690   27.3170   55.5380 Cl        1 NX3        -0.0764
     20 O20        23.8590   34.3620   63.1140 O.2       1 NX3        -0.1459
     21 O21        22.7490   33.9860   60.9480 O.2       1 NX3        -0.1459
     22 C22        24.9630   32.7470   61.6620 C.ar      1 NX3         0.1014
     23 C23        25.1750   31.9950   60.4410 C.ar      1 NX3        -0.0482
     24 C24        26.4770   31.4370   60.1380 C.ar      1 NX3        -0.0718
     25 C25        27.5290   31.6790   61.1120 C.ar      1 NX3        -0.0446
     26 C26        27.3200   32.4380   62.3390 C.ar      1 NX3         0.0371
     27 C27        26.0210   32.9810   62.6260 C.ar      1 NX3        -0.0178
     28 N28        28.3370   32.6590   63.2240 N.pl3     1 NX3        -0.3369
     29 H1         17.8148   29.0296   63.5057 H         1 NX3         0.0435
     30 H2         18.8602   29.4489   65.7947 H         1 NX3         0.0807
     31 H3         22.6337   32.2069   63.8522 H         1 NX3         0.2124
     32 H4         16.8826   29.7697   61.4420 H         1 NX3         0.0563
     33 H5         17.7614   28.2174   61.6538 H         1 NX3         0.0563
     34 H6         16.4876   30.6584   59.0344 H         1 NX3         0.0559
     35 H7         15.7468   29.9392   56.7197 H         1 NX3         0.0606
     36 H8         17.8705   26.5842   59.9775 H         1 NX3         0.0563
     37 H9         24.3531   31.8491   59.7495 H         1 NX3         0.0524
     38 H10        26.6575   30.8689   59.2326 H         1 NX3         0.0583
     39 H11        28.5160   31.2757   60.9165 H         1 NX3         0.0515
     40 H12        25.8380   33.5465   63.5325 H         1 NX3         0.0534
     41 H13        29.2753   32.2780   63.0359 H         1 NX3         0.1719
     42 H14        28.1655   33.2066   64.0793 H         1 NX3         0.1719
@<TRIPOS>BOND
     1    1    2 1  
     2    1    5 1  
     3    2    3 2  
     4    2    6 1  
     5    3    4 1  
     6    3   10 1  
     7    4    5 2  
     8    6    7 am 
     9    6    8 2  
    10    7    9 am 
    11    9   20 2  
    12    9   21 2  
    13    9   22 1  
    14   10   11 1  
    15   11   12 1  
    16   12   13 ar 
    17   12   17 ar 
    18   13   14 ar 
    19   14   15 ar 
    20   15   16 ar 
    21   15   19 1  
    22   16   17 ar 
    23   16   18 1  
    24   22   23 ar 
    25   22   27 ar 
    26   23   24 ar 
    27   24   25 ar 
    28   25   26 ar 
    29   26   27 ar 
    30   26   28 1  
    31    4   29 1  
    32    5   30 1  
    33    7   31 1  
    34   11   32 1  
    35   11   33 1  
    36   13   34 1  
    37   14   35 1  
    38   17   36 1  
    39   23   37 1  
    40   24   38 1  
    41   25   39 1  
    42   27   40 1  
    43   28   41 1  
    44   28   42 1  
@<TRIPOS>SUBSTRUCTURE
     1 NX3         1

