### 
### Created by X-TOOL on Mon Sep 10 21:13:07 2018
### 

@<TRIPOS>MOLECULE
3qcj_ligand
   46    48     1     0     0
SMALL
GAST_HUCK


@<TRIPOS>ATOM
      1 C1         19.9920   29.9670   62.0000 C.2       1 NX4         0.0234
      2 C2         21.9840   31.4990   61.7360 C.2       1 NX4         0.2162
      3 N3         22.6960   32.3920   62.4200 N.am      1 NX4        -0.1587
      4 S4         19.6480   29.6980   60.3490 S.3       1 NX4        -0.0963
      5 C5         17.9580   29.0710   60.4460 C.3       1 NX4         0.0394
      6 C6         17.5400   28.5720   59.0830 C.ar      1 NX4        -0.0304
      7 C7         16.8850   29.4980   58.2090 C.ar      1 NX4        -0.0586
      8 C8         16.4440   29.0990   56.9100 C.ar      1 NX4        -0.0541
      9 C9         16.7030   27.7340   56.5640 C.ar      1 NX4         0.0469
     10 C10        17.3640   26.7950   57.4210 C.ar      1 NX4         0.0477
     11 C11        17.8030   27.1880   58.7120 C.ar      1 NX4        -0.0450
     12 CL12       16.1480   27.1840   55.0320 Cl        1 NX4        -0.0764
     13 CL13       17.6260   25.1760   56.8270 Cl        1 NX4        -0.0718
     14 O14        22.0430   31.2720   60.5350 O.2       1 NX4        -0.3979
     15 S15        23.7770   33.3380   61.7590 S.o2      1 NX4         0.0854
     16 O16        24.0770   34.2810   62.7960 O.2       1 NX4        -0.1470
     17 O17        23.2390   33.8310   60.5120 O.2       1 NX4        -0.1470
     18 C18        21.0510   30.7660   62.5450 C.2       1 NX4         0.1057
     19 C19        19.4580   29.5790   63.1320 C.2       1 NX4        -0.0494
     20 C20        19.5810   29.7160   64.4350 C.2       1 NX4        -0.0006
     21 S21        21.0070   30.7640   64.3070 S.3       1 NX4        -0.0367
     22 C22        25.2850   32.5450   61.5070 C.ar      1 NX4         0.1054
     23 C23        26.2660   32.8250   62.5120 C.ar      1 NX4        -0.0409
     24 C24        27.5570   32.2670   62.4140 C.ar      1 NX4        -0.0272
     25 C25        27.8060   31.4170   61.2640 C.ar      1 NX4         0.1061
     26 C26        26.7800   31.1420   60.2490 C.ar      1 NX4         0.0406
     27 C27        25.4610   31.7230   60.3610 C.ar      1 NX4        -0.0291
     28 O28        29.0860   30.8410   61.1170 O.3       1 NX4        -0.3177
     29 C29        30.1680   31.3400   61.9480 C.3       1 NX4         0.0605
     30 C30        27.0440   30.2730   59.0800 C.2       1 NX4         0.0582
     31 O31        28.2280   30.1740   58.6940 O.co2     1 NX4        -0.5643
     32 O32        26.0930   29.6790   58.5200 O.co2     1 NX4        -0.5643
     33 H1         22.5388   32.4686   63.4046 H         1 NX4         0.2123
     34 H2         17.2829   29.8782   60.7662 H         1 NX4         0.0563
     35 H3         17.9120   28.2452   61.1712 H         1 NX4         0.0563
     36 H4         16.7212   30.5178   58.5381 H         1 NX4         0.0559
     37 H5         15.9469   29.7834   56.2321 H         1 NX4         0.0606
     38 H6         18.3043   26.4992   59.3823 H         1 NX4         0.0563
     39 H7         18.6232   28.9121   62.9215 H         1 NX4         0.0435
     40 H8         19.0154   29.3285   65.2811 H         1 NX4         0.0807
     41 H9         26.0157   33.4667   63.3490 H         1 NX4         0.0630
     42 H10        28.3219   32.4621   63.1569 H         1 NX4         0.0550
     43 H11        24.6755   31.5472   59.6350 H         1 NX4         0.0642
     44 H12        31.0927   30.7920   61.7140 H         1 NX4         0.0579
     45 H13        29.9135   31.1939   63.0081 H         1 NX4         0.0579
     46 H14        30.3172   32.4119   61.7511 H         1 NX4         0.0579
@<TRIPOS>BOND
     1    1    4 1  
     2   18    1 2  
     3    1   19 1  
     4    2    3 am 
     5    2   14 2  
     6    2   18 1  
     7    3   15 am 
     8    4    5 1  
     9    5    6 1  
    10    6    7 ar 
    11    6   11 ar 
    12    7    8 ar 
    13    8    9 ar 
    14    9   10 ar 
    15    9   12 1  
    16   10   11 ar 
    17   10   13 1  
    18   15   16 2  
    19   15   17 2  
    20   15   22 1  
    21   18   21 1  
    22   19   20 2  
    23   20   21 1  
    24   22   23 ar 
    25   22   27 ar 
    26   23   24 ar 
    27   24   25 ar 
    28   25   26 ar 
    29   25   28 1  
    30   26   27 ar 
    31   26   30 1  
    32   28   29 1  
    33   30   31 ar 
    34   30   32 ar 
    35    3   33 1  
    36    5   34 1  
    37    5   35 1  
    38    7   36 1  
    39    8   37 1  
    40   11   38 1  
    41   19   39 1  
    42   20   40 1  
    43   23   41 1  
    44   24   42 1  
    45   27   43 1  
    46   29   44 1  
    47   29   45 1  
    48   29   46 1  
@<TRIPOS>SUBSTRUCTURE
     1 NX4         1

