### 
### Created by X-TOOL on Mon Sep 10 21:13:08 2018
### 

@<TRIPOS>MOLECULE
3qck_ligand
   28    29     1     0     0
SMALL
GAST_HUCK


@<TRIPOS>ATOM
      1 C1         19.7460   30.0560   62.1540 C.ar      1 NX5         0.0323
      2 S2         19.3910   29.6850   60.4550 S.3       1 NX5        -0.0841
      3 C3         17.6880   29.0240   60.4900 C.3       1 NX5         0.0416
      4 C4         17.3360   28.4890   59.1230 C.ar      1 NX5        -0.0301
      5 C5         17.7080   27.1330   58.7830 C.ar      1 NX5        -0.0449
      6 C6         16.3100   28.9590   56.9020 C.ar      1 NX5        -0.0541
      7 C7         16.6590   29.3800   58.2170 C.ar      1 NX5        -0.0586
      8 C8         17.3540   26.7160   57.4770 C.ar      1 NX5         0.0477
      9 C9         16.6590   27.6070   56.5860 C.ar      1 NX5         0.0469
     10 CL10       16.1570   26.9960   55.0690 Cl        1 NX5        -0.0764
     11 CL11       17.7110   25.1090   56.9360 Cl        1 NX5        -0.0718
     12 C12        18.9160   29.5590   63.2290 C.ar      1 NX5        -0.0458
     13 C13        19.3230   29.8680   64.5720 C.ar      1 NX5        -0.0651
     14 C14        20.5140   30.6520   64.8220 C.ar      1 NX5        -0.0650
     15 C15        21.3400   31.1460   63.7550 C.ar      1 NX5        -0.0534
     16 C16        20.9190   30.8290   62.4150 C.ar      1 NX5         0.0223
     17 C17        21.7200   31.2920   61.3110 C.2       1 NX5         0.0594
     18 O18        22.9540   31.1600   61.4000 O.co2     1 NX5        -0.5629
     19 O19        21.1760   31.8290   60.3300 O.co2     1 NX5        -0.5629
     20 H1         16.9871   29.8267   60.7627 H         1 NX5         0.0566
     21 H2         17.6230   28.2132   61.2305 H         1 NX5         0.0566
     22 H3         18.2223   26.4812   59.4799 H         1 NX5         0.0563
     23 H4         15.8166   29.6138   56.1929 H         1 NX5         0.0606
     24 H5         16.4116   30.3847   58.5401 H         1 NX5         0.0559
     25 H6         18.0233   28.9772   63.0298 H         1 NX5         0.0572
     26 H7         18.7317   29.5101   65.4071 H         1 NX5         0.0621
     27 H8         20.7914   30.8733   65.8463 H         1 NX5         0.0566
     28 H9         22.2341   31.7274   63.9489 H         1 NX5         0.0633
@<TRIPOS>BOND
     1    1    2 1  
     2    1   12 ar 
     3    1   16 ar 
     4    2    3 1  
     5    3    4 1  
     6    4    5 ar 
     7    4    7 ar 
     8    5    8 ar 
     9    7    6 ar 
    10    6    9 ar 
    11    8    9 ar 
    12    8   11 1  
    13    9   10 1  
    14   12   13 ar 
    15   13   14 ar 
    16   14   15 ar 
    17   15   16 ar 
    18   16   17 1  
    19   17   18 ar 
    20   17   19 ar 
    21    3   20 1  
    22    3   21 1  
    23    5   22 1  
    24    6   23 1  
    25    7   24 1  
    26   12   25 1  
    27   13   26 1  
    28   14   27 1  
    29   15   28 1  
@<TRIPOS>SUBSTRUCTURE
     1 NX5         1

