### 
### Created by X-TOOL on Mon Sep 10 21:13:07 2018
### 

@<TRIPOS>MOLECULE
3qcl_ligand
   37    38     1     0     0
SMALL
GAST_HUCK


@<TRIPOS>ATOM
      1 C1         19.3360   29.9610   64.2700 C.ar      1 NXV         0.0214
      2 C2         20.4670   30.7760   64.4730 C.ar      1 NXV        -0.0497
      3 C3         21.2710   31.2380   63.4020 C.ar      1 NXV        -0.0523
      4 C4         20.9600   30.8090   62.1100 C.ar      1 NXV         0.0222
      5 C5         19.8330   29.9670   61.9060 C.ar      1 NXV         0.0330
      6 C6         19.0340   29.5040   62.9870 C.ar      1 NXV        -0.0309
      7 C7         18.5630   29.5160   65.3870 C.1       1 NXV        -0.0659
      8 C8         17.9250   29.1510   66.3110 C.1       1 NXV        -0.0934
      9 C9         17.1900   28.6850   67.4770 C.3       1 NXV         0.0332
     10 S10        19.4700   29.4100   60.2920 S.3       1 NXV        -0.0843
     11 C11        17.8080   28.8400   60.3770 C.3       1 NXV         0.0415
     12 C12        17.4500   28.3610   59.0380 C.ar      1 NXV        -0.0301
     13 C13        16.8230   29.2360   58.1630 C.ar      1 NXV        -0.0586
     14 C14        16.4710   28.8280   56.8860 C.ar      1 NXV        -0.0541
     15 C15        16.7070   27.5170   56.5260 C.ar      1 NXV         0.0469
     16 C16        17.3590   26.6300   57.4380 C.ar      1 NXV         0.0477
     17 C17        17.7340   27.0380   58.7120 C.ar      1 NXV        -0.0449
     18 CL18       17.6470   25.0090   56.9560 Cl        1 NXV        -0.0718
     19 CL19       16.1670   26.9140   54.9830 Cl        1 NXV        -0.0764
     20 C20        21.7170   31.2900   60.9710 C.2       1 NXV         0.0593
     21 O21        21.1390   32.0830   60.2530 O.co2     1 NXV        -0.5630
     22 O22        22.9320   30.8950   60.7190 O.co2     1 NXV        -0.5630
     23 C23        18.1550   28.3240   68.5620 C.3       1 NXV         0.0551
     24 O24        18.2660   29.4230   69.4930 O.3       1 NXV        -0.3941
     25 H1         20.7316   31.0598   65.4852 H         1 NXV         0.0579
     26 H2         22.1053   31.9066   63.5806 H         1 NXV         0.0633
     27 H3         18.2136   28.8156   62.8191 H         1 NXV         0.0581
     28 H4         16.5949   27.8004   67.2062 H         1 NXV         0.0421
     29 H5         16.5208   29.4827   67.8318 H         1 NXV         0.0421
     30 H6         17.1412   29.6627   60.6746 H         1 NXV         0.0565
     31 H7         17.7266   28.0201   61.1057 H         1 NXV         0.0565
     32 H8         16.6061   30.2493   58.4813 H         1 NXV         0.0559
     33 H9         16.0207   29.5228   56.1863 H         1 NXV         0.0606
     34 H10        18.2190   26.3659   59.4107 H         1 NXV         0.0563
     35 H11        19.1411   28.1158   68.1213 H         1 NXV         0.0566
     36 H12        17.7938   27.4300   69.0915 H         1 NXV         0.0566
     37 H13        18.8789   29.1927   70.1814 H         1 NXV         0.2094
@<TRIPOS>BOND
     1    1    2 ar 
     2    1    6 ar 
     3    1    7 1  
     4    2    3 ar 
     5    3    4 ar 
     6    4    5 ar 
     7    4   20 1  
     8    5    6 ar 
     9    5   10 1  
    10    7    8 3  
    11    8    9 1  
    12    9   23 1  
    13   10   11 1  
    14   11   12 1  
    15   12   13 ar 
    16   12   17 ar 
    17   13   14 ar 
    18   14   15 ar 
    19   15   16 ar 
    20   15   19 1  
    21   16   17 ar 
    22   16   18 1  
    23   20   21 ar 
    24   20   22 ar 
    25   23   24 1  
    26    2   25 1  
    27    3   26 1  
    28    6   27 1  
    29    9   28 1  
    30    9   29 1  
    31   11   30 1  
    32   11   31 1  
    33   13   32 1  
    34   14   33 1  
    35   17   34 1  
    36   23   35 1  
    37   23   36 1  
    38   24   37 1  
@<TRIPOS>SUBSTRUCTURE
     1 NXV         1

