### 
### Created by X-TOOL on Mon Sep 10 21:13:06 2018
### 

@<TRIPOS>MOLECULE
3qcq_ligand
   35    37     1     0     0
SMALL
GAST_HUCK


@<TRIPOS>ATOM
      1 C13       -40.6490   16.4720   12.7400 C.ar      1 3Q0        -0.0346
      2 C12       -41.8220   17.1280   12.4460 C.ar      1 3Q0        -0.0471
      3 C20       -42.9400   15.1320   11.7670 C.ar      1 3Q0        -0.0532
      4 C5        -44.4240   18.5120   12.0030 C.ar      1 3Q0        -0.0019
      5 C14       -40.6310   15.0970   12.5430 C.ar      1 3Q0         0.0787
      6 C11       -42.9450   16.4960   11.9600 C.ar      1 3Q0        -0.0012
      7 C19       -41.7720   14.4790   12.0740 C.ar      1 3Q0        -0.0481
      8 C6        -44.1550   17.2140   11.6230 C.ar      1 3Q0         0.0384
      9 C4        -45.6480   19.0320   11.6260 C.ar      1 3Q0         0.1114
     10 C15       -39.6760   14.0500   12.7090 C.2       1 3Q0         0.2407
     11 C8        -46.1940   17.0560   10.6050 C.ar      1 3Q0         0.1673
     12 C1        -45.0440   20.8470   14.1490 C.3       1 3Q0        -0.0447
     13 C2        -44.8700   20.9790   12.6560 C.3       1 3Q0         0.0260
     14 N7        -45.0280   16.4850   10.9230 N.ar      1 3Q0        -0.2714
     15 N10       -46.5350   18.3100   10.9300 N.ar      1 3Q0        -0.2451
     16 N17       -40.1960   12.8660   12.3590 N.pl3     1 3Q0        -0.2547
     17 N18       -41.4570   13.1520   11.9840 N.2       1 3Q0        -0.4395
     18 N16       -38.4090   14.2590   13.1660 N.pl3     1 3Q0        -0.2606
     19 N9        -47.0980   16.2830    9.8740 N.pl3     1 3Q0        -0.3069
     20 N3        -45.9880   20.3460   11.9780 N.pl3     1 3Q0        -0.3046
     21 H1        -39.7790   17.0035   13.1084 H         1 3Q0         0.0644
     22 H2        -41.8646   18.1994   12.6054 H         1 3Q0         0.0654
     23 H3        -43.8098   14.6037   11.3936 H         1 3Q0         0.0648
     24 H4        -43.7093   19.0969   12.5706 H         1 3Q0         0.0562
     25 H5        -44.1967   21.3268   14.6607 H         1 3Q0         0.0249
     26 H6        -45.0811   19.7818   14.4211 H         1 3Q0         0.0249
     27 H7        -45.9809   21.3362   14.4537 H         1 3Q0         0.0249
     28 H8        -43.9328   20.4899   12.3518 H         1 3Q0         0.0520
     29 H9        -44.8326   22.0443   12.3844 H         1 3Q0         0.0520
     30 H10       -39.7352   11.9450   12.3735 H         1 3Q0         0.2538
     31 H11       -38.1002   15.2107   13.4106 H         1 3Q0         0.2097
     32 H12       -37.7604   13.4653   13.2667 H         1 3Q0         0.2097
     33 H13       -46.8561   15.3163    9.6135 H         1 3Q0         0.1823
     34 H14       -48.0069   16.6794    9.5952 H         1 3Q0         0.1823
     35 H15       -46.8946   20.7951   11.7848 H         1 3Q0         0.1839
@<TRIPOS>BOND
     1    2    1 ar 
     2    1    5 ar 
     3    6    2 ar 
     4    6    3 ar 
     5    3    7 ar 
     6    4    8 ar 
     7    9    4 ar 
     8    7    5 ar 
     9    5   10 2  
    10    8    6 1  
    11    7   17 2  
    12    8   14 ar 
    13    9   15 ar 
    14   20    9 1  
    15   10   16 1  
    16   10   18 1  
    17   11   14 ar 
    18   15   11 ar 
    19   11   19 1  
    20   13   12 1  
    21   13   20 1  
    22   16   17 1  
    23    1   21 1  
    24    2   22 1  
    25    3   23 1  
    26    4   24 1  
    27   12   25 1  
    28   12   26 1  
    29   12   27 1  
    30   13   28 1  
    31   13   29 1  
    32   16   30 1  
    33   18   31 1  
    34   18   32 1  
    35   19   33 1  
    36   19   34 1  
    37   20   35 1  
@<TRIPOS>SUBSTRUCTURE
     1 3Q0         1

