### 
### Created by X-TOOL on Mon Sep 10 21:13:06 2018
### 

@<TRIPOS>MOLECULE
3qcs_ligand
   40    43     1     0     0
SMALL
GAST_HUCK


@<TRIPOS>ATOM
      1 C9        -40.8520   16.4420   12.8550 C.ar      1 3Q1        -0.0346
      2 C8        -42.0130   17.1260   12.5620 C.ar      1 3Q1        -0.0471
      3 C6        -43.1360   15.1680   11.7880 C.ar      1 3Q1        -0.0532
      4 C12       -44.6080   18.5260   12.1850 C.ar      1 3Q1        -0.0018
      5 C10       -40.8490   15.0810   12.6040 C.ar      1 3Q1         0.0787
      6 C7        -43.1310   16.5230   12.0350 C.ar      1 3Q1        -0.0012
      7 C5        -41.9800   14.4920   12.0880 C.ar      1 3Q1        -0.0481
      8 C11       -44.3330   17.2600   11.7230 C.ar      1 3Q1         0.0384
      9 C13       -45.8210   19.0770   11.8310 C.ar      1 3Q1         0.1140
     10 C2        -39.9130   14.0190   12.7480 C.2       1 3Q1         0.2407
     11 C15       -46.3500   17.1830   10.6660 C.ar      1 3Q1         0.1673
     12 C19       -44.9590   21.0230   12.8250 C.3       1 3Q1         0.0553
     13 C23       -47.0900   21.0210   11.4150 C.3       1 3Q1         0.0553
     14 C20       -44.8290   22.4510   12.3540 C.3       1 3Q1         0.0682
     15 C22       -46.7030   22.4450   11.1100 C.3       1 3Q1         0.0682
     16 N17       -45.1980   16.5800   10.9680 N.ar      1 3Q1        -0.2714
     17 N14       -46.6970   18.4100   11.0720 N.ar      1 3Q1        -0.2449
     18 N3        -40.4280   12.8530   12.3470 N.pl3     1 3Q1        -0.2547
     19 N4        -41.6720   13.1670   11.9540 N.2       1 3Q1        -0.4395
     20 N18       -46.1430   20.3610   12.3020 N.pl3     1 3Q1        -0.2861
     21 N1        -38.6640   14.2090   13.2340 N.pl3     1 3Q1        -0.2606
     22 N16       -47.2480   16.4620    9.8770 N.pl3     1 3Q1        -0.3069
     23 O21       -46.1250   23.0140   12.2780 O.3       1 3Q1        -0.3757
     24 H1        -39.9832   16.9462   13.2625 H         1 3Q1         0.0644
     25 H2        -42.0460   18.1919   12.7567 H         1 3Q1         0.0654
     26 H3        -44.0044   14.6638   11.3795 H         1 3Q1         0.0648
     27 H4        -43.9003   19.0679   12.8018 H         1 3Q1         0.0562
     28 H5        -45.0111   21.0190   13.9237 H         1 3Q1         0.0548
     29 H6        -44.0704   20.4631   12.4980 H         1 3Q1         0.0548
     30 H7        -47.1384   20.4591   10.4706 H         1 3Q1         0.0548
     31 H8        -48.0804   21.0199   11.8936 H         1 3Q1         0.0548
     32 H9        -44.3550   22.4736   11.3616 H         1 3Q1         0.0580
     33 H10       -44.2162   23.0232   13.0661 H         1 3Q1         0.0580
     34 H11       -47.5958   23.0186   10.8204 H         1 3Q1         0.0580
     35 H12       -45.9727   22.4633   10.2876 H         1 3Q1         0.0580
     36 H13       -39.9752   11.9279   12.3410 H         1 3Q1         0.2538
     37 H14       -38.3596   15.1512   13.5177 H         1 3Q1         0.2097
     38 H15       -38.0180   13.4114   13.3201 H         1 3Q1         0.2097
     39 H16       -47.0034   15.5156    9.5523 H         1 3Q1         0.1823
     40 H17       -48.1551   16.8764    9.6195 H         1 3Q1         0.1823
@<TRIPOS>BOND
     1    2    1 ar 
     2    1    5 ar 
     3    6    2 ar 
     4    6    3 ar 
     5    3    7 ar 
     6    4    8 ar 
     7    9    4 ar 
     8    7    5 ar 
     9    5   10 2  
    10    8    6 1  
    11    7   19 2  
    12    8   16 ar 
    13    9   17 ar 
    14   20    9 1  
    15   10   18 1  
    16   10   21 1  
    17   11   16 ar 
    18   17   11 ar 
    19   11   22 1  
    20   12   14 1  
    21   20   12 1  
    22   13   15 1  
    23   13   20 1  
    24   14   23 1  
    25   15   23 1  
    26   18   19 1  
    27    1   24 1  
    28    2   25 1  
    29    3   26 1  
    30    4   27 1  
    31   12   28 1  
    32   12   29 1  
    33   13   30 1  
    34   13   31 1  
    35   14   32 1  
    36   14   33 1  
    37   15   34 1  
    38   15   35 1  
    39   18   36 1  
    40   21   37 1  
    41   21   38 1  
    42   22   39 1  
    43   22   40 1  
@<TRIPOS>SUBSTRUCTURE
     1 3Q1         1

