### 
### Created by X-TOOL on Mon Sep 10 21:13:06 2018
### 

@<TRIPOS>MOLECULE
3qcx_ligand
   43    46     1     0     0
SMALL
GAST_HUCK


@<TRIPOS>ATOM
      1 C1        -40.6850   16.4550   12.9350 C.ar      1 3Q2        -0.0346
      2 C2        -41.8750   17.0930   12.6120 C.ar      1 3Q2        -0.0471
      3 C3        -42.9100   15.0750   11.8780 C.ar      1 3Q2        -0.0532
      4 C4        -44.3540   18.4770   11.8950 C.ar      1 3Q2        -0.0017
      5 C5        -40.6150   15.0770   12.7190 C.ar      1 3Q2         0.0787
      6 C6        -42.9720   16.4350   12.0800 C.ar      1 3Q2        -0.0012
      7 C7        -41.7370   14.4430   12.2140 C.ar      1 3Q2        -0.0481
      8 C8        -44.1880   17.1330   11.6770 C.ar      1 3Q2         0.0384
      9 C9        -45.5240   19.0700   11.4710 C.ar      1 3Q2         0.1143
     10 C10       -39.6520   14.0240   12.8860 C.2       1 3Q2         0.2407
     11 C11       -46.2580   17.0720   10.6730 C.ar      1 3Q2         0.1673
     12 C12       -47.0610   20.9290   11.7300 C.3       1 3Q2         0.0556
     13 C13       -46.9770   22.3920   11.3480 C.3       1 3Q2         0.0682
     14 C14       -44.7440   22.5510   12.1170 C.3       1 3Q2         0.0708
     15 C15       -44.7480   21.1090   12.5730 C.3       1 3Q2         0.0635
     16 C16       -45.2040   21.0400   14.0050 C.3       1 3Q2        -0.0394
     17 N17       -45.1440   16.4210   11.0680 N.ar      1 3Q2        -0.2714
     18 N18       -46.4790   18.3740   10.8450 N.ar      1 3Q2        -0.2449
     19 N19       -40.1520   12.8400   12.5000 N.pl3     1 3Q2        -0.2547
     20 N20       -41.4040   13.1190   12.0980 N.2       1 3Q2        -0.4395
     21 N21       -45.6910   20.4680   11.6540 N.pl3     1 3Q2        -0.2833
     22 N22       -38.3840   14.1870   13.3820 N.pl3     1 3Q2        -0.2606
     23 N23       -47.2810   16.3820   10.0280 N.pl3     1 3Q2        -0.3069
     24 O24       -46.0780   23.0730   12.2250 O.3       1 3Q2        -0.3754
     25 H1        -39.8429   17.0051   13.3392 H         1 3Q2         0.0644
     26 H2        -41.9496   18.1605   12.7849 H         1 3Q2         0.0654
     27 H3        -43.7511   14.5255   11.4710 H         1 3Q2         0.0648
     28 H4        -43.5839   19.0587   12.3887 H         1 3Q2         0.0562
     29 H5        -47.6991   20.3767   11.0245 H         1 3Q2         0.0548
     30 H6        -47.4564   20.8133   12.7499 H         1 3Q2         0.0548
     31 H7        -47.9756   22.8468   11.4245 H         1 3Q2         0.0580
     32 H8        -46.6129   22.4785   10.3136 H         1 3Q2         0.0580
     33 H9        -44.4083   22.6073   11.0710 H         1 3Q2         0.0583
     34 H10       -44.0645   23.1381   12.7523 H         1 3Q2         0.0583
     35 H11       -43.7490   20.6574   12.4830 H         1 3Q2         0.0581
     36 H12       -45.2076   19.9918   14.3385 H         1 3Q2         0.0253
     37 H13       -46.2197   21.4542   14.0868 H         1 3Q2         0.0253
     38 H14       -44.5181   21.6234   14.6368 H         1 3Q2         0.0253
     39 H15       -39.6821   11.9235   12.5096 H         1 3Q2         0.2538
     40 H16       -38.0568   15.1227   13.6619 H         1 3Q2         0.2097
     41 H17       -37.7587   13.3738   13.4746 H         1 3Q2         0.2097
     42 H18       -47.1907   15.3707    9.8549 H         1 3Q2         0.1823
     43 H19       -48.1281   16.8829    9.7240 H         1 3Q2         0.1823
@<TRIPOS>BOND
     1    2    1 ar 
     2    1    5 ar 
     3    6    2 ar 
     4    6    3 ar 
     5    3    7 ar 
     6    4    8 ar 
     7    9    4 ar 
     8    7    5 ar 
     9    5   10 2  
    10    8    6 1  
    11    7   20 2  
    12    8   17 ar 
    13    9   18 ar 
    14   21    9 1  
    15   10   19 1  
    16   10   22 1  
    17   11   17 ar 
    18   18   11 ar 
    19   11   23 1  
    20   13   12 1  
    21   12   21 1  
    22   24   13 1  
    23   14   15 1  
    24   14   24 1  
    25   15   16 1  
    26   15   21 1  
    27   19   20 1  
    28    1   25 1  
    29    2   26 1  
    30    3   27 1  
    31    4   28 1  
    32   12   29 1  
    33   12   30 1  
    34   13   31 1  
    35   13   32 1  
    36   14   33 1  
    37   14   34 1  
    38   15   35 1  
    39   16   36 1  
    40   16   37 1  
    41   16   38 1  
    42   19   39 1  
    43   22   40 1  
    44   22   41 1  
    45   23   42 1  
    46   23   43 1  
@<TRIPOS>SUBSTRUCTURE
     1 3Q2         1

