### 
### Created by X-TOOL on Mon Sep 10 21:13:06 2018
### 

@<TRIPOS>MOLECULE
3qcy_ligand
   54    58     1     0     0
SMALL
GAST_HUCK


@<TRIPOS>ATOM
      1 C1        -52.3130   24.8140    9.0860 C.ar      1 3Q3        -0.0772
      2 C2        -51.9380   23.6580    8.4390 C.ar      1 3Q3        -0.0755
      3 C3        -51.4510   25.4180    9.9730 C.ar      1 3Q3        -0.0755
      4 C4        -40.6460   16.4430   13.0320 C.ar      1 3Q3        -0.0346
      5 C5        -41.8160   17.0990   12.7060 C.ar      1 3Q3        -0.0471
      6 C6        -50.7030   23.1030    8.6790 C.ar      1 3Q3        -0.0413
      7 C7        -50.2160   24.8640   10.2120 C.ar      1 3Q3        -0.0413
      8 C8        -42.8600   15.1180   11.8700 C.ar      1 3Q3        -0.0532
      9 C9        -44.2550   18.5570   11.9890 C.ar      1 3Q3        -0.0018
     10 C10       -40.5950   15.0820   12.7690 C.ar      1 3Q3         0.0787
     11 C11       -42.9030   16.4710   12.1350 C.ar      1 3Q3        -0.0012
     12 C12       -41.6950   14.4700   12.2100 C.ar      1 3Q3        -0.0481
     13 C13       -49.8460   23.7080    9.5660 C.ar      1 3Q3         0.0663
     14 C14       -44.0980   17.2080   11.7620 C.ar      1 3Q3         0.0384
     15 C15       -45.4340   19.1380   11.5730 C.ar      1 3Q3         0.1142
     16 C16       -39.6330   14.0450   12.9310 C.2       1 3Q3         0.2407
     17 C17       -46.1520   17.1230   10.7690 C.ar      1 3Q3         0.1673
     18 C18       -48.0390   23.1910   11.0650 C.2       1 3Q3         0.2348
     19 C19       -44.8460   21.1600   12.7850 C.3       1 3Q3         0.0557
     20 C20       -46.9820   21.0280   11.6660 C.3       1 3Q3         0.0758
     21 C21       -44.6550   22.5540   12.2170 C.3       1 3Q3         0.0716
     22 C22       -46.7480   22.4300   11.1220 C.3       1 3Q3         0.1731
     23 N23       -45.0390   16.4830   11.1520 N.ar      1 3Q3        -0.2714
     24 N24       -46.3800   18.4270   10.9520 N.ar      1 3Q3        -0.2449
     25 N25       -40.1020   12.8730   12.4900 N.pl3     1 3Q3        -0.2547
     26 N26       -41.3440   13.1560   12.0670 N.2       1 3Q3        -0.4395
     27 N27       -45.6220   20.5300   11.7460 N.pl3     1 3Q3        -0.2835
     28 N28       -38.3940   14.2510   13.4610 N.pl3     1 3Q3        -0.2606
     29 N29       -47.1560   16.3900   10.1260 N.pl3     1 3Q3        -0.3069
     30 N30       -48.5900   23.1390    9.8060 N.am      1 3Q3        -0.2317
     31 O31       -48.5120   23.7790   12.0280 O.2       1 3Q3        -0.3819
     32 O32       -45.9310   23.1790   12.0300 O.3       1 3Q3        -0.3516
     33 H1        -53.2878   25.2488    8.8967 H         1 3Q3         0.0487
     34 H2        -52.6173   23.1846    7.7394 H         1 3Q3         0.0577
     35 H3        -51.7455   26.3286   10.4820 H         1 3Q3         0.0577
     36 H4        -39.8059   16.9672   13.4731 H         1 3Q3         0.0644
     37 H5        -41.8838   18.1616   12.9091 H         1 3Q3         0.0654
     38 H6        -50.4071   22.1924    8.1707 H         1 3Q3         0.0502
     39 H7        -49.5344   25.3380   10.9091 H         1 3Q3         0.0502
     40 H8        -43.6961   14.5953   11.4197 H         1 3Q3         0.0648
     41 H9        -43.4814   19.1397   12.4760 H         1 3Q3         0.0562
     42 H10       -45.3958   21.1860   13.7374 H         1 3Q3         0.0548
     43 H11       -43.8823   20.6504   12.9317 H         1 3Q3         0.0548
     44 H12       -47.5929   20.4249   10.9783 H         1 3Q3         0.0577
     45 H13       -47.4613   21.0538   12.6557 H         1 3Q3         0.0577
     46 H14       -44.1358   22.4866   11.2496 H         1 3Q3         0.0582
     47 H15       -44.0530   23.1539   12.9153 H         1 3Q3         0.0582
     48 H16       -46.2815   22.3717   10.1276 H         1 3Q3         0.0867
     49 H17       -39.6208   11.9624   12.4777 H         1 3Q3         0.2538
     50 H18       -38.1184   15.1923   13.7756 H         1 3Q3         0.2097
     51 H19       -37.7334   13.4654   13.5468 H         1 3Q3         0.2097
     52 H20       -47.0310   15.3812    9.9599 H         1 3Q3         0.1823
     53 H21       -48.0199   16.8594    9.8189 H         1 3Q3         0.1823
     54 H22       -48.0927   22.6941    9.0612 H         1 3Q3         0.2257
@<TRIPOS>BOND
     1    2    1 ar 
     2    3    1 ar 
     3    6    2 ar 
     4    7    3 ar 
     5    5    4 ar 
     6    4   10 ar 
     7   11    5 ar 
     8   13    6 ar 
     9   13    7 ar 
    10   11    8 ar 
    11    8   12 ar 
    12    9   14 ar 
    13   15    9 ar 
    14   12   10 ar 
    15   10   16 2  
    16   14   11 1  
    17   12   26 2  
    18   30   13 1  
    19   14   23 ar 
    20   15   24 ar 
    21   27   15 1  
    22   16   25 1  
    23   16   28 1  
    24   17   23 ar 
    25   24   17 ar 
    26   17   29 1  
    27   22   18 1  
    28   18   30 am 
    29   18   31 2  
    30   19   21 1  
    31   27   19 1  
    32   20   22 1  
    33   20   27 1  
    34   21   32 1  
    35   22   32 1  
    36   25   26 1  
    37    1   33 1  
    38    2   34 1  
    39    3   35 1  
    40    4   36 1  
    41    5   37 1  
    42    6   38 1  
    43    7   39 1  
    44    8   40 1  
    45    9   41 1  
    46   19   42 1  
    47   19   43 1  
    48   20   44 1  
    49   20   45 1  
    50   21   46 1  
    51   21   47 1  
    52   22   48 1  
    53   25   49 1  
    54   28   50 1  
    55   28   51 1  
    56   29   52 1  
    57   29   53 1  
    58   30   54 1  
@<TRIPOS>SUBSTRUCTURE
     1 3Q3         1

