### 
### Created by X-TOOL on Mon Sep 10 21:13:06 2018
### 

@<TRIPOS>MOLECULE
3qd0_ligand
   59    63     1     0     0
SMALL
GAST_HUCK


@<TRIPOS>ATOM
      1 C1        -52.8550   24.7130    9.1690 C.ar      1 3Q4        -0.0772
      2 C2        -52.2490   23.8000    8.3290 C.ar      1 3Q4        -0.0755
      3 C3        -52.1820   25.1640   10.2880 C.ar      1 3Q4        -0.0755
      4 C4        -40.8020   16.4820   13.0440 C.ar      1 3Q4        -0.0346
      5 C5        -42.0000   17.0910   12.7040 C.ar      1 3Q4        -0.0471
      6 C6        -50.9790   23.3360    8.6110 C.ar      1 3Q4        -0.0413
      7 C7        -50.9130   24.7030   10.5740 C.ar      1 3Q4        -0.0413
      8 C8        -43.0190   15.0870   11.9110 C.ar      1 3Q4        -0.0532
      9 C9        -44.5490   18.5190   12.0560 C.ar      1 3Q4        -0.0017
     10 C10       -40.7190   15.1080   12.7980 C.ar      1 3Q4         0.0787
     11 C11       -43.1010   16.4520   12.1410 C.ar      1 3Q4        -0.0012
     12 C12       -41.8260   14.4760   12.2570 C.ar      1 3Q4        -0.0481
     13 C13       -50.3160   23.7840    9.7340 C.ar      1 3Q4         0.0662
     14 C14       -44.3320   17.1860   11.7520 C.ar      1 3Q4         0.0384
     15 C15       -45.7500   19.1170   11.6860 C.ar      1 3Q4         0.1143
     16 C16       -39.7370   14.0810   12.9550 C.2       1 3Q4         0.2407
     17 C17       -46.4210   17.1120   10.7650 C.ar      1 3Q4         0.1673
     18 C18       -48.5250   23.1180   11.2570 C.2       1 3Q4         0.2087
     19 C19       -46.3510   23.2490   12.3950 C.3       1 3Q4        -0.0287
     20 C20       -44.9820   22.6120   12.6350 C.3       1 3Q4        -0.0273
     21 C21       -47.3210   21.0520   11.8320 C.3       1 3Q4         0.0522
     22 C22       -47.1510   22.4810   11.3360 C.3       1 3Q4         0.0750
     23 C23       -45.0930   21.1290   12.9980 C.3       1 3Q4         0.0405
     24 C24       -45.5760   20.9800   14.4180 C.3       1 3Q4        -0.0416
     25 N25       -45.2770   16.4850   11.1050 N.ar      1 3Q4        -0.2714
     26 N26       -46.6810   18.4020   11.0390 N.ar      1 3Q4        -0.2449
     27 N27       -40.2110   12.8990   12.5270 N.pl3     1 3Q4        -0.2547
     28 N28       -41.4590   13.1680   12.1200 N.2       1 3Q4        -0.4395
     29 N29       -45.9620   20.5170   11.9760 N.pl3     1 3Q4        -0.2852
     30 N30       -38.4790   14.2720   13.4660 N.pl3     1 3Q4        -0.2606
     31 N31       -47.4170   16.3900   10.0880 N.pl3     1 3Q4        -0.3069
     32 N32       -49.0260   23.2960    9.9890 N.am      1 3Q4        -0.2336
     33 O33       -49.1330   23.4090   12.2650 O.2       1 3Q4        -0.3845
     34 H1        -53.8537   25.0741    8.9516 H         1 3Q4         0.0487
     35 H2        -52.7707   23.4468    7.4469 H         1 3Q4         0.0577
     36 H3        -52.6539   25.8849   10.9459 H         1 3Q4         0.0577
     37 H4        -39.9777   17.0384   13.4754 H         1 3Q4         0.0644
     38 H5        -42.0867   18.1550   12.8925 H         1 3Q4         0.0654
     39 H6        -50.5038   22.6202    7.9500 H         1 3Q4         0.0502
     40 H7        -50.3882   25.0602   11.4527 H         1 3Q4         0.0502
     41 H8        -43.8441   14.5288   11.4836 H         1 3Q4         0.0648
     42 H9        -43.7905   19.0917   12.5774 H         1 3Q4         0.0562
     43 H10       -46.2082   24.2848   12.0533 H         1 3Q4         0.0294
     44 H11       -46.9157   23.2488   13.3390 H         1 3Q4         0.0294
     45 H12       -44.4834   23.1426   13.4595 H         1 3Q4         0.0289
     46 H13       -44.3801   22.7090   11.7194 H         1 3Q4         0.0289
     47 H14       -47.8915   20.4582   11.1027 H         1 3Q4         0.0553
     48 H15       -47.8418   21.0417   12.8008 H         1 3Q4         0.0553
     49 H16       -46.6453   22.5041   10.3594 H         1 3Q4         0.0564
     50 H17       -44.0993   20.6617   12.9329 H         1 3Q4         0.0558
     51 H18       -45.6524   19.9118   14.6691 H         1 3Q4         0.0252
     52 H19       -46.5641   21.4523   14.5207 H         1 3Q4         0.0252
     53 H20       -44.8640   21.4670   15.1005 H         1 3Q4         0.0252
     54 H21       -39.7248   11.9910   12.5145 H         1 3Q4         0.2538
     55 H22       -38.1854   15.2098   13.7747 H         1 3Q4         0.2097
     56 H23       -37.8276   13.4777   13.5411 H         1 3Q4         0.2097
     57 H24       -47.2657   15.3982    9.8550 H         1 3Q4         0.1823
     58 H25       -48.2989   16.8522    9.8244 H         1 3Q4         0.1823
     59 H26       -48.4420   23.0663    9.2104 H         1 3Q4         0.2257
@<TRIPOS>BOND
     1    2    1 ar 
     2    3    1 ar 
     3    6    2 ar 
     4    7    3 ar 
     5    5    4 ar 
     6    4   10 ar 
     7   11    5 ar 
     8   13    6 ar 
     9   13    7 ar 
    10   11    8 ar 
    11    8   12 ar 
    12    9   14 ar 
    13   15    9 ar 
    14   12   10 ar 
    15   10   16 2  
    16   14   11 1  
    17   12   28 2  
    18   32   13 1  
    19   14   25 ar 
    20   15   26 ar 
    21   29   15 1  
    22   16   27 1  
    23   16   30 1  
    24   17   25 ar 
    25   26   17 ar 
    26   17   31 1  
    27   22   18 1  
    28   18   32 am 
    29   18   33 2  
    30   19   20 1  
    31   22   19 1  
    32   20   23 1  
    33   21   22 1  
    34   21   29 1  
    35   23   24 1  
    36   23   29 1  
    37   27   28 1  
    38    1   34 1  
    39    2   35 1  
    40    3   36 1  
    41    4   37 1  
    42    5   38 1  
    43    6   39 1  
    44    7   40 1  
    45    8   41 1  
    46    9   42 1  
    47   19   43 1  
    48   19   44 1  
    49   20   45 1  
    50   20   46 1  
    51   21   47 1  
    52   21   48 1  
    53   22   49 1  
    54   23   50 1  
    55   24   51 1  
    56   24   52 1  
    57   24   53 1  
    58   27   54 1  
    59   30   55 1  
    60   30   56 1  
    61   31   57 1  
    62   31   58 1  
    63   32   59 1  
@<TRIPOS>SUBSTRUCTURE
     1 3Q4         1

