### 
### Created by X-TOOL on Mon Sep 10 21:13:06 2018
### 

@<TRIPOS>MOLECULE
3qd3_ligand
   62    65     1     0     0
SMALL
GAST_HUCK


@<TRIPOS>ATOM
      1 C1        -40.6660   16.4550   12.7750 C.ar      1 3Q5        -0.0346
      2 C2        -41.8590   17.0570   12.4210 C.ar      1 3Q5        -0.0471
      3 C3        -42.8460   15.0070   11.6940 C.ar      1 3Q5        -0.0532
      4 C4        -44.4420   18.3530   11.9070 C.ar      1 3Q5        -0.0017
      5 C5        -40.5730   15.0820   12.5770 C.ar      1 3Q5         0.0787
      6 C6        -42.9360   16.3710   11.8880 C.ar      1 3Q5        -0.0012
      7 C7        -41.6550   14.4070   12.0490 C.ar      1 3Q5        -0.0481
      8 C8        -44.1760   17.0560   11.5220 C.ar      1 3Q5         0.0384
      9 C9        -45.6630   18.8970   11.5510 C.ar      1 3Q5         0.1142
     10 C10       -39.5730   14.0880   12.7780 C.2       1 3Q5         0.2407
     11 C11       -46.2440   16.9380   10.5330 C.ar      1 3Q5         0.1673
     12 C12       -50.2420   21.6380   12.2420 C.2       1 3Q5         0.3203
     13 C13       -46.8400   22.4720   13.1470 C.3       1 3Q5        -0.0259
     14 C14       -45.6190   21.7220   13.6720 C.3       1 3Q5        -0.0276
     15 C15       -47.0210   20.9300   11.2520 C.3       1 3Q5         0.0550
     16 C16       -47.7830   21.5260   12.4210 C.3       1 3Q5         0.0644
     17 C17       -44.9120   20.9990   12.5490 C.3       1 3Q5         0.0403
     18 C18       -44.3720   22.0000   11.5600 C.3       1 3Q5        -0.0416
     19 C19       -52.8060   21.8810   13.4010 C.3       1 3Q5        -0.0320
     20 C20       -53.3910   23.2460   11.4280 C.3       1 3Q5        -0.0320
     21 C21       -52.8950   20.8590   11.1140 C.3       1 3Q5        -0.0320
     22 C22       -52.5490   22.0890   11.9220 C.3       1 3Q5         0.0905
     23 N23       -45.0780   16.3410   10.8320 N.ar      1 3Q5        -0.2714
     24 N24       -46.5750   18.1870   10.8750 N.ar      1 3Q5        -0.2449
     25 N25       -40.0080   12.8800   12.3970 N.pl3     1 3Q5        -0.2547
     26 N26       -41.2670   13.0950   11.9680 N.2       1 3Q5        -0.4395
     27 N27       -45.9870   20.2100   11.9740 N.pl3     1 3Q5        -0.2855
     28 N28       -38.3390   14.3720   13.2870 N.pl3     1 3Q5        -0.2606
     29 N29       -47.2060   16.2170    9.8180 N.pl3     1 3Q5        -0.3069
     30 N30       -49.0020   22.2040   12.0420 N.am      1 3Q5        -0.2575
     31 O31       -50.4770   20.5740   12.7930 O.2       1 3Q5        -0.3775
     32 O32       -51.1890   22.4510   11.7000 O.3       1 3Q5        -0.2581
     33 H1        -39.8422   17.0263   13.1874 H         1 3Q5         0.0644
     34 H2        -41.9562   18.1264   12.5693 H         1 3Q5         0.0654
     35 H3        -43.6703   14.4355   11.2830 H         1 3Q5         0.0648
     36 H4        -43.7169   18.9284   12.4711 H         1 3Q5         0.0562
     37 H5        -46.5095   23.2566   12.4505 H         1 3Q5         0.0289
     38 H6        -47.3716   22.9325   13.9927 H         1 3Q5         0.0289
     39 H7        -45.9421   20.9892   14.4261 H         1 3Q5         0.0288
     40 H8        -44.9246   22.4402   14.1325 H         1 3Q5         0.0288
     41 H9        -46.5983   21.7082   10.5995 H         1 3Q5         0.0548
     42 H10       -47.6504   20.2533   10.6554 H         1 3Q5         0.0548
     43 H11       -48.0581   20.7081   13.1032 H         1 3Q5         0.0576
     44 H12       -44.0972   20.3604   12.9210 H         1 3Q5         0.0558
     45 H13       -43.8584   21.4694   10.7447 H         1 3Q5         0.0252
     46 H14       -43.6613   22.6694   12.0667 H         1 3Q5         0.0252
     47 H15       -45.2021   22.5916   11.1467 H         1 3Q5         0.0252
     48 H16       -53.8590   21.6025   13.5545 H         1 3Q5         0.0260
     49 H17       -52.5899   22.8122   13.9452 H         1 3Q5         0.0260
     50 H18       -52.1557   21.0773   13.7767 H         1 3Q5         0.0260
     51 H19       -53.2077   23.4008   10.3545 H         1 3Q5         0.0260
     52 H20       -53.1217   24.1579   11.9811 H         1 3Q5         0.0260
     53 H21       -54.4554   23.0201   11.5893 H         1 3Q5         0.0260
     54 H22       -52.2898   20.0091   11.4626 H         1 3Q5         0.0260
     55 H23       -52.6845   21.0474   10.0509 H         1 3Q5         0.0260
     56 H24       -53.9624   20.6254   11.2406 H         1 3Q5         0.0260
     57 H25       -39.4953   11.9871   12.4255 H         1 3Q5         0.2538
     58 H26       -38.1009   15.3387   13.5511 H         1 3Q5         0.2097
     59 H27       -37.6458   13.6197   13.4070 H         1 3Q5         0.2097
     60 H28       -47.0115   15.2489    9.5251 H         1 3Q5         0.1823
     61 H29       -48.1089   16.6542    9.5844 H         1 3Q5         0.1823
     62 H30       -48.9436   23.1099   11.6226 H         1 3Q5         0.1871
@<TRIPOS>BOND
     1    2    1 ar 
     2    1    5 ar 
     3    6    2 ar 
     4    6    3 ar 
     5    3    7 ar 
     6    4    8 ar 
     7    9    4 ar 
     8    7    5 ar 
     9    5   10 2  
    10    8    6 1  
    11    7   26 2  
    12    8   23 ar 
    13    9   24 ar 
    14   27    9 1  
    15   10   25 1  
    16   10   28 1  
    17   11   23 ar 
    18   24   11 ar 
    19   11   29 1  
    20   12   30 am 
    21   12   31 2  
    22   32   12 1  
    23   13   14 1  
    24   16   13 1  
    25   14   17 1  
    26   16   15 1  
    27   15   27 1  
    28   30   16 1  
    29   17   18 1  
    30   27   17 1  
    31   22   19 1  
    32   22   20 1  
    33   22   21 1  
    34   22   32 1  
    35   25   26 1  
    36    1   33 1  
    37    2   34 1  
    38    3   35 1  
    39    4   36 1  
    40   13   37 1  
    41   13   38 1  
    42   14   39 1  
    43   14   40 1  
    44   15   41 1  
    45   15   42 1  
    46   16   43 1  
    47   17   44 1  
    48   18   45 1  
    49   18   46 1  
    50   18   47 1  
    51   19   48 1  
    52   19   49 1  
    53   19   50 1  
    54   20   51 1  
    55   20   52 1  
    56   20   53 1  
    57   21   54 1  
    58   21   55 1  
    59   21   56 1  
    60   25   57 1  
    61   28   58 1  
    62   28   59 1  
    63   29   60 1  
    64   29   61 1  
    65   30   62 1  
@<TRIPOS>SUBSTRUCTURE
     1 3Q5         1

