### 
### Created by X-TOOL on Mon Sep 10 21:13:07 2018
### 

@<TRIPOS>MOLECULE
3qd4_ligand
   62    65     1     0     0
SMALL
GAST_HUCK


@<TRIPOS>ATOM
      1 C1        -41.1240   16.4690   12.9480 C.ar      1 3Q6        -0.0346
      2 C2        -42.2820   17.1410   12.6000 C.ar      1 3Q6        -0.0471
      3 C3        -43.3400   15.1520   11.8220 C.ar      1 3Q6        -0.0532
      4 C4        -44.8070   18.5420   11.8730 C.ar      1 3Q6        -0.0018
      5 C5        -41.0830   15.0980   12.7240 C.ar      1 3Q6         0.0787
      6 C6        -43.3760   16.5110   12.0360 C.ar      1 3Q6        -0.0012
      7 C7        -42.1900   14.4870   12.1790 C.ar      1 3Q6        -0.0481
      8 C8        -44.5840   17.2070   11.6270 C.ar      1 3Q6         0.0384
      9 C9        -46.0200   19.0500   11.4440 C.ar      1 3Q6         0.1140
     10 C10       -40.1420   14.0330   12.9060 C.2       1 3Q6         0.2407
     11 C11       -46.6500   17.0150   10.6290 C.ar      1 3Q6         0.1673
     12 C12       -50.4740   21.7030   12.3330 C.2       1 3Q6         0.3203
     13 C13       -47.0460   22.5690   13.0400 C.3       1 3Q6        -0.0235
     14 C14       -45.1710   21.2820   11.9550 C.3       1 3Q6         0.0346
     15 C15       -47.4620   21.0020   11.0990 C.3       1 3Q6         0.0548
     16 C16       -45.6510   21.9650   13.2290 C.3       1 3Q6        -0.0211
     17 C17       -48.0390   21.6270   12.3570 C.3       1 3Q6         0.0646
     18 C18       -45.6720   20.9480   14.3450 C.3       1 3Q6        -0.0605
     19 C19       -53.1510   22.1240   13.4730 C.3       1 3Q6        -0.0320
     20 C20       -53.5610   23.2920   11.3170 C.3       1 3Q6        -0.0320
     21 C21       -53.1920   20.8780   11.2950 C.3       1 3Q6        -0.0320
     22 C22       -52.8070   22.1660   11.9910 C.3       1 3Q6         0.0905
     23 N23       -45.4950   16.4440   11.0000 N.ar      1 3Q6        -0.2714
     24 N24       -46.9520   18.3010   10.8420 N.ar      1 3Q6        -0.2449
     25 N25       -40.6410   12.8620   12.4980 N.pl3     1 3Q6        -0.2547
     26 N26       -41.8770   13.1570   12.0670 N.2       1 3Q6        -0.4395
     27 N27       -46.3020   20.4020   11.7270 N.pl3     1 3Q6        -0.2880
     28 N28       -38.8970   14.1940   13.4270 N.pl3     1 3Q6        -0.2606
     29 N29       -47.6110   16.2260    9.9840 N.pl3     1 3Q6        -0.3069
     30 N30       -49.2690   22.3130   12.0960 N.am      1 3Q6        -0.2575
     31 O31       -50.6600   20.6440   12.9150 O.2       1 3Q6        -0.3775
     32 O32       -51.4270   22.4970   11.7890 O.3       1 3Q6        -0.2581
     33 H1        -40.2790   16.9929   13.3799 H         1 3Q6         0.0644
     34 H2        -42.3341   18.2091   12.7774 H         1 3Q6         0.0654
     35 H3        -44.1839   14.6268   11.3895 H         1 3Q6         0.0648
     36 H4        -44.0728   19.1615   12.3752 H         1 3Q6         0.0562
     37 H5        -46.9507   23.4768   12.4261 H         1 3Q6         0.0291
     38 H6        -47.4455   22.8358   14.0296 H         1 3Q6         0.0291
     39 H7        -44.2382   20.7213   12.1143 H         1 3Q6         0.0527
     40 H8        -45.0327   21.9973   11.1309 H         1 3Q6         0.0527
     41 H9        -47.1914   21.7516   10.3409 H         1 3Q6         0.0548
     42 H10       -48.1342   20.2547   10.6522 H         1 3Q6         0.0548
     43 H11       -44.9497   22.7717   13.4884 H         1 3Q6         0.0319
     44 H12       -48.2564   20.8078   13.0581 H         1 3Q6         0.0576
     45 H13       -46.0173   21.4284   15.2724 H         1 3Q6         0.0233
     46 H14       -44.6587   20.5472   14.4950 H         1 3Q6         0.0233
     47 H15       -46.3554   20.1276   14.0807 H         1 3Q6         0.0233
     48 H16       -54.2138   21.8682   13.5956 H         1 3Q6         0.0260
     49 H17       -52.9568   23.1090   13.9226 H         1 3Q6         0.0260
     50 H18       -52.5312   21.3645   13.9719 H         1 3Q6         0.0260
     51 H19       -53.3065   23.3148   10.2471 H         1 3Q6         0.0260
     52 H20       -53.2817   24.2495   11.7808 H         1 3Q6         0.0260
     53 H21       -54.6428   23.1300   11.4331 H         1 3Q6         0.0260
     54 H22       -52.6599   20.0359   11.7616 H         1 3Q6         0.0260
     55 H23       -52.9187   20.9401   10.2313 H         1 3Q6         0.0260
     56 H24       -54.2770   20.7220   11.3864 H         1 3Q6         0.0260
     57 H25       -40.1805   11.9408   12.5114 H         1 3Q6         0.2538
     58 H26       -38.5786   15.1284   13.7210 H         1 3Q6         0.2097
     59 H27       -38.2719   13.3816   13.5278 H         1 3Q6         0.2097
     60 H28       -47.4207   15.2307    9.7996 H         1 3Q6         0.1823
     61 H29       -48.5079   16.6412    9.6941 H         1 3Q6         0.1823
     62 H30       -49.2488   23.2462   11.7373 H         1 3Q6         0.1871
@<TRIPOS>BOND
     1    2    1 ar 
     2    1    5 ar 
     3    6    2 ar 
     4    6    3 ar 
     5    3    7 ar 
     6    4    8 ar 
     7    9    4 ar 
     8    7    5 ar 
     9    5   10 2  
    10    8    6 1  
    11    7   26 2  
    12    8   23 ar 
    13    9   24 ar 
    14   27    9 1  
    15   10   25 1  
    16   10   28 1  
    17   11   23 ar 
    18   24   11 ar 
    19   11   29 1  
    20   12   30 am 
    21   12   31 2  
    22   32   12 1  
    23   13   16 1  
    24   17   13 1  
    25   16   14 1  
    26   27   14 1  
    27   17   15 1  
    28   15   27 1  
    29   16   18 1  
    30   30   17 1  
    31   22   19 1  
    32   22   20 1  
    33   22   21 1  
    34   22   32 1  
    35   25   26 1  
    36    1   33 1  
    37    2   34 1  
    38    3   35 1  
    39    4   36 1  
    40   13   37 1  
    41   13   38 1  
    42   14   39 1  
    43   14   40 1  
    44   15   41 1  
    45   15   42 1  
    46   16   43 1  
    47   17   44 1  
    48   18   45 1  
    49   18   46 1  
    50   18   47 1  
    51   19   48 1  
    52   19   49 1  
    53   19   50 1  
    54   20   51 1  
    55   20   52 1  
    56   20   53 1  
    57   21   54 1  
    58   21   55 1  
    59   21   56 1  
    60   25   57 1  
    61   28   58 1  
    62   28   59 1  
    63   29   60 1  
    64   29   61 1  
    65   30   62 1  
@<TRIPOS>SUBSTRUCTURE
     1 3Q6         1

