### 
### Created by X-TOOL on Mon Sep 10 21:13:09 2018
### 

@<TRIPOS>MOLECULE
3qdd_ligand
   37    39     1     0     0
SMALL
GAST_HUCK


@<TRIPOS>ATOM
      1 N1          1.5940   34.8750   25.7580 N.ar      1 94M        -0.2521
      2 C2          1.3230   34.2990   24.6010 C.ar      1 94M         0.1678
      3 N2          2.3430   33.8000   23.9490 N.pl3     1 94M        -0.3088
      4 N3          0.0960   34.2200   24.0790 N.ar      1 94M        -0.2473
      5 C4         -0.9480   34.7420   24.7590 C.ar      1 94M         0.1565
      6 C5         -0.7210   35.3390   26.0190 C.ar      1 94M         0.0896
      7 C6          0.5780   35.3890   26.4700 C.ar      1 94M         0.1262
      8 CL6         0.9770   36.1350   28.0080 Cl        1 94M        -0.0327
      9 N7         -1.9240   35.8120   26.4480 N.2       1 94M        -0.2991
     10 C8         -2.8620   35.4420   25.5740 C.2       1 94M         0.1109
     11 N9         -2.2570   34.8210   24.5490 N.pl3     1 94M        -0.2104
     12 CAA        -4.5440   29.4950   26.3880 C.3       1 94M         0.0589
     13 CAB        -7.1600   30.5510   24.7860 C.3       1 94M        -0.0316
     14 CAC        -2.2590   31.3860   24.3800 C.3       1 94M        -0.0312
     15 CAF        -6.2670   32.7750   23.9830 C.ar      1 94M        -0.0142
     16 CAH        -2.9480   34.2740   23.3670 C.3       1 94M         0.1009
     17 NAI        -5.2630   33.6260   23.6720 N.ar      1 94M        -0.3265
     18 OAM        -4.4450   29.7890   25.0020 O.3       1 94M        -0.3207
     19 CAN        -6.0190   31.4930   24.4680 C.ar      1 94M        -0.0029
     20 CAP        -3.6860   31.9250   24.2390 C.ar      1 94M         0.0084
     21 CAR        -3.9870   33.2430   23.7850 C.ar      1 94M         0.0415
     22 CAS        -4.7130   31.0540   24.5460 C.ar      1 94M         0.1076
     23 H1          3.2898   33.8600   24.3500 H         1 94M         0.1809
     24 H2          2.1985   33.3474   23.0351 H         1 94M         0.1809
     25 H3         -3.9326   35.6140   25.6747 H         1 94M         0.1349
     26 H4         -4.2932   28.4374   26.5573 H         1 94M         0.0577
     27 H5         -5.5711   29.6877   26.7313 H         1 94M         0.0577
     28 H6         -3.8443   30.1320   26.9489 H         1 94M         0.0577
     29 H7         -8.1167   31.0810   24.6682 H         1 94M         0.0369
     30 H8         -7.0635   30.1947   25.8222 H         1 94M         0.0369
     31 H9         -7.1293   29.6927   24.0988 H         1 94M         0.0369
     32 H10        -1.5410   32.1735   24.1074 H         1 94M         0.0365
     33 H11        -2.1259   30.5216   23.7128 H         1 94M         0.0365
     34 H12        -2.0853   31.0759   25.4210 H         1 94M         0.0365
     35 H13        -7.2929   33.0995   23.8512 H         1 94M         0.0643
     36 H14        -2.2103   33.7964   22.7055 H         1 94M         0.0775
     37 H15        -3.4473   35.0930   22.8286 H         1 94M         0.0775
@<TRIPOS>BOND
     1    2    1 ar 
     2    7    1 ar 
     3    2    3 1  
     4    4    2 ar 
     5    5    4 ar 
     6    5    6 ar 
     7   11    5 1  
     8    6    7 ar 
     9    9    6 1  
    10    7    8 1  
    11   10    9 2  
    12   11   10 1  
    13   16   11 1  
    14   18   12 1  
    15   19   13 1  
    16   20   14 1  
    17   17   15 ar 
    18   15   19 ar 
    19   21   16 1  
    20   21   17 ar 
    21   22   18 1  
    22   19   22 ar 
    23   20   21 ar 
    24   20   22 ar 
    25    3   23 1  
    26    3   24 1  
    27   10   25 1  
    28   12   26 1  
    29   12   27 1  
    30   12   28 1  
    31   13   29 1  
    32   13   30 1  
    33   13   31 1  
    34   14   32 1  
    35   14   33 1  
    36   14   34 1  
    37   15   35 1  
    38   16   36 1  
    39   16   37 1  
@<TRIPOS>SUBSTRUCTURE
     1 94M         1

