### 
### Created by X-TOOL on Mon Sep 10 21:13:05 2018
### 

@<TRIPOS>MOLECULE
3qfd_ligand
  124   123     1     0     0
SMALL
GAST_HUCK


@<TRIPOS>ATOM
      1 N          20.2160   -7.2560   44.1390 N.4       1 ALA         0.2377
      2 CA         21.4180   -6.4200   44.4330 C.3       1 ALA         0.0621
      3 C          22.3310   -6.3770   43.2160 C.2       1 ALA         0.2264
      4 O          22.4340   -7.3610   42.4560 O.2       1 ALA        -0.3907
      5 CB         22.1540   -6.9490   45.6140 C.3       1 ALA        -0.0040
      6 N          23.0150   -5.2480   43.0300 N.am      1 ALA        -0.2613
      7 CA         23.8140   -5.0400   41.8210 C.3       1 ALA         0.1283
      8 C          25.1710   -5.7580   41.8980 C.2       1 ALA         0.2034
      9 O          25.5750   -6.3150   42.9590 O.2       1 ALA        -0.3944
     10 CB         24.0100   -3.5140   41.5800 C.3       1 ALA        -0.0244
     11 N          25.8920   -5.7090   40.7840 N.am      1 GLY        -0.2664
     12 CA         27.1950   -6.3730   40.6680 C.3       1 GLY         0.1201
     13 C          28.3970   -5.5730   41.1250 C.2       1 GLY         0.2008
     14 O          28.3420   -4.3680   41.3580 O.2       1 GLY        -0.3947
     15 N          29.4860   -6.3000   41.3160 N.am      1 ILE        -0.2637
     16 CA         30.7880   -5.7200   41.4910 C.3       1 ILE         0.1335
     17 C          31.6790   -6.3580   40.4150 C.2       1 ILE         0.2040
     18 O          31.2360   -7.2240   39.6530 O.2       1 ILE        -0.3944
     19 CB         31.3530   -5.9860   42.9050 C.3       1 ILE        -0.0037
     20 CG1        31.5410   -7.4880   43.1430 C.3       1 ILE        -0.0491
     21 CG2        30.4870   -5.3260   43.9760 C.3       1 ILE        -0.0582
     22 CD1        32.4800   -7.8240   44.3070 C.3       1 ILE        -0.0648
     23 N          32.9200   -5.9260   40.3080 N.am      1 GLY        -0.2664
     24 CA         33.7620   -6.4820   39.2350 C.3       1 GLY         0.1201
     25 C          33.5690   -5.7940   37.8980 C.2       1 GLY         0.2008
     26 O          33.8710   -6.3580   36.8320 O.2       1 GLY        -0.3947
     27 N          33.0680   -4.5640   37.9570 N.am      1 ILE        -0.2637
     28 CA         32.7420   -3.8010   36.7680 C.3       1 ILE         0.1335
     29 C          33.9740   -2.9600   36.4090 C.2       1 ILE         0.2042
     30 O          34.3450   -2.0220   37.1300 O.2       1 ILE        -0.3944
     31 CB         31.5090   -2.8950   37.0430 C.3       1 ILE        -0.0037
     32 CG1        30.2880   -3.7470   37.4550 C.3       1 ILE        -0.0491
     33 CG2        31.2580   -1.8690   35.9130 C.3       1 ILE        -0.0582
     34 CD1        29.9530   -4.8770   36.5350 C.3       1 ILE        -0.0648
     35 N          34.6040   -3.3160   35.2960 N.am      1 LEU        -0.2637
     36 CA         35.8680   -2.6860   34.8860 C.3       1 LEU         0.1312
     37 C          35.6480   -1.7090   33.7620 C.2       1 LEU         0.2040
     38 O          34.7220   -1.8420   32.9730 O.2       1 LEU        -0.3944
     39 CB         36.8900   -3.7400   34.4240 C.3       1 LEU        -0.0101
     40 CG         38.0040   -4.0970   35.3950 C.3       1 LEU        -0.0425
     41 CD1        37.4380   -4.8380   36.5970 C.3       1 LEU        -0.0625
     42 CD2        39.1000   -4.8940   34.6970 C.3       1 LEU        -0.0625
     43 N          36.5600   -0.7580   33.6630 N.am      1 THR        -0.2613
     44 CA         36.5610    0.1830   32.5500 C.3       1 THR         0.1564
     45 C          36.8330   -0.5240   31.2120 C.2       1 THR         0.2059
     46 O          37.5880   -1.4940   31.1500 O.2       1 THR        -0.3943
     47 CB         37.6040    1.3340   32.7910 C.3       1 THR         0.0924
     48 OG1        38.8850    0.7680   33.0650 O.3       1 THR        -0.3874
     49 CG2        37.1810    2.2310   33.9830 C.3       1 THR        -0.0346
     50 N          36.2250   -0.0070   30.1550 N.am      1 VAL        -0.2692
     51 CA         36.4600   -0.4880   28.8060 C.3       1 VAL         0.0967
     52 C          37.8480   -0.1560   28.2210 C.2       1 VAL         0.0603
     53 O          38.6380    0.6560   28.7980 O.co2     1 VAL        -0.5666
     54 CB         35.3720   -0.0130   27.8390 C.3       1 VAL        -0.0118
     55 CG1        33.9810   -0.4260   28.3220 C.3       1 VAL        -0.0590
     56 CG2        35.4980    1.5180   27.5840 C.3       1 VAL        -0.0590
     57 OXT        38.2380   -0.7180   27.1530 O.co2     1 VAL        -0.5666
     58 H1         19.6168   -7.2795   44.9492 H         1 ALA         0.2015
     59 H2         20.5067   -8.1933   43.9088 H         1 ALA         0.2015
     60 H3         19.7131   -6.8595   43.3606 H         1 ALA         0.2015
     61 H4         21.0855   -5.3962   44.6595 H         1 ALA         0.1095
     62 H5         23.0334   -6.3182   45.8107 H         1 ALA         0.0310
     63 H6         22.4801   -7.9798   45.4113 H         1 ALA         0.0310
     64 H7         21.4923   -6.9398   46.4927 H         1 ALA         0.0310
     65 H8         22.9818   -4.5319   43.7272 H         1 ALA         0.1884
     66 H9         23.2588   -5.4570   40.9679 H         1 ALA         0.0797
     67 H10        24.6105   -3.3605   40.6712 H         1 ALA         0.0277
     68 H11        24.5296   -3.0704   42.4421 H         1 ALA         0.0277
     69 H12        23.0284   -3.0332   41.4563 H         1 ALA         0.0277
     70 H13        25.5352   -5.2031   39.9987 H         1 GLY         0.1881
     71 H14        27.3468   -6.6314   39.6096 H         1 GLY         0.0763
     72 H15        27.1569   -7.2938   41.2685 H         1 GLY         0.0763
     73 H16        29.3986   -7.2959   41.3395 H         1 ILE         0.1883
     74 H17        30.7326   -4.6328   41.3334 H         1 ILE         0.0803
     75 H18        32.3480   -5.5199   42.9581 H         1 ILE         0.0345
     76 H19        31.9539   -7.9341   42.2262 H         1 ILE         0.0267
     77 H20        30.5563   -7.9302   43.3547 H         1 ILE         0.0267
     78 H21        30.3860   -4.2530   43.7559 H         1 ILE         0.0235
     79 H22        30.9596   -5.4554   44.9608 H         1 ILE         0.0235
     80 H23        29.4916   -5.7942   43.9826 H         1 ILE         0.0235
     81 H24        32.5601   -8.9162   44.4099 H         1 ILE         0.0230
     82 H25        32.0781   -7.3966   45.2375 H         1 ILE         0.0230
     83 H26        33.4757   -7.4004   44.1089 H         1 ILE         0.0230
     84 H27        33.2802   -5.2388   40.9389 H         1 GLY         0.1881
     85 H28        33.5169   -7.5478   39.1168 H         1 GLY         0.0763
     86 H29        34.8164   -6.3788   39.5308 H         1 GLY         0.0763
     87 H30        32.9103   -4.1502   38.8536 H         1 ILE         0.1883
     88 H31        32.5082   -4.4848   35.9387 H         1 ILE         0.0803
     89 H32        31.7621   -2.2931   37.9282 H         1 ILE         0.0345
     90 H33        29.4131   -3.0824   37.5082 H         1 ILE         0.0267
     91 H34        30.4892   -4.1688   38.4508 H         1 ILE         0.0267
     92 H35        32.1883   -1.3214   35.7017 H         1 ILE         0.0235
     93 H36        30.4785   -1.1597   36.2282 H         1 ILE         0.0235
     94 H37        30.9288   -2.3962   35.0055 H         1 ILE         0.0235
     95 H38        29.0736   -5.4145   36.9195 H         1 ILE         0.0230
     96 H39        30.8075   -5.5672   36.4756 H         1 ILE         0.0230
     97 H40        29.7313   -4.4808   35.5331 H         1 ILE         0.0230
     98 H41        34.2083   -4.0320   34.7208 H         1 LEU         0.1883
     99 H42        36.2813   -2.1457   35.7505 H         1 LEU         0.0800
    100 H43        37.3606   -3.3641   33.5036 H         1 LEU         0.0315
    101 H44        36.3358   -4.6638   34.2016 H         1 LEU         0.0315
    102 H45        38.4521   -3.1603   35.7579 H         1 LEU         0.0298
    103 H46        38.2542   -5.0897   37.2902 H         1 LEU         0.0232
    104 H47        36.9455   -5.7619   36.2596 H         1 LEU         0.0232
    105 H48        36.7051   -4.1982   37.1104 H         1 LEU         0.0232
    106 H49        39.4785   -4.3217   33.8372 H         1 LEU         0.0232
    107 H50        38.6900   -5.8529   34.3473 H         1 LEU         0.0232
    108 H51        39.9225   -5.0824   35.4027 H         1 LEU         0.0232
    109 H52        37.2655   -0.6822   34.3677 H         1 THR         0.1884
    110 H53        35.5610    0.6377   32.4935 H         1 THR         0.0826
    111 H54        37.6670    1.9524   31.8835 H         1 THR         0.0639
    112 H55        38.8298    0.2231   33.8413 H         1 THR         0.2101
    113 H56        37.9281    3.0254   34.1272 H         1 THR         0.0257
    114 H57        37.1141    1.6206   34.8956 H         1 THR         0.0257
    115 H58        36.2009    2.6834   33.7717 H         1 THR         0.0257
    116 H59        35.5789    0.7439   30.2917 H         1 VAL         0.1875
    117 H60        36.3955   -1.5849   28.8570 H         1 VAL         0.0729
    118 H61        35.5416   -0.5175   26.8763 H         1 VAL         0.0336
    119 H62        33.2242   -0.0706   27.6072 H         1 VAL         0.0234
    120 H63        33.7891    0.0178   29.3100 H         1 VAL         0.0234
    121 H64        33.9291   -1.5223   28.3961 H         1 VAL         0.0234
    122 H65        36.5169    1.7498   27.2402 H         1 VAL         0.0234
    123 H66        35.2930    2.0633   28.5171 H         1 VAL         0.0234
    124 H67        34.7733    1.8225   26.8145 H         1 VAL         0.0234
@<TRIPOS>BOND
     1    1    2 1  
     2    2    3 1  
     3    2    5 1  
     4    3    4 2  
     5    3    6 am 
     6    6    7 1  
     7    7    8 1  
     8    7   10 1  
     9    8    9 2  
    10    8   11 am 
    11   11   12 1  
    12   12   13 1  
    13   13   14 2  
    14   13   15 am 
    15   15   16 1  
    16   16   17 1  
    17   16   19 1  
    18   17   18 2  
    19   17   23 am 
    20   19   20 1  
    21   19   21 1  
    22   20   22 1  
    23   23   24 1  
    24   24   25 1  
    25   25   26 2  
    26   25   27 am 
    27   27   28 1  
    28   28   29 1  
    29   28   31 1  
    30   29   30 2  
    31   29   35 am 
    32   31   32 1  
    33   31   33 1  
    34   32   34 1  
    35   35   36 1  
    36   36   37 1  
    37   36   39 1  
    38   37   38 2  
    39   37   43 am 
    40   39   40 1  
    41   40   41 1  
    42   40   42 1  
    43   43   44 1  
    44   44   45 1  
    45   44   47 1  
    46   45   46 2  
    47   45   50 am 
    48   47   48 1  
    49   47   49 1  
    50   50   51 1  
    51   51   52 1  
    52   51   54 1  
    53   52   53 ar 
    54   52   57 ar 
    55   54   55 1  
    56   54   56 1  
    57    1   58 1  
    58    1   59 1  
    59    1   60 1  
    60    2   61 1  
    61    5   62 1  
    62    5   63 1  
    63    5   64 1  
    64    6   65 1  
    65    7   66 1  
    66   10   67 1  
    67   10   68 1  
    68   10   69 1  
    69   11   70 1  
    70   12   71 1  
    71   12   72 1  
    72   15   73 1  
    73   16   74 1  
    74   19   75 1  
    75   20   76 1  
    76   20   77 1  
    77   21   78 1  
    78   21   79 1  
    79   21   80 1  
    80   22   81 1  
    81   22   82 1  
    82   22   83 1  
    83   23   84 1  
    84   24   85 1  
    85   24   86 1  
    86   27   87 1  
    87   28   88 1  
    88   31   89 1  
    89   32   90 1  
    90   32   91 1  
    91   33   92 1  
    92   33   93 1  
    93   33   94 1  
    94   34   95 1  
    95   34   96 1  
    96   34   97 1  
    97   35   98 1  
    98   36   99 1  
    99   39  100 1  
   100   39  101 1  
   101   40  102 1  
   102   41  103 1  
   103   41  104 1  
   104   41  105 1  
   105   42  106 1  
   106   42  107 1  
   107   42  108 1  
   108   43  109 1  
   109   44  110 1  
   110   47  111 1  
   111   48  112 1  
   112   49  113 1  
   113   49  114 1  
   114   49  115 1  
   115   50  116 1  
   116   51  117 1  
   117   54  118 1  
   118   55  119 1  
   119   55  120 1  
   120   55  121 1  
   121   56  122 1  
   122   56  123 1  
   123   56  124 1  
@<TRIPOS>SUBSTRUCTURE
     1 ALA         1

