### 
### Created by X-TOOL on Mon Sep 10 21:13:05 2018
### 

@<TRIPOS>MOLECULE
3qfy_ligand
   24    24     1     0     0
SMALL
GAST_HUCK


@<TRIPOS>ATOM
      1 O4         12.8150   42.3740   86.0380 O.3       1 IFM        -0.3885
      2 C4         11.6720   42.8820   85.3420 C.3       1 IFM         0.0958
      3 C3         12.1580   44.1980   84.7560 C.3       1 IFM         0.1209
      4 O3         12.5540   45.0020   85.8530 O.3       1 IFM        -0.3839
      5 C2         11.0630   44.8920   83.9300 C.3       1 IFM        -0.0045
      6 N          10.5560   43.9510   82.8790 N.4       1 IFM         0.2292
      7 C1         10.0680   42.6610   83.4050 C.3       1 IFM        -0.0261
      8 C5         11.1830   41.9710   84.1970 C.3       1 IFM         0.0507
      9 C6         10.7160   40.5520   84.6230 C.3       1 IFM         0.0543
     10 O6          9.4040   40.5890   85.1810 O.3       1 IFM        -0.3945
     11 H1         12.5956   41.5416   86.4397 H         1 IFM         0.2099
     12 H2         10.8441   43.0462   86.0474 H         1 IFM         0.0626
     13 H3         13.0236   44.0115   84.1033 H         1 IFM         0.0673
     14 H4         12.8671   45.8399   85.5333 H         1 IFM         0.2101
     15 H5         11.4802   45.7887   83.4485 H         1 IFM         0.0840
     16 H6         10.2340   45.1832   84.5917 H         1 IFM         0.0840
     17 H7         11.3068   43.7649   82.2327 H         1 IFM         0.2014
     18 H8          9.7970   44.4009   82.3917 H         1 IFM         0.2014
     19 H9          9.7621   42.0169   82.5675 H         1 IFM         0.0818
     20 H10         9.2062   42.8379   84.0653 H         1 IFM         0.0818
     21 H11        12.0387   41.8323   83.5198 H         1 IFM         0.0401
     22 H12        11.4146   40.1542   85.3739 H         1 IFM         0.0562
     23 H13        10.7127   39.8950   83.7408 H         1 IFM         0.0562
     24 H14         8.7958   40.9284   84.5349 H         1 IFM         0.2094
@<TRIPOS>BOND
     1    1    2 1  
     2    2    3 1  
     3    2    8 1  
     4    3    4 1  
     5    3    5 1  
     6    5    6 1  
     7    6    7 1  
     8    7    8 1  
     9    8    9 1  
    10    9   10 1  
    11    1   11 1  
    12    2   12 1  
    13    3   13 1  
    14    4   14 1  
    15    5   15 1  
    16    5   16 1  
    17    6   17 1  
    18    6   18 1  
    19    7   19 1  
    20    7   20 1  
    21    8   21 1  
    22    9   22 1  
    23    9   23 1  
    24   10   24 1  
@<TRIPOS>SUBSTRUCTURE
     1 IFM         1

