### 
### Created by X-TOOL on Mon Sep 10 21:13:05 2018
### 

@<TRIPOS>MOLECULE
3qfz_ligand
   25    25     1     0     0
SMALL
GAST_HUCK


@<TRIPOS>ATOM
      1 C1         10.8350   43.9170   82.5760 C.3       1 NOJ        -0.0040
      2 C2         11.3620   44.9720   83.5590 C.3       1 NOJ         0.1231
      3 O2         11.9690   46.0440   82.8080 O.3       1 NOJ        -0.3838
      4 C3         12.2830   44.3900   84.6690 C.3       1 NOJ         0.1171
      5 O3         12.5710   45.3870   85.6880 O.3       1 NOJ        -0.3862
      6 C4         11.6850   43.1410   85.3430 C.3       1 NOJ         0.1280
      7 O4         12.7260   42.6810   86.1960 O.3       1 NOJ        -0.3835
      8 C5         11.2800   42.0950   84.2970 C.3       1 NOJ         0.0301
      9 N5         10.3750   42.7380   83.3330 N.4       1 NOJ         0.2346
     10 C6         10.7430   40.7680   84.8180 C.3       1 NOJ         0.0893
     11 O6          9.4190   40.9330   85.3150 O.3       1 NOJ        -0.3894
     12 H1         11.6398   43.6211   81.8870 H         1 NOJ         0.0840
     13 H2          9.9958   44.3359   82.0013 H         1 NOJ         0.0840
     14 H3         10.4887   45.3946   84.0774 H         1 NOJ         0.0674
     15 H4         12.2985   46.7026   83.4082 H         1 NOJ         0.2101
     16 H5         13.2313   44.0981   84.1941 H         1 NOJ         0.0649
     17 H6         13.0085   46.1295   85.2883 H         1 NOJ         0.2100
     18 H7         10.7990   43.4105   85.9367 H         1 NOJ         0.0678
     19 H8         12.4360   41.9021   86.6561 H         1 NOJ         0.2102
     20 H9         12.1997   41.8388   83.7506 H         1 NOJ         0.0900
     21 H10        10.1221   42.0357   82.6556 H         1 NOJ         0.2019
     22 H11         9.5547   43.0212   83.8457 H         1 NOJ         0.2019
     23 H12        11.3927   40.4065   85.6287 H         1 NOJ         0.0614
     24 H13        10.7346   40.0332   83.9995 H         1 NOJ         0.0614
     25 H14         8.8558   41.2435   84.6157 H         1 NOJ         0.2097
@<TRIPOS>BOND
     1    1    2 1  
     2    1    9 1  
     3    2    3 1  
     4    2    4 1  
     5    4    5 1  
     6    4    6 1  
     7    6    7 1  
     8    6    8 1  
     9    8    9 1  
    10    8   10 1  
    11   10   11 1  
    12    1   12 1  
    13    1   13 1  
    14    2   14 1  
    15    3   15 1  
    16    4   16 1  
    17    5   17 1  
    18    6   18 1  
    19    7   19 1  
    20    8   20 1  
    21    9   21 1  
    22    9   22 1  
    23   10   23 1  
    24   10   24 1  
    25   11   25 1  
@<TRIPOS>SUBSTRUCTURE
     1 NOJ         1

