### 
### Created by X-TOOL on Mon Sep 10 21:13:06 2018
### 

@<TRIPOS>MOLECULE
3qg6_ligand
  114   116     1     0     0
SMALL
GAST_HUCK


@<TRIPOS>ATOM
      1 N           9.9890  -12.0320  -46.1550 N.4       1 SER         0.2396
      2 CA         10.4590  -12.3480  -44.8160 C.3       1 SER         0.0885
      3 C          11.0390  -11.1600  -44.0830 C.2       1 SER         0.2291
      4 O          12.1260  -10.7080  -44.4010 O.2       1 SER        -0.3906
      5 CB         11.4730  -13.4790  -44.9020 C.3       1 SER         0.1041
      6 OG         11.4920  -14.1650  -43.6480 O.3       1 SER        -0.3870
      7 N          10.3120  -10.6420  -43.0860 N.am      1 THR        -0.2585
      8 CA         10.7180   -9.4910  -42.2780 C.3       1 THR         0.1566
      9 C          12.0490   -9.6360  -41.5770 C.2       1 THR         0.2065
     10 O          12.8490   -8.7210  -41.6220 O.2       1 THR        -0.3943
     11 CB          9.6400   -9.1860  -41.2420 C.3       1 THR         0.0924
     12 OG1         9.3010  -10.3590  -40.4890 O.3       1 THR        -0.3874
     13 CG2         8.4000   -8.6320  -41.9300 C.3       1 THR        -0.0346
     14 N          12.2640  -10.7760  -40.9210 N.am      1 CYS        -0.2627
     15 CA         13.4820  -11.1050  -40.2050 C.3       1 CYS         0.1422
     16 C          14.2150  -12.1470  -41.0080 C.2       1 CYS         0.2050
     17 O          13.7420  -13.2680  -41.1290 O.2       1 CYS        -0.3943
     18 CB         13.0610  -11.5740  -38.8220 C.3       1 CYS         0.0538
     19 SG         14.4170  -12.0090  -37.7790 S.3       1 CYS        -0.0431
     20 N          15.3580  -11.7550  -41.5910 N.am      1 TYR        -0.2621
     21 CA         16.1550  -12.6020  -42.4710 C.3       1 TYR         0.1390
     22 C          17.0340  -13.6650  -41.8650 C.2       1 TYR         0.2059
     23 O          17.1230  -14.7570  -42.4220 O.2       1 TYR        -0.3942
     24 CB         17.0170  -11.6570  -43.3110 C.3       1 TYR         0.0163
     25 CG         17.7050  -12.3220  -44.4860 C.ar      1 TYR        -0.0493
     26 CD1        16.9840  -12.9720  -45.4820 C.ar      1 TYR        -0.0685
     27 CD2        19.0900  -12.2670  -44.5660 C.ar      1 TYR        -0.0685
     28 CE1        17.6590  -13.5660  -46.5550 C.ar      1 TYR        -0.0398
     29 CE2        19.7710  -12.8520  -45.6240 C.ar      1 TYR        -0.0398
     30 CZ         19.0600  -13.5060  -46.6260 C.ar      1 TYR         0.0805
     31 OH         19.7440  -14.0610  -47.6740 O.3       1 TYR        -0.3376
     32 N          17.7010  -13.3420  -40.7510 N.am      1 PHE        -0.2618
     33 CA         18.6330  -14.2370  -40.0800 C.3       1 PHE         0.1404
     34 C          18.1120  -14.7200  -38.7580 C.2       1 PHE         0.2060
     35 O          17.4880  -15.7680  -38.7400 O.2       1 PHE        -0.3942
     36 CB         19.9560  -13.4680  -40.0350 C.3       1 PHE         0.0214
     37 CG         21.0650  -14.1540  -39.2680 C.ar      1 PHE        -0.0386
     38 CD1        21.4040  -15.4780  -39.5440 C.ar      1 PHE        -0.0601
     39 CD2        21.7540  -13.4510  -38.2740 C.ar      1 PHE        -0.0601
     40 CE1        22.4380  -16.0950  -38.8310 C.ar      1 PHE        -0.0686
     41 CE2        22.7860  -14.0720  -37.5640 C.ar      1 PHE        -0.0686
     42 CZ         23.1280  -15.3990  -37.8400 C.ar      1 PHE        -0.0687
     43 N          18.3660  -13.9990  -37.6670 N.am      1 ILE        -0.2633
     44 CA         17.8780  -14.3710  -36.3410 C.3       1 ILE         0.1335
     45 C          16.9600  -13.3220  -35.7600 C.2       1 ILE         0.2042
     46 O          16.2300  -13.6310  -34.8400 O.2       1 ILE        -0.3944
     47 CB         18.9800  -14.7820  -35.3690 C.3       1 ILE        -0.0037
     48 CG1        19.9020  -13.6350  -34.9570 C.3       1 ILE        -0.0491
     49 CG2        19.7390  -15.9620  -35.9530 C.3       1 ILE        -0.0582
     50 CD1        20.9810  -14.1290  -34.0130 C.3       1 ILE        -0.0648
     51 N          16.9560  -12.0990  -36.2840 N.am      1 MET        -0.2639
     52 CA         16.0350  -11.0810  -35.8070 C.3       1 MET         0.1261
     53 C          15.0620  -10.7250  -36.9220 C.2       1 MET         0.1897
     54 O          14.7310   -9.5750  -37.1880 O.2       1 MET        -0.3766
     55 CB         16.7580   -9.9080  -35.1640 C.3       1 MET        -0.0036
     56 CG         17.4310  -10.3790  -33.8790 C.3       1 MET        -0.0023
     57 SD         18.1900   -8.9790  -33.1140 S.3       1 MET        -0.1639
     58 CE         19.3350   -9.5230  -31.8810 C.3       1 MET        -0.0181
     59 H1          9.6166  -12.8639  -46.5854 H         1 SER         0.2016
     60 H2         10.7568  -11.6831  -46.7070 H         1 SER         0.2016
     61 H3          9.2677  -11.3300  -46.1010 H         1 SER         0.2016
     62 H4          9.5959  -12.7029  -44.2337 H         1 SER         0.1122
     63 H5         12.4707  -13.0679  -45.1156 H         1 SER         0.0640
     64 H6         11.1847  -14.1763  -45.7024 H         1 SER         0.0640
     65 H7         12.1217  -14.8753  -43.6864 H         1 SER         0.2099
     66 H8          9.4322  -11.0700  -42.8791 H         1 THR         0.1885
     67 H9         10.7991   -8.6299  -42.9576 H         1 THR         0.0826
     68 H10        10.0279   -8.4259  -40.5479 H         1 THR         0.0639
     69 H11         8.6296  -10.1424  -39.8527 H         1 THR         0.2101
     70 H12         7.6286   -8.4151  -41.1764 H         1 THR         0.0257
     71 H13         8.0153   -9.3738  -42.6454 H         1 THR         0.0257
     72 H14         8.6601   -7.7069  -42.4652 H         1 THR         0.0257
     73 H15        11.5305  -11.4557  -40.9225 H         1 CYS         0.1884
     74 H16        14.1214  -10.2155  -40.1052 H         1 CYS         0.0810
     75 H17        12.4135  -12.4559  -38.9362 H         1 CYS         0.0452
     76 H18        12.4957  -10.7643  -38.3375 H         1 CYS         0.0452
     77 H19        15.6829  -10.8265  -41.4114 H         1 TYR         0.1885
     78 H20        15.4503  -13.1249  -43.1343 H         1 TYR         0.0821
     79 H21        17.7898  -11.2239  -42.6590 H         1 TYR         0.0453
     80 H22        16.3720  -10.8545  -43.6982 H         1 TYR         0.0453
     81 H23        15.9024  -13.0185  -45.4276 H         1 TYR         0.0530
     82 H24        19.6488  -11.7584  -43.7887 H         1 TYR         0.0530
     83 H25        17.0991  -14.0732  -47.3324 H         1 TYR         0.0525
     84 H26        20.8528  -12.7999  -45.6700 H         1 TYR         0.0525
     85 H27        19.1286  -14.4686  -48.2720 H         1 TYR         0.2458
     86 H28        17.5510  -12.4351  -40.3572 H         1 PHE         0.1885
     87 H29        18.7788  -15.1297  -40.7059 H         1 PHE         0.0823
     88 H30        19.7681  -12.4917  -39.5643 H         1 PHE         0.0474
     89 H31        20.2987  -13.3166  -41.0692 H         1 PHE         0.0474
     90 H32        20.8679  -16.0280  -40.3090 H         1 PHE         0.0557
     91 H33        21.4875  -12.4236  -38.0540 H         1 PHE         0.0557
     92 H34        22.7044  -17.1224  -39.0512 H         1 PHE         0.0599
     93 H35        23.3220  -13.5234  -36.7980 H         1 PHE         0.0599
     94 H36        23.9245  -15.8835  -37.2870 H         1 PHE         0.0559
     95 H37        18.9141  -13.1677  -37.7595 H         1 ILE         0.1883
     96 H38        17.2605  -15.2691  -36.4896 H         1 ILE         0.0803
     97 H39        18.4875  -15.1307  -34.4493 H         1 ILE         0.0345
     98 H40        19.3089  -12.8579  -34.4527 H         1 ILE         0.0267
     99 H41        20.3744  -13.2106  -35.8552 H         1 ILE         0.0267
    100 H42        19.0280  -16.7541  -36.2306 H         1 ILE         0.0235
    101 H43        20.4461  -16.3497  -35.2049 H         1 ILE         0.0235
    102 H44        20.2922  -15.6364  -36.8463 H         1 ILE         0.0235
    103 H45        21.6325  -13.2893  -33.7293 H         1 ILE         0.0230
    104 H46        21.5794  -14.9043  -34.5137 H         1 ILE         0.0230
    105 H47        20.5139  -14.5516  -33.1112 H         1 ILE         0.0230
    106 H48        17.5974  -11.8766  -37.0183 H         1 MET         0.1884
    107 H49        15.4351  -11.5381  -35.0063 H         1 MET         0.0801
    108 H50        16.0347   -9.1128  -34.9306 H         1 MET         0.0321
    109 H51        17.5188   -9.5198  -35.8571 H         1 MET         0.0321
    110 H52        18.1943  -11.1356  -34.1132 H         1 MET         0.0378
    111 H53        16.6803  -10.8128  -33.2020 H         1 MET         0.0378
    112 H54        19.8057   -8.6492  -31.4067 H         1 MET         0.0340
    113 H55        20.1097  -10.1473  -32.3500 H         1 MET         0.0340
    114 H56        18.8018  -10.1107  -31.1193 H         1 MET         0.0340
@<TRIPOS>BOND
     1    1    2 1  
     2    2    3 1  
     3    2    5 1  
     4    3    4 2  
     5    3    7 am 
     6    5    6 1  
     7    7    8 1  
     8    8    9 1  
     9    8   11 1  
    10    9   10 2  
    11    9   14 am 
    12   11   12 1  
    13   11   13 1  
    14   14   15 1  
    15   15   16 1  
    16   15   18 1  
    17   16   17 2  
    18   16   20 am 
    19   18   19 1  
    20   19   53 1  
    21   20   21 1  
    22   21   22 1  
    23   21   24 1  
    24   22   23 2  
    25   22   32 am 
    26   24   25 1  
    27   25   26 ar 
    28   25   27 ar 
    29   26   28 ar 
    30   27   29 ar 
    31   28   30 ar 
    32   29   30 ar 
    33   30   31 1  
    34   32   33 1  
    35   33   34 1  
    36   33   36 1  
    37   34   35 2  
    38   34   43 am 
    39   36   37 1  
    40   37   38 ar 
    41   37   39 ar 
    42   38   40 ar 
    43   39   41 ar 
    44   40   42 ar 
    45   41   42 ar 
    46   43   44 1  
    47   44   45 1  
    48   44   47 1  
    49   45   46 2  
    50   45   51 am 
    51   47   48 1  
    52   47   49 1  
    53   48   50 1  
    54   51   52 1  
    55   52   53 1  
    56   52   55 1  
    57   53   54 2  
    58   55   56 1  
    59   56   57 1  
    60   57   58 1  
    61    1   59 1  
    62    1   60 1  
    63    1   61 1  
    64    2   62 1  
    65    5   63 1  
    66    5   64 1  
    67    6   65 1  
    68    7   66 1  
    69    8   67 1  
    70   11   68 1  
    71   12   69 1  
    72   13   70 1  
    73   13   71 1  
    74   13   72 1  
    75   14   73 1  
    76   15   74 1  
    77   18   75 1  
    78   18   76 1  
    79   20   77 1  
    80   21   78 1  
    81   24   79 1  
    82   24   80 1  
    83   26   81 1  
    84   27   82 1  
    85   28   83 1  
    86   29   84 1  
    87   31   85 1  
    88   32   86 1  
    89   33   87 1  
    90   36   88 1  
    91   36   89 1  
    92   38   90 1  
    93   39   91 1  
    94   40   92 1  
    95   41   93 1  
    96   42   94 1  
    97   43   95 1  
    98   44   96 1  
    99   47   97 1  
   100   48   98 1  
   101   48   99 1  
   102   49  100 1  
   103   49  101 1  
   104   49  102 1  
   105   50  103 1  
   106   50  104 1  
   107   50  105 1  
   108   51  106 1  
   109   52  107 1  
   110   55  108 1  
   111   55  109 1  
   112   56  110 1  
   113   56  111 1  
   114   58  112 1  
   115   58  113 1  
   116   58  114 1  
@<TRIPOS>SUBSTRUCTURE
     1 SER         1

