### 
### Created by X-TOOL on Tue Oct 16 15:17:28 2018
### 

@<TRIPOS>MOLECULE
3qgw_ligand
   35    37     1     0     0
SMALL
GAST_HUCK


@<TRIPOS>ATOM
      1 C1         34.3620   50.8050   14.6030 C.ar      1 L7A         0.0414
      2 N1         43.1850   52.1670   13.4250 N.ar      1 L7A        -0.3149
      3 O1         36.0470   48.7250   10.5880 O.2       1 L7A        -0.3478
      4 C2         34.2000   51.5540   15.8710 C.ar      1 L7A        -0.0428
      5 N2         35.8810   50.0640   12.9120 N.2       1 L7A        -0.2318
      6 O2         36.6430   51.4450   14.6700 O.2       1 L7A        -0.3663
      7 C3         32.8650   51.6010   16.4970 C.ar      1 L7A        -0.0561
      8 N3         38.3170   48.9990   10.2600 N.am      1 L7A        -0.2189
      9 C4         31.7140   50.9270   15.8440 C.ar      1 L7A        -0.0574
     10 C5         31.8710   50.2000   14.5630 C.ar      1 L7A        -0.0561
     11 C6         33.1990   50.1200   13.9350 C.ar      1 L7A        -0.0428
     12 C7         35.7760   50.8160   14.0640 C.2       1 L7A         0.1986
     13 C8         39.5590   49.5830   10.6660 C.2       1 L7A         0.0535
     14 C9         39.4920   50.3340   11.9270 C.2       1 L7A        -0.0016
     15 C10        38.2560   50.5210   12.7100 C.3       1 L7A         0.0459
     16 C11        37.0710   49.9500   12.2630 C.2       1 L7A         0.1428
     17 C12        37.0940   49.1770   10.9950 C.2       1 L7A         0.2905
     18 C13        41.9380   52.7170   13.9240 C.ar      1 L7A        -0.0043
     19 C14        43.3610   51.1020   12.4820 C.ar      1 L7A        -0.0043
     20 C15        42.1480   50.5060   11.9680 C.ar      1 L7A        -0.0431
     21 C16        40.7840   51.0280   12.4450 C.ar      1 L7A        -0.0259
     22 C17        40.6940   52.1460   13.4350 C.ar      1 L7A        -0.0431
     23 H1         35.0442   52.0566   16.3289 H         1 L7A         0.0670
     24 H2         32.7241   52.1277   17.4339 H         1 L7A         0.0630
     25 H3         38.2990   48.4430    9.4290 H         1 L7A         0.2433
     26 H4         30.7384   50.9679   16.3147 H         1 L7A         0.0654
     27 H5         31.0146   49.7309   14.0923 H         1 L7A         0.0630
     28 H6         33.3380   49.5771   13.0071 H         1 L7A         0.0670
     29 H7         40.4766   49.4794   10.0887 H         1 L7A         0.1059
     30 H8         38.0824   51.6049   12.7803 H         1 L7A         0.0652
     31 H9         38.4484   50.1146   13.7139 H         1 L7A         0.0652
     32 H10        41.9345   53.5302   14.6407 H         1 L7A         0.0779
     33 H11        44.3435   50.7640   12.1730 H         1 L7A         0.0779
     34 H12        42.2007   49.6955   11.2502 H         1 L7A         0.0619
     35 H13        39.7343   52.5174   13.7758 H         1 L7A         0.0619
@<TRIPOS>BOND
     1    1    4 ar 
     2    1   11 ar 
     3   12    1 1  
     4    2   18 ar 
     5   19    2 ar 
     6   17    3 2  
     7    4    7 ar 
     8    5   12 1  
     9   16    5 2  
    10   12    6 2  
    11    7    9 ar 
    12   13    8 1  
    13    8   17 am 
    14   10    9 ar 
    15   11   10 ar 
    16   14   13 2  
    17   14   15 1  
    18   21   14 1  
    19   15   16 1  
    20   16   17 1  
    21   18   22 ar 
    22   20   19 ar 
    23   20   21 ar 
    24   21   22 ar 
    25    4   23 1  
    26    7   24 1  
    27    8   25 1  
    28    9   26 1  
    29   10   27 1  
    30   11   28 1  
    31   13   29 1  
    32   15   30 1  
    33   15   31 1  
    34   18   32 1  
    35   19   33 1  
    36   20   34 1  
    37   22   35 1  
@<TRIPOS>SUBSTRUCTURE
     1 L7A         1

