### 
### Created by X-TOOL on Tue Oct 16 15:17:28 2018
### 

@<TRIPOS>MOLECULE
3qgy_ligand
   54    57     1     0     0
SMALL
GAST_HUCK


@<TRIPOS>ATOM
      1 C1         28.9280   50.9070   14.3010 C.3       1 L7O         0.0279
      2 N1         29.7500   50.1450   15.2900 N.pl3     1 L7O        -0.3059
      3 O1         36.2040   48.6490   10.6270 O.2       1 L7O        -0.3837
      4 C2         27.4810   51.0710   14.8760 C.3       1 L7O        -0.0330
      5 N2         35.6400   50.0070   12.7670 N.am      1 L7O        -0.2460
      6 O2         36.1370   51.1290   14.6900 O.2       1 L7O        -0.3904
      7 C3         26.8510   49.6880   15.2270 C.3       1 L7O        -0.0495
      8 N3         38.4500   49.0740   10.4480 N.2       1 L7O        -0.2553
      9 C4         27.8020   48.8470   16.1290 C.3       1 L7O        -0.0330
     10 N4         44.2690   50.7900   12.4940 N.pl3     1 L7O        -0.2936
     11 C5         29.2330   48.7670   15.5270 C.3       1 L7O         0.0279
     12 N5         42.9310   52.3110   13.7590 N.ar      1 L7O        -0.2630
     13 C6         33.0410   49.6470   13.5030 C.ar      1 L7O        -0.0534
     14 N6         41.8530   50.7300   12.3360 N.ar      1 L7O        -0.2603
     15 C7         35.3220   50.5510   13.9620 C.2       1 L7O         0.2010
     16 C8         39.5870   49.6970   10.9450 C.2       1 L7O         0.0313
     17 C9         39.4750   50.5290   12.1670 C.2       1 L7O         0.0546
     18 C10        38.1590   50.7150   12.7990 C.2       1 L7O         0.0247
     19 C11        37.0070   50.0000   12.2520 C.3       1 L7O         0.1774
     20 C12        37.2230   49.1940   11.0400 C.2       1 L7O         0.2093
     21 C13        41.7330   52.8320   14.1500 C.ar      1 L7O         0.0065
     22 C14        42.9860   51.2870   12.8540 C.ar      1 L7O         0.1814
     23 C15        40.6300   51.2290   12.7180 C.ar      1 L7O         0.0506
     24 C16        40.5230   52.3080   13.6560 C.ar      1 L7O        -0.0242
     25 C17        33.9200   50.3960   14.3420 C.ar      1 L7O         0.0366
     26 C18        33.3970   51.1000   15.4890 C.ar      1 L7O        -0.0534
     27 C19        32.0190   50.9810   15.8330 C.ar      1 L7O        -0.0381
     28 C20        31.1340   50.2320   14.9820 C.ar      1 L7O         0.0457
     29 C21        31.6660   49.5270   13.8440 C.ar      1 L7O        -0.0381
     30 C22        44.2430   49.8080   11.3950 C.3       1 L7O         0.0193
     31 H1         28.8885   50.3566   13.3494 H         1 L7O         0.0516
     32 H2         29.3746   51.8981   14.1331 H         1 L7O         0.0516
     33 H3         26.8516   51.5713   14.1253 H         1 L7O         0.0284
     34 H4         27.5248   51.6863   15.7867 H         1 L7O         0.0284
     35 H5         34.9145   49.5948   12.2159 H         1 L7O         0.1926
     36 H6         26.6582   49.1351   14.2958 H         1 L7O         0.0267
     37 H7         25.9026   49.8509   15.7599 H         1 L7O         0.0267
     38 H8         27.3968   47.8288   16.2245 H         1 L7O         0.0284
     39 H9         27.8579   49.3142   17.1233 H         1 L7O         0.0284
     40 H10        45.1379   51.0892   12.9592 H         1 L7O         0.1857
     41 H11        29.8973   48.2418   16.2291 H         1 L7O         0.0516
     42 H12        29.1997   48.2189   14.5739 H         1 L7O         0.0516
     43 H13        33.4214   49.1702   12.6069 H         1 L7O         0.0636
     44 H14        40.5467   49.5763   10.4447 H         1 L7O         0.1128
     45 H15        38.0453   51.3735   13.6588 H         1 L7O         0.1207
     46 H16        37.2431   49.1457   12.9034 H         1 L7O         0.1126
     47 H17        41.7119   53.6597   14.8497 H         1 L7O         0.0869
     48 H18        39.5617   52.6996   13.9683 H         1 L7O         0.0625
     49 H19        34.0532   51.7198   16.0892 H         1 L7O         0.0636
     50 H20        31.6396   51.4530   16.7321 H         1 L7O         0.0530
     51 H21        31.0145   48.9016   13.2444 H         1 L7O         0.0530
     52 H22        45.2682   49.4738   11.1776 H         1 L7O         0.0488
     53 H23        43.8111   50.2739   10.4971 H         1 L7O         0.0488
     54 H24        43.6304   48.9434   11.6902 H         1 L7O         0.0488
@<TRIPOS>BOND
     1    2    1 1  
     2    1    4 1  
     3    2   11 1  
     4   28    2 1  
     5   20    3 2  
     6    4    7 1  
     7   15    5 am 
     8    5   19 1  
     9   15    6 2  
    10    9    7 1  
    11    8   16 2  
    12   20    8 1  
    13   11    9 1  
    14   22   10 1  
    15   10   30 1  
    16   21   12 ar 
    17   22   12 ar 
    18   25   13 ar 
    19   13   29 ar 
    20   14   22 ar 
    21   23   14 ar 
    22   25   15 1  
    23   17   16 1  
    24   18   17 2  
    25   17   23 1  
    26   19   18 1  
    27   19   20 1  
    28   24   21 ar 
    29   23   24 ar 
    30   26   25 ar 
    31   27   26 ar 
    32   27   28 ar 
    33   28   29 ar 
    34    1   31 1  
    35    1   32 1  
    36    4   33 1  
    37    4   34 1  
    38    5   35 1  
    39    7   36 1  
    40    7   37 1  
    41    9   38 1  
    42    9   39 1  
    43   10   40 1  
    44   11   41 1  
    45   11   42 1  
    46   13   43 1  
    47   16   44 1  
    48   18   45 1  
    49   19   46 1  
    50   21   47 1  
    51   24   48 1  
    52   26   49 1  
    53   27   50 1  
    54   29   51 1  
    55   30   52 1  
    56   30   53 1  
    57   30   54 1  
@<TRIPOS>SUBSTRUCTURE
     1 L7O         1

