### 
### Created by X-TOOL on Mon Sep 10 21:13:10 2018
### 

@<TRIPOS>MOLECULE
3qi1_ligand
   75    78     1     0     0
SMALL
GAST_HUCK


@<TRIPOS>ATOM
      1 C1          4.7970   14.7730  -13.3930 C.ar      1 C6A        -0.0310
      2 C2          4.2110   13.5420  -13.0750 C.ar      1 C6A        -0.0445
      3 C3          4.9710   12.3710  -13.1780 C.ar      1 C6A        -0.0310
      4 C4          6.3070   12.4130  -13.5780 C.ar      1 C6A         0.1242
      5 C5          6.9010   13.6130  -13.8820 C.ar      1 C6A        -0.0019
      6 C6          6.1480   14.7680  -13.7620 C.ar      1 C6A         0.1242
      7 F7          6.7640   15.9010  -14.0600 F         1 C6A        -0.1863
      8 F8          7.0320   11.2940  -13.6740 F         1 C6A        -0.1863
      9 C9          2.7600   13.4490  -12.5890 C.3       1 C6A         0.0048
     10 C10         2.6430   14.2730  -11.2960 C.3       1 C6A         0.0821
     11 C11         1.2550   14.2230  -10.6820 C.3       1 C6A         0.1193
     12 C12         1.1110   15.1180   -9.4720 C.3       1 C6A        -0.0032
     13 N13        -0.3040   15.1370   -9.0640 N.4       1 C6A         0.2416
     14 C14        -0.7650   16.2590   -8.2730 C.3       1 C6A         0.0109
     15 C15        -0.3960   17.6300   -8.8040 C.ar      1 C6A         0.0273
     16 C16         0.1700   18.6920   -7.9210 C.ar      1 C6A         0.0914
     17 O17         0.3560   18.3570   -6.6090 O.3       1 C6A        -0.3221
     18 C18        -0.3390   17.2890   -5.9910 C.3       1 C6A         0.0876
     19 C19        -0.1850   16.0580   -6.8700 C.3       1 C6A         0.0290
     20 C20        -0.5870   17.9560  -10.1270 C.ar      1 C6A        -0.0617
     21 C21        -0.2940   19.2090  -10.6280 C.ar      1 C6A        -0.0598
     22 C22         0.2860   20.2020   -9.8140 C.ar      1 C6A        -0.0758
     23 C23         0.5230   19.9820   -8.4360 C.ar      1 C6A        -0.0458
     24 C24        -0.5780   19.3680  -12.1280 C.3       1 C6A        -0.0209
     25 C25        -1.8210   20.1890  -12.4860 C.3       1 C6A        -0.0296
     26 C26        -1.7610   20.5230  -13.9960 C.3       1 C6A        -0.0585
     27 C27        -1.8910   21.5070  -11.7260 C.3       1 C6A        -0.0585
     28 C28        -3.0590   19.3540  -12.1280 C.3       1 C6A        -0.0585
     29 C29        -1.7770   17.6960   -5.6800 C.3       1 C6A        -0.0104
     30 C30        -1.8370   18.9600   -4.8330 C.3       1 C6A        -0.0472
     31 C31        -1.9860   17.5950   -4.1660 C.3       1 C6A        -0.0472
     32 O32         0.3090   14.5410  -11.6920 O.3       1 C6A        -0.3841
     33 N33         3.5440   13.8110  -10.2720 N.am      1 C6A        -0.2795
     34 C34         4.3300   14.6870   -9.6470 C.2       1 C6A         0.1733
     35 C35         5.3510   14.0890   -8.7020 C.3       1 C6A         0.0257
     36 O36         4.2350   15.9010   -9.8770 O.2       1 C6A        -0.3974
     37 H1          4.2271   15.6943  -13.3551 H         1 C6A         0.0508
     38 H2          4.5143   11.4163  -12.9432 H         1 C6A         0.0508
     39 H3          7.9340   13.6547  -14.2079 H         1 C6A         0.0532
     40 H4          2.4992   12.3994  -12.3885 H         1 C6A         0.0448
     41 H5          2.0824   13.8555  -13.3542 H         1 C6A         0.0448
     42 H6          2.8855   15.3171  -11.5430 H         1 C6A         0.0606
     43 H7          1.0681   13.1914  -10.3491 H         1 C6A         0.0672
     44 H8          1.4369   16.1377   -9.7250 H         1 C6A         0.0840
     45 H9          1.7283   14.7294   -8.6487 H         1 C6A         0.0840
     46 H10        -0.4730   14.3011   -8.5266 H         1 C6A         0.2029
     47 H11        -0.8594   15.1139   -9.9048 H         1 C6A         0.2029
     48 H12        -1.8628   16.2126   -8.2206 H         1 C6A         0.0992
     49 H13         0.1467   17.0692   -5.0289 H         1 C6A         0.0650
     50 H14         0.8856   15.8226   -6.9619 H         1 C6A         0.0369
     51 H15        -0.7058   15.2159   -6.3909 H         1 C6A         0.0369
     52 H16        -0.9813   17.2029  -10.7996 H         1 C6A         0.0469
     53 H17         0.5567   21.1556  -10.2527 H         1 C6A         0.0472
     54 H18         0.9501   20.7506   -7.8020 H         1 C6A         0.0505
     55 H19        -0.7022   18.3627  -12.5568 H         1 C6A         0.0409
     56 H20         0.2937   19.8573  -12.5869 H         1 C6A         0.0409
     57 H21        -2.6457   21.1136  -14.2763 H         1 C6A         0.0236
     58 H22        -1.7440   19.5895  -14.5776 H         1 C6A         0.0236
     59 H23        -0.8508   21.1034  -14.2073 H         1 C6A         0.0236
     60 H24        -1.9349   21.3053  -10.6455 H         1 C6A         0.0236
     61 H25        -2.7912   22.0598  -12.0327 H         1 C6A         0.0236
     62 H26        -0.9974   22.1078  -11.9508 H         1 C6A         0.0236
     63 H27        -3.0247   18.3969  -12.6691 H         1 C6A         0.0236
     64 H28        -3.9676   19.9043  -12.4137 H         1 C6A         0.0236
     65 H29        -3.0715   19.1626  -11.0449 H         1 C6A         0.0236
     66 H30        -2.5201   17.4284   -6.4456 H         1 C6A         0.0329
     67 H31        -2.7049   19.6315   -4.9093 H         1 C6A         0.0269
     68 H32        -0.9264   19.5549   -4.6689 H         1 C6A         0.0269
     69 H33        -1.1825   17.2052   -3.5239 H         1 C6A         0.0269
     70 H34        -2.9609   17.2818   -3.7643 H         1 C6A         0.0269
     71 H35         0.4309   13.9592  -12.4330 H         1 C6A         0.2101
     72 H36         3.5795   12.8409  -10.0319 H         1 C6A         0.1857
     73 H37         5.9422   14.8952   -8.2432 H         1 C6A         0.0467
     74 H38         6.0188   13.4172   -9.2611 H         1 C6A         0.0467
     75 H39         4.8336   13.5204   -7.9152 H         1 C6A         0.0467
@<TRIPOS>BOND
     1    1    2 ar 
     2    1    6 ar 
     3    2    3 ar 
     4    2    9 1  
     5    3    4 ar 
     6    4    5 ar 
     7    4    8 1  
     8    5    6 ar 
     9    6    7 1  
    10    9   10 1  
    11   10   11 1  
    12   10   33 1  
    13   11   12 1  
    14   11   32 1  
    15   12   13 1  
    16   13   14 1  
    17   14   15 1  
    18   14   19 1  
    19   15   16 ar 
    20   15   20 ar 
    21   16   17 1  
    22   16   23 ar 
    23   17   18 1  
    24   18   19 1  
    25   18   29 1  
    26   20   21 ar 
    27   21   22 ar 
    28   21   24 1  
    29   22   23 ar 
    30   24   25 1  
    31   25   26 1  
    32   25   27 1  
    33   25   28 1  
    34   29   30 1  
    35   29   31 1  
    36   30   31 1  
    37   33   34 am 
    38   34   35 1  
    39   34   36 2  
    40    1   37 1  
    41    3   38 1  
    42    5   39 1  
    43    9   40 1  
    44    9   41 1  
    45   10   42 1  
    46   11   43 1  
    47   12   44 1  
    48   12   45 1  
    49   13   46 1  
    50   13   47 1  
    51   14   48 1  
    52   18   49 1  
    53   19   50 1  
    54   19   51 1  
    55   20   52 1  
    56   22   53 1  
    57   23   54 1  
    58   24   55 1  
    59   24   56 1  
    60   26   57 1  
    61   26   58 1  
    62   26   59 1  
    63   27   60 1  
    64   27   61 1  
    65   27   62 1  
    66   28   63 1  
    67   28   64 1  
    68   28   65 1  
    69   29   66 1  
    70   30   67 1  
    71   30   68 1  
    72   31   69 1  
    73   31   70 1  
    74   32   71 1  
    75   33   72 1  
    76   35   73 1  
    77   35   74 1  
    78   35   75 1  
@<TRIPOS>SUBSTRUCTURE
     1 C6A         1

