### 
### Created by X-TOOL on Mon Sep 10 21:13:07 2018
### 

@<TRIPOS>MOLECULE
3qi3_ligand
   39    41     1     0     0
SMALL
GAST_HUCK


@<TRIPOS>ATOM
      1 C2         77.7530   49.8720   40.4330 C.ar      1 PDB        -0.0099
      2 C3         78.3200   49.7770   39.1670 C.ar      1 PDB        -0.0647
      3 C4         79.5860   50.2980   38.9240 C.ar      1 PDB        -0.0759
      4 C5         80.2840   50.9180   39.9550 C.ar      1 PDB        -0.0733
      5 F5         71.9380   55.1500   41.7410 F         1 PDB        -0.1702
      6 C6         79.7160   51.0130   41.2200 C.ar      1 PDB        -0.0329
      7 F6         72.7550   54.3990   39.8150 F         1 PDB        -0.1702
      8 C7         78.4500   50.4900   41.4690 C.ar      1 PDB         0.1115
      9 F7         73.4750   56.3280   40.6490 F         1 PDB        -0.1702
     10 N8         77.9510   50.5690   42.7180 N.pl3     1 PDB        -0.1562
     11 N9         78.5600   50.1790   43.7440 N.2       1 PDB        -0.2147
     12 C10        77.8850   50.4810   44.8730 C.2       1 PDB         0.0046
     13 C11        76.7880   51.1600   43.0810 C.2       1 PDB         0.1457
     14 C12        76.7260   51.1280   44.4660 C.2       1 PDB         0.0750
     15 N13        75.7800   51.7450   42.3810 N.2       1 PDB        -0.2710
     16 C14        74.7170   52.3010   43.0270 C.2       1 PDB         0.1485
     17 N15        74.6420   52.2830   44.3870 N.am      1 PDB        -0.1980
     18 C16        75.6460   51.6990   45.1290 C.2       1 PDB         0.2127
     19 O17        75.6080   51.7390   46.3590 O.2       1 PDB        -0.4053
     20 C18        73.6240   52.9930   42.2320 C.3       1 PDB         0.0500
     21 C19        74.1510   54.3360   41.7200 C.3       1 PDB         0.0716
     22 C20        75.3300   54.0870   40.7780 C.3       1 PDB        -0.0513
     23 C21        73.0470   55.0730   40.9590 C.3       1 PDB         0.3954
     24 CL1        76.1860   49.2170   40.6950 C.3       1 PDB        -0.0308
     25 H1         77.7724   49.2944   38.3656 H         1 PDB         0.0536
     26 H2         80.0266   50.2214   37.9365 H         1 PDB         0.0536
     27 H3         81.2710   51.3271   39.7719 H         1 PDB         0.0541
     28 H4         80.2635   51.4986   42.0197 H         1 PDB         0.0561
     29 H5         78.1880   50.2617   45.8958 H         1 PDB         0.0670
     30 H6         73.8561   52.6947   44.8484 H         1 PDB         0.2542
     31 H7         72.7498   53.1624   42.8778 H         1 PDB         0.0571
     32 H8         73.3332   52.3621   41.3791 H         1 PDB         0.0571
     33 H9         74.4815   54.9490   42.5715 H         1 PDB         0.0420
     34 H10        76.1270   53.5571   41.3203 H         1 PDB         0.0237
     35 H11        75.7146   55.0494   40.4095 H         1 PDB         0.0237
     36 H12        74.9964   53.4753   39.9268 H         1 PDB         0.0237
     37 H13        75.8112   48.7773   39.7590 H         1 PDB         0.0378
     38 H14        75.5048   50.0159   41.0233 H         1 PDB         0.0378
     39 H15        76.2389   48.4385   41.4704 H         1 PDB         0.0378
@<TRIPOS>BOND
     1    1    2 ar 
     2    8    1 ar 
     3    1   24 1  
     4    2    3 ar 
     5    4    3 ar 
     6    6    4 ar 
     7   23    5 1  
     8    8    6 ar 
     9   23    7 1  
    10   10    8 1  
    11   23    9 1  
    12   10   11 1  
    13   13   10 1  
    14   12   11 2  
    15   14   12 1  
    16   13   14 2  
    17   15   13 1  
    18   18   14 1  
    19   16   15 2  
    20   16   17 1  
    21   20   16 1  
    22   17   18 am 
    23   18   19 2  
    24   21   20 1  
    25   21   22 1  
    26   21   23 1  
    27    2   25 1  
    28    3   26 1  
    29    4   27 1  
    30    6   28 1  
    31   12   29 1  
    32   17   30 1  
    33   20   31 1  
    34   20   32 1  
    35   21   33 1  
    36   22   34 1  
    37   22   35 1  
    38   22   36 1  
    39   24   37 1  
    40   24   38 1  
    41   24   39 1  
@<TRIPOS>SUBSTRUCTURE
     1 PDB         1

