### 
### Created by X-TOOL on Mon Sep 10 21:13:07 2018
### 

@<TRIPOS>MOLECULE
3qi4_ligand
   30    31     1     0     0
SMALL
GAST_HUCK


@<TRIPOS>ATOM
      1 N9         74.1120   52.5470   40.8180 N.2       1 IBM        -0.2860
      2 C8         73.3110   53.2280   41.7030 C.2       1 IBM         0.0953
      3 N7         73.7130   53.1470   42.9480 N.pl3     1 IBM        -0.2657
      4 C5         74.8550   52.3610   42.8780 C.2       1 IBM         0.1602
      5 C4         75.1160   51.9860   41.5720 C.2       1 IBM         0.1379
      6 N3         76.1500   51.2380   41.1220 N.am      1 IBM        -0.1992
      7 C2         77.0050   50.8120   42.0950 C.2       1 IBM         0.3179
      8 N1         76.8240   51.1420   43.4490 N.am      1 IBM        -0.1740
      9 C6         75.7510   51.9140   43.8410 C.2       1 IBM         0.2295
     10 O6         75.5810   52.1990   45.0320 O.2       1 IBM        -0.4007
     11 O2         77.9680   50.1260   41.7710 O.2       1 IBM        -0.3873
     12 C10        77.7840   50.6720   44.4460 C.3       1 IBM         0.0477
     13 C11        76.3850   50.9560   39.7010 C.3       1 IBM         0.0580
     14 C12        75.0870   50.5550   38.9930 C.3       1 IBM        -0.0214
     15 C13        75.4040   49.4240   38.0140 C.3       1 IBM        -0.0604
     16 C14        74.4950   51.7320   38.2220 C.3       1 IBM        -0.0604
     17 H1         72.4250   53.7831   41.3984 H         1 IBM         0.1261
     18 H2         73.2821   53.5683   43.7833 H         1 IBM         0.2315
     19 H3         78.5647   50.0759   43.9508 H         1 IBM         0.0539
     20 H4         77.2649   50.0503   45.1904 H         1 IBM         0.0539
     21 H5         78.2449   51.5360   44.9471 H         1 IBM         0.0539
     22 H6         77.1100   50.1334   39.6137 H         1 IBM         0.0587
     23 H7         76.7928   51.8569   39.2192 H         1 IBM         0.0587
     24 H8         74.3571   50.2075   39.7390 H         1 IBM         0.0320
     25 H9         74.4835   49.1205   37.4939 H         1 IBM         0.0233
     26 H10        75.8134   48.5652   38.5660 H         1 IBM         0.0233
     27 H11        76.1431   49.7727   37.2777 H         1 IBM         0.0233
     28 H12        74.2646   52.5495   38.9210 H         1 IBM         0.0233
     29 H13        73.5726   51.4118   37.7155 H         1 IBM         0.0233
     30 H14        75.2212   52.0829   37.4740 H         1 IBM         0.0233
@<TRIPOS>BOND
     1    1    2 2  
     2    1    5 1  
     3    2    3 1  
     4    3    4 1  
     5    4    5 2  
     6    4    9 1  
     7    5    6 1  
     8    6    7 am 
     9    6   13 1  
    10    7    8 am 
    11    7   11 2  
    12    8    9 am 
    13    8   12 1  
    14    9   10 2  
    15   13   14 1  
    16   14   15 1  
    17   14   16 1  
    18    2   17 1  
    19    3   18 1  
    20   12   19 1  
    21   12   20 1  
    22   12   21 1  
    23   13   22 1  
    24   13   23 1  
    25   14   24 1  
    26   15   25 1  
    27   15   26 1  
    28   15   27 1  
    29   16   28 1  
    30   16   29 1  
    31   16   30 1  
@<TRIPOS>SUBSTRUCTURE
     1 IBM         1

