### 
### Created by X-TOOL on Fri Sep 26 17:34:52 2014
### 

@<TRIPOS>MOLECULE
3qin_ligand
   31    32     1     0     0
SMALL
GAST_HUCK


@<TRIPOS>ATOM
      1 C01         3.8530    4.3630   34.5790 C.ar      1 P1Y        -0.0566
      2 C02         4.8930    4.6250   35.4530 C.ar      1 P1Y         0.0347
      3 C03         6.2310    4.5410   35.0710 C.ar      1 P1Y         0.0943
      4 C04         6.5470    4.1880   33.7560 C.ar      1 P1Y        -0.0360
      5 C05         5.5170    3.8940   32.8690 C.ar      1 P1Y        -0.0633
      6 C06         4.1750    3.9840   33.2740 C.ar      1 P1Y        -0.0355
      7 C07         3.0750    3.6690   32.3000 C.3       1 P1Y         0.0366
      8 C08         3.0480    4.6030   31.1240 C.ar      1 P1Y         0.0909
      9 N09         3.3190    4.0600   29.9290 N.ar      1 P1Y        -0.2775
     10 C10         3.2920    4.9190   28.8760 C.ar      1 P1Y         0.1084
     11 C11         2.9930    6.2550   28.9990 C.ar      1 P1Y         0.1777
     12 C12         2.7420    6.6720   30.2850 C.ar      1 P1Y         0.2082
     13 N13         2.7560    5.8810   31.3800 N.ar      1 P1Y        -0.2470
     14 O14         2.9850    7.1300   27.9580 O.3       1 P1Y        -0.3246
     15 O15         2.4370    7.9610   30.5340 O.3       1 P1Y        -0.3104
     16 C16         3.5790    4.3020   27.5650 C.2       1 P1Y         0.0778
     17 O17         3.8710    2.9980   27.7150 O.co2     1 P1Y        -0.5588
     18 O18         3.5330    4.8460   26.4770 O.co2     1 P1Y        -0.5588
     19 BR19        4.4990    5.0980   37.2490 Br        1 P1Y        -0.0596
     20 O20         7.1640    4.8560   36.0250 O.3       1 P1Y        -0.3233
     21 C21         8.5400    4.7060   35.6810 C.3       1 P1Y         0.0589
     22 H1          2.8204    4.4492   34.8972 H         1 P1Y         0.0562
     23 H2          7.5805    4.1440   33.4321 H         1 P1Y         0.0534
     24 H3          5.7522    3.5923   31.8547 H         1 P1Y         0.0560
     25 H4          2.1110    3.7386   32.8252 H         1 P1Y         0.0613
     26 H5          3.2176    2.6431   31.9297 H         1 P1Y         0.0613
     27 H6          3.1778    6.6642   27.1528 H         1 P1Y         0.2481
     28 H7          2.4472    8.4506   29.7199 H         1 P1Y         0.2546
     29 H8          9.1658    4.9937   36.5387 H         1 P1Y         0.0577
     30 H9          8.7758    5.3516   34.8222 H         1 P1Y         0.0577
     31 H10         8.7397    3.6570   35.4170 H         1 P1Y         0.0577
@<TRIPOS>BOND
     1    1    2 ar 
     2    1    6 ar 
     3    2    3 ar 
     4    2   19 1  
     5    3    4 ar 
     6    3   20 1  
     7    4    5 ar 
     8    5    6 ar 
     9    6    7 1  
    10    7    8 1  
    11    8    9 ar 
    12    8   13 ar 
    13    9   10 ar 
    14   10   11 ar 
    15   10   16 1  
    16   11   12 ar 
    17   11   14 1  
    18   12   13 ar 
    19   12   15 1  
    20   16   17 ar 
    21   16   18 ar 
    22   20   21 1  
    23    1   22 1  
    24    4   23 1  
    25    5   24 1  
    26    7   25 1  
    27    7   26 1  
    28   14   27 1  
    29   15   28 1  
    30   21   29 1  
    31   21   30 1  
    32   21   31 1  
@<TRIPOS>SUBSTRUCTURE
     1 P1Y         1

