### 
### Created by X-TOOL on Mon Sep 10 21:13:06 2018
### 

@<TRIPOS>MOLECULE
3qio_ligand
   31    33     1     0     0
SMALL
GAST_HUCK


@<TRIPOS>ATOM
      1 C01       -11.1250  -10.5270   -9.8370 C.ar      1 QID         0.1437
      2 C02       -12.3510  -10.8620  -10.3310 C.ar      1 QID         0.0175
      3 C03       -13.2510   -9.8450  -10.7070 C.ar      1 QID         0.0474
      4 C04       -12.8600   -8.4810  -10.5520 C.ar      1 QID         0.2153
      5 C05       -11.5860   -8.1530  -10.0300 C.ar      1 QID         0.1655
      6 C06       -10.7150   -9.1220   -9.6550 C.ar      1 QID         0.0341
      7 C07       -11.1880   -6.7010   -9.8760 C.2       1 QID         0.3253
      8 N08       -13.8050   -7.4290  -10.9440 N.am      1 QID        -0.1263
      9 N09       -12.1100   -5.6940  -10.2690 N.2       1 QID         0.0077
     10 O10       -10.0770   -6.3880   -9.4720 O.2       1 QID        -0.3073
     11 C11       -13.4280   -6.0350  -10.7910 C.2       1 QID         0.4601
     12 O12       -14.1930   -5.1490  -11.1010 O.2       1 QID        -0.2772
     13 O13       -11.7820   -4.4550  -10.1100 O.2       1 QID        -0.1846
     14 S14       -10.0320  -11.7930   -9.3280 S.o2      1 QID         0.0453
     15 C15        -8.8350  -11.9700  -10.6000 C.ar      1 QID         0.0994
     16 O16        -9.4270  -11.4460   -8.0650 O.2       1 QID        -0.1588
     17 O17       -10.7680  -13.0090   -9.0710 O.2       1 QID        -0.1588
     18 C18        -7.5730  -11.4910  -10.3840 C.ar      1 QID        -0.0359
     19 C19        -6.5870  -11.6310  -11.3810 C.ar      1 QID        -0.0599
     20 C20        -6.9090  -12.2890  -12.6120 C.ar      1 QID        -0.0616
     21 C21        -8.2090  -12.7950  -12.8320 C.ar      1 QID        -0.0599
     22 C22        -9.1700  -12.6620  -11.8650 C.ar      1 QID        -0.0359
     23 H         -12.6331  -11.9098  -10.4344 H         1 QID         0.0819
     24 H         -14.2319  -10.0964  -11.1105 H         1 QID         0.0938
     25 H          -9.7423   -8.8706   -9.2323 H         1 QID         0.0842
     26 H         -14.7201   -7.6752  -11.3213 H         1 QID         0.3325
     27 H          -7.3296  -11.0011   -9.4412 H         1 QID         0.0637
     28 H          -5.5830  -11.2400  -11.2161 H         1 QID         0.0618
     29 H          -6.1465  -12.3997  -13.3830 H         1 QID         0.0618
     30 H          -8.4479  -13.2919  -13.7723 H         1 QID         0.0618
     31 H         -10.1713  -13.0617  -12.0254 H         1 QID         0.0637
@<TRIPOS>BOND
     1    1    2 ar 
     2    1    6 ar 
     3    1   14 1  
     4    2    3 ar 
     5    3    4 ar 
     6    4    5 ar 
     7    4    8 1  
     8    5    6 ar 
     9    5    7 1  
    10    7    9 1  
    11    7   10 2  
    12    8   11 am 
    13    9   11 1  
    14    9   13 2  
    15   11   12 2  
    16   14   15 1  
    17   14   16 2  
    18   14   17 2  
    19   15   18 ar 
    20   15   22 ar 
    21   18   19 ar 
    22   19   20 ar 
    23   20   21 ar 
    24   21   22 ar 
    25    2   23 1  
    26    3   24 1  
    27    6   25 1  
    28    8   26 1  
    29   18   27 1  
    30   19   28 1  
    31   20   29 1  
    32   21   30 1  
    33   22   31 1  
@<TRIPOS>SUBSTRUCTURE
     1 QID         1

