### 
### Created by X-TOOL on Mon Sep 10 21:13:07 2018
### 

@<TRIPOS>MOLECULE
3qip_ligand
   41    44     1     0     0
SMALL
GAST_HUCK


@<TRIPOS>ATOM
      1 C01         2.2000   74.9470   37.9960 C.ar      1 P4Y        -0.0779
      2 C02         2.8230   76.0990   37.5120 C.ar      1 P4Y        -0.0756
      3 C03         2.8310   76.4040   36.1480 C.ar      1 P4Y        -0.0429
      4 C04         2.1830   75.5040   35.2960 C.ar      1 P4Y         0.0625
      5 C05         1.5470   74.3400   35.7420 C.ar      1 P4Y        -0.0122
      6 C06         1.5590   74.0550   37.1240 C.ar      1 P4Y        -0.0721
      7 N07         2.0370   75.5520   33.9370 N.pl3     1 P4Y        -0.2814
      8 C08         1.3140   74.4660   33.4810 C.2       1 P4Y         0.0654
      9 C09         0.9870   73.6600   34.6050 C.2       1 P4Y        -0.0153
     10 C10         1.1170   74.3430   32.0310 C.ar      1 P4Y        -0.0039
     11 C11         0.2500   72.3540   34.7460 C.3       1 P4Y         0.0291
     12 C12        -1.2380   72.4890   34.5210 C.ar      1 P4Y         0.0880
     13 C13         1.4150   75.4280   31.1860 C.ar      1 P4Y        -0.0569
     14 C14         1.2740   75.2980   29.7990 C.ar      1 P4Y        -0.0650
     15 C15         0.8680   74.0800   29.2420 C.ar      1 P4Y        -0.0652
     16 C16         0.5960   72.9850   30.0670 C.ar      1 P4Y        -0.0650
     17 C17         0.7370   73.1130   31.4550 C.ar      1 P4Y        -0.0569
     18 N18        -1.7740   71.5200   33.7500 N.ar      1 P4Y        -0.2780
     19 C19        -3.0950   71.5790   33.5050 C.ar      1 P4Y         0.1082
     20 C20        -3.9010   72.5760   34.0210 C.ar      1 P4Y         0.1775
     21 C21        -3.2630   73.5240   34.8010 C.ar      1 P4Y         0.2080
     22 N22        -1.9380   73.5100   35.0800 N.ar      1 P4Y        -0.2475
     23 C23        -3.5390   70.4670   32.6500 C.2       1 P4Y         0.0778
     24 O24        -5.2290   72.6570   33.7940 O.3       1 P4Y        -0.3247
     25 O25        -4.0060   74.5540   35.3410 O.3       1 P4Y        -0.3105
     26 O26        -2.8800   69.5640   32.1750 O.co2     1 P4Y        -0.5588
     27 O27        -4.8340   70.5230   32.4160 O.co2     1 P4Y        -0.5588
     28 H           2.2120   74.7382   39.0657 H         1 P4Y         0.0514
     29 H           3.3135   76.7747   38.2127 H         1 P4Y         0.0540
     30 H           3.3191   77.3008   35.7664 H         1 P4Y         0.0541
     31 H           1.0776   73.1556   37.5078 H         1 P4Y         0.0550
     32 H           2.4113   76.2898   33.3404 H         1 P4Y         0.2191
     33 H           0.4008   71.9957   35.7643 H         1 P4Y         0.0582
     34 H           0.6393   71.6698   33.9920 H         1 P4Y         0.0582
     35 H           1.7563   76.3715   31.6120 H         1 P4Y         0.0593
     36 H           1.4813   76.1491   29.1503 H         1 P4Y         0.0608
     37 H           0.7636   73.9850   28.1612 H         1 P4Y         0.0588
     38 H           0.2762   72.0375   29.6332 H         1 P4Y         0.0608
     39 H           0.5509   72.2521   32.0971 H         1 P4Y         0.0593
     40 H          -5.5027   71.9241   33.2376 H         1 P4Y         0.2481
     41 H          -3.6658   75.3935   35.0229 H         1 P4Y         0.2546
@<TRIPOS>BOND
     1    1    2 ar 
     2    1    6 ar 
     3    2    3 ar 
     4    3    4 ar 
     5    4    5 ar 
     6    4    7 1  
     7    5    6 ar 
     8    5    9 1  
     9    7    8 1  
    10    8    9 2  
    11    8   10 1  
    12    9   11 1  
    13   10   13 ar 
    14   10   17 ar 
    15   11   12 1  
    16   12   18 ar 
    17   12   22 ar 
    18   13   14 ar 
    19   14   15 ar 
    20   15   16 ar 
    21   16   17 ar 
    22   18   19 ar 
    23   19   20 ar 
    24   19   23 1  
    25   20   21 ar 
    26   20   24 1  
    27   21   22 ar 
    28   21   25 1  
    29   23   26 ar 
    30   23   27 ar 
    31    1   28 1  
    32    2   29 1  
    33    3   30 1  
    34    6   31 1  
    35    7   32 1  
    36   11   33 1  
    37   11   34 1  
    38   13   35 1  
    39   14   36 1  
    40   15   37 1  
    41   16   38 1  
    42   17   39 1  
    43   24   40 1  
    44   25   41 1  
@<TRIPOS>SUBSTRUCTURE
     1 P4Y         1

