### 
### Created by X-TOOL on Mon Sep 10 21:13:07 2018
### 

@<TRIPOS>MOLECULE
3qj0_ligand
   41    43     1     0     0
SMALL
GAST_HUCK


@<TRIPOS>ATOM
      1 C1        -19.5130   35.1510   -5.3980 C.2       1 QI3         0.3090
      2 N1        -21.8870   35.4460   -5.7760 N.am      1 QI3        -0.2084
      3 O1        -18.6060   35.9580   -5.4120 O.2       1 QI3        -0.3261
      4 C2        -20.7510   35.8220   -5.0040 C.3       1 QI3         0.1463
      5 C3        -21.0430   35.4800   -3.5790 C.3       1 QI3         0.0175
      6 C4        -22.4940   35.3060   -3.6200 C.3       1 QI3         0.1023
      7 O2        -18.2080   33.2220   -6.0710 O.2       1 QI3        -0.1732
      8 N2        -19.3640   33.7510   -5.7240 N.2       1 QI3         0.0370
      9 C5        -22.5460   37.6720   -3.2240 C.ar      1 QI3         0.0920
     10 C6        -22.2050   38.7260   -4.0910 C.ar      1 QI3        -0.0324
     11 C7        -21.6450   39.9310   -3.5490 C.ar      1 QI3        -0.0567
     12 C8        -22.3850   37.8050   -1.8320 C.ar      1 QI3        -0.0324
     13 C9        -21.8250   39.0090   -1.2870 C.ar      1 QI3        -0.0567
     14 C10       -21.4670   40.0560   -2.1450 C.ar      1 QI3         0.0285
     15 CL1       -20.7920   41.5100   -1.4490 Cl        1 QI3        -0.0810
     16 O3        -20.9240   35.6640   -8.1520 O.2       1 QI3        -0.1499
     17 S1        -22.2130   35.6380   -7.3520 S.o2      1 QI3         0.0730
     18 C11       -23.1410   37.1680   -7.5310 C.ar      1 QI3         0.1086
     19 C12       -24.4790   37.0980   -7.3440 C.ar      1 QI3        -0.0346
     20 C13       -25.2930   38.2490   -7.4350 C.ar      1 QI3        -0.0460
     21 O4        -23.1030   34.5220   -7.7130 O.2       1 QI3        -0.1499
     22 C14       -22.5430   38.4250   -7.8140 C.ar      1 QI3        -0.0346
     23 C15       -23.3470   39.5920   -7.9060 C.ar      1 QI3        -0.0460
     24 C16       -24.7030   39.5000   -7.7190 C.ar      1 QI3         0.0405
     25 CL2       -25.7250   40.8680   -7.8160 Cl        1 QI3        -0.0707
     26 O5        -23.1440   36.5150   -3.7520 O.3       1 QI3        -0.3126
     27 C17       -22.7370   34.6560   -4.9310 C.3       1 QI3         0.0634
     28 H         -20.5870   36.8878   -5.1631 H         1 QI3         0.0767
     29 H         -20.7116   36.2376   -2.8689 H         1 QI3         0.0338
     30 H         -20.5056   34.6026   -3.2191 H         1 QI3         0.0338
     31 H         -22.8300   34.7818   -2.7253 H         1 QI3         0.0669
     32 H         -22.3647   38.6283   -5.1648 H         1 QI3         0.0543
     33 H         -21.3574   40.7471   -4.2118 H         1 QI3         0.0595
     34 H         -22.6854   36.9942   -1.1683 H         1 QI3         0.0543
     35 H         -21.6793   39.1077   -0.2113 H         1 QI3         0.0595
     36 H         -24.9377   36.1352   -7.1188 H         1 QI3         0.0637
     37 H         -26.3701   38.1718   -7.2869 H         1 QI3         0.0624
     38 H         -21.4651   38.4940   -7.9608 H         1 QI3         0.0637
     39 H         -22.8887   40.5566   -8.1242 H         1 QI3         0.0624
     40 H         -22.5146   33.5891   -4.9476 H         1 QI3         0.0509
     41 H         -23.7834   34.6454   -5.2362 H         1 QI3         0.0509
@<TRIPOS>BOND
     1    1    3 2  
     2    4    1 1  
     3    1    8 1  
     4    2    4 1  
     5    2   17 am 
     6   27    2 1  
     7    5    4 1  
     8    6    5 1  
     9   26    6 1  
    10    6   27 1  
    11    8    7 2  
    12    9   10 ar 
    13    9   12 ar 
    14    9   26 1  
    15   10   11 ar 
    16   11   14 ar 
    17   12   13 ar 
    18   13   14 ar 
    19   14   15 1  
    20   17   16 2  
    21   17   18 1  
    22   17   21 2  
    23   18   19 ar 
    24   18   22 ar 
    25   19   20 ar 
    26   20   24 ar 
    27   22   23 ar 
    28   23   24 ar 
    29   24   25 1  
    30    4   28 1  
    31    5   29 1  
    32    5   30 1  
    33    6   31 1  
    34   10   32 1  
    35   11   33 1  
    36   12   34 1  
    37   13   35 1  
    38   19   36 1  
    39   20   37 1  
    40   22   38 1  
    41   23   39 1  
    42   27   40 1  
    43   27   41 1  
@<TRIPOS>SUBSTRUCTURE
     1 QI3         1

