### 
### Created by X-TOOL on Mon Sep 10 21:13:06 2018
### 

@<TRIPOS>MOLECULE
3qj9_ligand
   58    63     1     0     0
SMALL
GAST_HUCK


@<TRIPOS>ATOM
      1 N1        -17.2830    0.2050   -4.8380 N.ar      1 QJ9        -0.2529
      2 N3        -15.5840   -1.4580   -4.9530 N.pl3     1 QJ9        -0.2735
      3 C4        -16.6030   -0.7910   -4.2350 C.ar      1 QJ9         0.1878
      4 C5        -18.9330    1.9020   -4.8700 C.2       1 QJ9         0.1464
      5 C6        -18.9550    2.1340   -6.1850 C.2       1 QJ9        -0.0254
      6 C7        -20.1810    3.6830   -5.1950 C.ar      1 QJ9         0.1286
      7 C8        -19.7090    3.2060   -6.4240 C.ar      1 QJ9         0.0013
      8 C10       -20.8750    4.9840   -7.5680 C.ar      1 QJ9        -0.0732
      9 C13       -14.6900   -2.4490   -4.2810 C.3       1 QJ9         0.0617
     10 C15       -12.9920   -1.9500   -6.1070 C.3       1 QJ9        -0.0209
     11 C17       -15.3820   -1.1500   -6.4000 C.3       1 QJ9         0.0338
     12 C20       -11.2260   -5.0730   -3.6660 C.ar      1 QJ9         0.0943
     13 C21       -10.8020   -6.3770   -3.9260 C.ar      1 QJ9        -0.0531
     14 C22       -11.2750   -7.0510   -5.0520 C.ar      1 QJ9        -0.0902
     15 C24       -12.5880   -5.1210   -5.6600 C.ar      1 QJ9        -0.0531
     16 C26        -8.6270   -3.9570   -1.8220 C.3       1 QJ9        -0.0396
     17 C25       -10.0430   -4.4620   -1.5500 C.3       1 QJ9         0.0523
     18 N5        -10.9440   -4.2040   -2.6950 N.am      1 QJ9        -0.2062
     19 C18       -11.6230   -3.0820   -2.9170 C.2       1 QJ9         0.3124
     20 O2        -11.5970   -2.0750   -2.2080 O.2       1 QJ9        -0.3950
     21 C23       -12.1650   -6.4190   -5.9240 C.ar      1 QJ9        -0.0902
     22 C19       -12.1190   -4.4410   -4.5330 C.ar      1 QJ9         0.0947
     23 N4        -12.3360   -3.2160   -4.0340 N.am      1 QJ9        -0.2009
     24 C14       -13.2120   -2.1490   -4.5870 C.3       1 QJ9         0.0866
     25 C16       -13.9010   -0.8590   -6.6870 C.3       1 QJ9        -0.0296
     26 N2        -16.9000   -1.1330   -2.9620 N.ar      1 QJ9        -0.2593
     27 C1        -17.8570   -0.5040   -2.2890 C.ar      1 QJ9         0.0102
     28 C2        -18.5730    0.5280   -2.8930 C.ar      1 QJ9        -0.0173
     29 C3        -18.2590    0.8770   -4.2030 C.ar      1 QJ9         0.0837
     30 C9        -20.0550    3.8580   -7.6110 C.ar      1 QJ9        -0.0659
     31 C11       -21.3470    5.4560   -6.3420 C.ar      1 QJ9        -0.0703
     32 C12       -21.0050    4.8100   -5.1520 C.ar      1 QJ9        -0.0275
     33 O1        -19.6870    2.8550   -4.2220 O.3       1 QJ9        -0.2473
     34 H1        -18.4397    1.5423   -6.9402 H         1 QJ9         0.0479
     35 H2        -21.1461    5.4929   -8.4859 H         1 QJ9         0.0537
     36 H3        -14.9351   -3.4586   -4.6424 H         1 QJ9         0.0554
     37 H4        -14.8501   -2.3997   -3.1938 H         1 QJ9         0.0554
     38 H5        -13.2038   -2.8983   -6.6226 H         1 QJ9         0.0294
     39 H6        -11.9434   -1.6654   -6.2788 H         1 QJ9         0.0294
     40 H7        -15.9828   -0.2690   -6.6698 H         1 QJ9         0.0526
     41 H8        -15.7046   -2.0122   -7.0020 H         1 QJ9         0.0526
     42 H9        -10.1059   -6.8655   -3.2537 H         1 QJ9         0.0460
     43 H10       -10.9516   -8.0664   -5.2507 H         1 QJ9         0.0453
     44 H11       -13.2853   -4.6340   -6.3321 H         1 QJ9         0.0460
     45 H12        -7.9893   -4.1665   -0.9505 H         1 QJ9         0.0254
     46 H13        -8.6532   -2.8726   -2.0049 H         1 QJ9         0.0254
     47 H14        -8.2189   -4.4683   -2.7063 H         1 QJ9         0.0254
     48 H15       -10.4399   -3.9496   -0.6613 H         1 QJ9         0.0582
     49 H16       -10.0056   -5.5453   -1.3626 H         1 QJ9         0.0582
     50 H17       -12.5249   -6.9393   -6.8043 H         1 QJ9         0.0453
     51 H18       -12.9476   -1.2062   -4.0857 H         1 QJ9         0.0642
     52 H19       -13.7507   -0.8097   -7.7756 H         1 QJ9         0.0286
     53 H20       -13.6325    0.1075   -6.2356 H         1 QJ9         0.0286
     54 H21       -18.0814   -0.7937   -1.2688 H         1 QJ9         0.0877
     55 H22       -19.3572    1.0474   -2.3542 H         1 QJ9         0.0657
     56 H23       -19.6868    3.4891   -8.5615 H         1 QJ9         0.0573
     57 H24       -21.9849    6.3320   -6.3134 H         1 QJ9         0.0569
     58 H25       -21.3759    5.1801   -4.2030 H         1 QJ9         0.0568
@<TRIPOS>BOND
     1    3    1 ar 
     2    1   29 ar 
     3    2    3 1  
     4    9    2 1  
     5    2   11 1  
     6    3   26 ar 
     7    4    5 2  
     8   29    4 1  
     9    4   33 1  
    10    5    7 1  
    11    6    7 ar 
    12    6   32 ar 
    13   33    6 1  
    14    7   30 ar 
    15   30    8 ar 
    16    8   31 ar 
    17   24    9 1  
    18   24   10 1  
    19   10   25 1  
    20   25   11 1  
    21   12   13 ar 
    22   12   18 1  
    23   22   12 ar 
    24   13   14 ar 
    25   21   14 ar 
    26   15   21 ar 
    27   22   15 ar 
    28   17   16 1  
    29   18   17 1  
    30   19   18 am 
    31   19   20 2  
    32   23   19 am 
    33   23   22 1  
    34   23   24 1  
    35   26   27 ar 
    36   27   28 ar 
    37   28   29 ar 
    38   31   32 ar 
    39    5   34 1  
    40    8   35 1  
    41    9   36 1  
    42    9   37 1  
    43   10   38 1  
    44   10   39 1  
    45   11   40 1  
    46   11   41 1  
    47   13   42 1  
    48   14   43 1  
    49   15   44 1  
    50   16   45 1  
    51   16   46 1  
    52   16   47 1  
    53   17   48 1  
    54   17   49 1  
    55   21   50 1  
    56   24   51 1  
    57   25   52 1  
    58   25   53 1  
    59   27   54 1  
    60   28   55 1  
    61   30   56 1  
    62   31   57 1  
    63   32   58 1  
@<TRIPOS>SUBSTRUCTURE
     1 QJ9         1

