### 
### Created by X-TOOL on Mon Sep 10 21:13:07 2018
### 

@<TRIPOS>MOLECULE
3qk0_ligand
   45    48     1     0     0
SMALL
GAST_HUCK


@<TRIPOS>ATOM
      1 C4         20.5040   12.7750   23.9330 C.ar      1 QK0         0.0087
      2 C5         20.8980   13.7940   23.0430 C.ar      1 QK0         0.0493
      3 C6         22.2000   13.8610   22.5390 C.ar      1 QK0        -0.0451
      4 C8         18.5130   13.8730   23.8250 C.2       1 QK0         0.2129
      5 C13        14.9600   14.9730   24.0960 C.3       1 QK0         0.0345
      6 C15        24.7190   13.3920   21.1370 C.ar      1 QK0        -0.0238
      7 C17        27.0310   12.8050   21.4400 C.ar      1 QK0         0.1324
      8 C26        26.2920   16.9900   19.8950 C.ar      1 QK0        -0.0365
      9 C28        24.8110   18.6810   20.7830 C.ar      1 QK0         0.1325
     10 C12        16.4010   15.0090   23.5690 C.2       1 QK0         0.2153
     11 O14        16.7240   15.8470   22.7240 O.2       1 QK0        -0.3786
     12 N10        17.2130   14.0850   24.1100 N.am      1 QK0        -0.1887
     13 N7         19.2140   12.8500   24.3290 N.2       1 QK0        -0.3073
     14 S9         19.5410   14.7620   22.8010 S.3       1 QK0         0.0309
     15 C3         21.4560   11.8320   24.2970 C.ar      1 QK0        -0.0625
     16 C2         22.7530   11.8970   23.7970 C.ar      1 QK0        -0.0672
     17 C1         23.1440   12.9110   22.9240 C.ar      1 QK0        -0.0301
     18 C11        24.4500   12.9100   22.4210 C.ar      1 QK0        -0.0177
     19 C19        25.5050   12.3630   23.1530 C.ar      1 QK0        -0.0047
     20 N18        26.7380   12.3320   22.6660 N.ar      1 QK0        -0.3021
     21 CL20       28.6700   12.7250   20.8740 Cl        1 QK0        -0.0542
     22 C16        26.0260   13.3570   20.6360 C.ar      1 QK0         0.1053
     23 N21        26.3440   13.8160   19.4130 N.am      1 QK0        -0.1810
     24 S22        25.4320   14.8280   18.5050 S.o2      1 QK0         0.0886
     25 O23        24.1030   14.2050   18.1750 O.2       1 QK0        -0.1450
     26 O24        26.1760   15.1370   17.2390 O.2       1 QK0        -0.1450
     27 C25        25.1850   16.3140   19.3770 C.ar      1 QK0         0.1102
     28 C27        26.1040   18.1790   20.6000 C.ar      1 QK0        -0.0263
     29 F31        24.6350   19.8290   21.4660 F         1 QK0        -0.1834
     30 C29        23.7020   18.0040   20.2650 C.ar      1 QK0        -0.0263
     31 C30        23.8900   16.8140   19.5570 C.ar      1 QK0        -0.0365
     32 H          22.4766   14.6553   21.8457 H         1 QK0         0.0567
     33 H          14.7217   15.9282   24.5639 H         1 QK0         0.0475
     34 H          14.2757   14.7923   23.2670 H         1 QK0         0.0475
     35 H          14.8628   14.1731   24.8300 H         1 QK0         0.0475
     36 H          23.9115   13.7951   20.5258 H         1 QK0         0.0571
     37 H          27.2959   16.5913   19.7494 H         1 QK0         0.0627
     38 H          16.7989   13.4757   24.8155 H         1 QK0         0.2454
     39 H          21.1838   11.0303   24.9834 H         1 QK0         0.0534
     40 H          23.4782   11.1394   24.0941 H         1 QK0         0.0558
     41 H          25.3116   11.9533   24.1444 H         1 QK0         0.0659
     42 H          27.2312   13.5066   19.0161 H         1 QK0         0.2182
     43 H          26.9615   18.7150   21.0068 H         1 QK0         0.0604
     44 H          22.6980   18.4019   20.4126 H         1 QK0         0.0604
     45 H          23.0335   16.2784   19.1474 H         1 QK0         0.0627
@<TRIPOS>BOND
     1    2    1 ar 
     2    1   13 1  
     3   15    1 ar 
     4    3    2 ar 
     5    2   14 1  
     6   17    3 ar 
     7    4   12 1  
     8   13    4 2  
     9   14    4 1  
    10   10    5 1  
    11    6   18 ar 
    12   22    6 ar 
    13    7   20 ar 
    14    7   21 1  
    15   22    7 ar 
    16   27    8 ar 
    17    8   28 ar 
    18   28    9 ar 
    19    9   29 1  
    20    9   30 ar 
    21   10   11 2  
    22   12   10 am 
    23   16   15 ar 
    24   17   16 ar 
    25   18   17 1  
    26   18   19 ar 
    27   20   19 ar 
    28   23   22 1  
    29   24   23 am 
    30   24   25 2  
    31   24   26 2  
    32   24   27 1  
    33   27   31 ar 
    34   30   31 ar 
    35    3   32 1  
    36    5   33 1  
    37    5   34 1  
    38    5   35 1  
    39    6   36 1  
    40    8   37 1  
    41   12   38 1  
    42   15   39 1  
    43   16   40 1  
    44   19   41 1  
    45   23   42 1  
    46   28   43 1  
    47   30   44 1  
    48   31   45 1  
@<TRIPOS>SUBSTRUCTURE
     1 QK0         1

