### 
### Created by X-TOOL on Mon Sep 10 21:13:06 2018
### 

@<TRIPOS>MOLECULE
3qk5_ligand
   58    63     1     0     0
SMALL
GAST_HUCK


@<TRIPOS>ATOM
      1 N1        -10.8370   -6.8350   -4.3690 N.ar      1 QK5        -0.2917
      2 N3        -15.3230   -1.5840   -4.7880 N.pl3     1 QK5        -0.2751
      3 C4        -12.0070   -4.8020   -4.7260 C.ar      1 QK5        -0.0044
      4 C5        -12.5040   -5.2980   -5.9340 C.ar      1 QK5        -0.0607
      5 C6        -11.4030   -3.6950   -2.8810 C.2       1 QK5         0.0459
      6 C7        -12.1490   -3.5990   -4.0430 C.2       1 QK5        -0.0354
      7 C8        -12.9840   -2.3760   -4.4740 C.3       1 QK5        -0.0080
      8 C10       -15.1200   -1.1980   -6.2190 C.3       1 QK5         0.0338
      9 C13       -11.2820   -2.5930   -1.8220 C.3       1 QK5        -0.0102
     10 C15       -18.0070    0.6900   -3.9510 C.ar      1 QK5         0.0613
     11 C17       -17.5050   -0.6530   -2.0420 C.ar      1 QK5         0.0101
     12 C20       -20.0780    3.4560   -5.0740 C.ar      1 QK5        -0.0131
     13 C21       -19.5980    3.2240   -6.3830 C.ar      1 QK5         0.0422
     14 C22       -20.9920    4.4990   -4.8860 C.ar      1 QK5        -0.0614
     15 C24       -20.9300    5.0440   -7.2430 C.ar      1 QK5        -0.0674
     16 C26        -9.9390   -5.4250   -1.7860 C.3       1 QK5         0.1754
     17 C19       -19.5690    2.6040   -4.1520 C.2       1 QK5        -0.0398
     18 C23       -21.4190    5.2870   -5.9580 C.ar      1 QK5        -0.0682
     19 C25       -20.0160    4.0130   -7.4580 C.ar      1 QK5        -0.0463
     20 S1        -18.5250    1.9280   -6.2820 S.3       1 QK5        -0.0285
     21 C18       -18.7050    1.6890   -4.6200 C.2       1 QK5         0.0603
     22 N4        -17.0400    0.0330   -4.6130 N.ar      1 QK5        -0.2554
     23 C16       -18.2690    0.3590   -2.6260 C.ar      1 QK5        -0.0194
     24 N5        -16.5590   -1.2700   -2.7410 N.ar      1 QK5        -0.2593
     25 C14       -16.3180   -0.9380   -4.0280 C.ar      1 QK5         0.1876
     26 C9        -14.4700   -2.6480   -4.1950 C.3       1 QK5         0.0388
     27 C11       -13.6350   -0.9040   -6.4780 C.3       1 QK5        -0.0311
     28 C12       -12.7470   -2.0450   -5.9670 C.3       1 QK5        -0.0439
     29 C1        -12.1400   -6.5770   -6.3340 C.ar      1 QK5        -0.0553
     30 C2        -11.2970   -7.3260   -5.5140 C.ar      1 QK5        -0.0102
     31 C3        -11.1620   -5.5960   -3.9480 C.ar      1 QK5         0.1316
     32 N2        -10.8210   -4.9000   -2.8560 N.pl3     1 QK5        -0.2293
     33 C27        -8.7510   -4.5830   -1.5700 C.1       1 QK5         0.1222
     34 N6         -7.8280   -3.9350   -1.4090 N.1       1 QK5        -0.3007
     35 H1        -13.1625   -4.6947   -6.5484 H         1 QK5         0.0638
     36 H2        -12.6694   -1.5085   -3.8753 H         1 QK5         0.0378
     37 H3        -15.7135   -0.2990   -6.4416 H         1 QK5         0.0526
     38 H4        -15.4467   -2.0232   -6.8688 H         1 QK5         0.0526
     39 H5        -11.8781   -1.7214   -2.1301 H         1 QK5         0.0414
     40 H6        -10.2274   -2.2979   -1.7187 H         1 QK5         0.0414
     41 H7        -11.6538   -2.9690   -0.8574 H         1 QK5         0.0414
     42 H8        -17.6850   -0.9371   -1.0115 H         1 QK5         0.0877
     43 H9        -21.3752    4.6989   -3.8919 H         1 QK5         0.0598
     44 H10       -21.2609    5.6569   -8.0736 H         1 QK5         0.0593
     45 H11        -9.6084   -6.4361   -2.0660 H         1 QK5         0.0904
     46 H12       -10.5122   -5.4731   -0.8484 H         1 QK5         0.0904
     47 H13       -19.8429    2.6577   -3.0994 H         1 QK5         0.0558
     48 H14       -22.1306    6.0877   -5.7918 H         1 QK5         0.0566
     49 H15       -19.6317    3.8245   -8.4539 H         1 QK5         0.0576
     50 H16       -19.0421    0.8707   -2.0643 H         1 QK5         0.0657
     51 H17       -14.7472   -3.6182   -4.6330 H         1 QK5         0.0540
     52 H18       -14.6332   -2.6766   -3.1076 H         1 QK5         0.0540
     53 H19       -13.3576    0.0260   -5.9602 H         1 QK5         0.0286
     54 H20       -13.4765   -0.7828   -7.5597 H         1 QK5         0.0286
     55 H21       -12.9566   -2.9455   -6.5629 H         1 QK5         0.0280
     56 H22       -11.6941   -1.7550   -6.0986 H         1 QK5         0.0280
     57 H23       -12.5054   -6.9865   -7.2688 H         1 QK5         0.0582
     58 H24       -11.0119   -8.3271   -5.8165 H         1 QK5         0.0715
@<TRIPOS>BOND
     1    1   30 ar 
     2   31    1 ar 
     3    2    8 1  
     4   25    2 1  
     5    2   26 1  
     6    3    4 ar 
     7    6    3 1  
     8    3   31 ar 
     9    4   29 ar 
    10    6    5 2  
    11    5    9 1  
    12    5   32 1  
    13    7    6 1  
    14   26    7 1  
    15    7   28 1  
    16    8   27 1  
    17   10   21 1  
    18   22   10 ar 
    19   10   23 ar 
    20   23   11 ar 
    21   11   24 ar 
    22   13   12 ar 
    23   12   14 ar 
    24   17   12 1  
    25   13   19 ar 
    26   20   13 1  
    27   14   18 ar 
    28   15   18 ar 
    29   19   15 ar 
    30   32   16 1  
    31   16   33 1  
    32   21   17 2  
    33   21   20 1  
    34   22   25 ar 
    35   24   25 ar 
    36   27   28 1  
    37   29   30 ar 
    38   31   32 1  
    39   33   34 3  
    40    4   35 1  
    41    7   36 1  
    42    8   37 1  
    43    8   38 1  
    44    9   39 1  
    45    9   40 1  
    46    9   41 1  
    47   11   42 1  
    48   14   43 1  
    49   15   44 1  
    50   16   45 1  
    51   16   46 1  
    52   17   47 1  
    53   18   48 1  
    54   19   49 1  
    55   23   50 1  
    56   26   51 1  
    57   26   52 1  
    58   27   53 1  
    59   27   54 1  
    60   28   55 1  
    61   28   56 1  
    62   29   57 1  
    63   30   58 1  
@<TRIPOS>SUBSTRUCTURE
     1 QK5         1

