### 
### Created by X-TOOL on Mon Sep 10 21:13:06 2018
### 

@<TRIPOS>MOLECULE
3qkd_ligand
  105   111     1     0     0
SMALL
GAST_HUCK


@<TRIPOS>ATOM
      1 C1        -12.4300  -19.2440   11.0380 C.3       1 HI0        -0.0099
      2 N1        -12.5820  -19.8590   12.3800 N.4       1 HI0         0.2504
      3 O1        -12.9830   -8.4530   11.1670 O.2       1 HI0        -0.1436
      4 S1        -12.3180   -9.2120   10.1580 S.o2      1 HI0         0.0952
      5 CL1        -6.7440  -23.1540    8.9780 Cl        1 HI0        -0.0713
      6 C2        -11.6860  -19.1720   13.3340 C.3       1 HI0        -0.0099
      7 N2        -12.3390  -17.0670   12.0980 N.pl3     1 HI0        -0.2948
      8 O2        -12.7010   -9.0150    8.7950 O.2       1 HI0        -0.1436
      9 S2         -5.0980  -10.9980   11.6880 S.3       1 HI0        -0.0994
     10 C3        -12.0310  -17.6820   13.4020 C.3       1 HI0         0.0686
     11 N3        -11.3610  -12.7600   13.9720 N.ar      1 HI0        -0.3101
     12 O3         -8.3800   -9.8770    7.0720 O.2       1 HI0         0.1710
     13 C4        -13.0250  -17.8460   11.0620 C.3       1 HI0         0.0686
     14 N4        -11.6790  -10.7200   12.8470 N.ar      1 HI0        -0.2664
     15 O4         -6.5840   -9.3300    7.9450 O.2       1 HI0         0.1710
     16 C5        -12.3150  -21.3090   12.3560 C.3       1 HI0         0.0035
     17 N5        -12.6000  -10.7900   10.4790 N.am      1 HI0        -0.1529
     18 C6        -13.1780  -22.0080   11.3010 C.ar      1 HI0         0.0107
     19 N6         -7.7960   -9.4450    8.0560 N.2       1 HI0         0.3063
     20 C7        -14.5760  -22.0100   11.4560 C.ar      1 HI0        -0.0539
     21 N7         -6.4810   -8.4230   10.3960 N.pl3     1 HI0        -0.3121
     22 C8        -15.3990  -22.6240   10.5090 C.ar      1 HI0        -0.0680
     23 N8         -3.3260   -5.6070   10.4700 N.4       1 HI0         0.2310
     24 C9        -14.8340  -23.2410    9.3990 C.ar      1 HI0        -0.0678
     25 C10       -13.4450  -23.2460    9.2350 C.ar      1 HI0        -0.0599
     26 C11       -12.6070  -22.6360   10.1790 C.ar      1 HI0        -0.0101
     27 C12       -11.2220  -22.6630    9.9700 C.ar      1 HI0        -0.0212
     28 C13       -10.6740  -22.0360    8.8430 C.ar      1 HI0        -0.0554
     29 C14        -9.3140  -22.1870    8.5490 C.ar      1 HI0        -0.0485
     30 C15        -8.4930  -22.9700    9.3660 C.ar      1 HI0         0.0394
     31 C16        -9.0360  -23.5990   10.4940 C.ar      1 HI0        -0.0485
     32 C17       -10.3950  -23.4480   10.7920 C.ar      1 HI0        -0.0554
     33 C18       -12.3070  -15.7080   11.9840 C.ar      1 HI0         0.0460
     34 C19       -11.8510  -14.9100   13.0510 C.ar      1 HI0        -0.0293
     35 C20       -12.7350  -15.0800   10.8120 C.ar      1 HI0        -0.0337
     36 C21       -12.7060  -13.6920   10.7000 C.ar      1 HI0        -0.0476
     37 C22       -12.2330  -12.9100   11.7620 C.ar      1 HI0         0.0441
     38 C23       -11.8070  -13.5170   12.9430 C.ar      1 HI0         0.0237
     39 C24       -11.2940  -11.4110   13.9320 C.ar      1 HI0         0.0464
     40 C25       -12.1710  -11.4600   11.6830 C.ar      1 HI0         0.1616
     41 C26       -10.6730   -8.9720   10.2610 C.ar      1 HI0         0.1117
     42 C27        -9.8630   -9.2750    9.1730 C.ar      1 HI0        -0.0026
     43 C28        -8.4760   -9.1010    9.1940 C.ar      1 HI0         0.2184
     44 C29        -7.8470   -8.5980   10.3490 C.ar      1 HI0         0.0839
     45 C30        -8.6560   -8.2900   11.4500 C.ar      1 HI0        -0.0333
     46 C31       -10.0450   -8.4740   11.4100 C.ar      1 HI0        -0.0406
     47 C32        -5.6510   -8.2650   11.6100 C.3       1 HI0         0.0528
     48 C33        -4.2040   -7.8030   11.3420 C.3       1 HI0         0.0111
     49 C34        -3.9880   -6.8860   10.1310 C.3       1 HI0        -0.0303
     50 C35        -3.1180   -4.8230    9.2440 C.3       1 HI0        -0.0433
     51 C36        -2.0090   -5.7910   11.1020 C.3       1 HI0        -0.0433
     52 C37        -5.5390   -9.4990   12.5170 C.3       1 HI0         0.0299
     53 C38        -6.4920  -11.8080   11.1630 C.ar      1 HI0         0.0154
     54 C39        -7.5360  -12.0300   12.0650 C.ar      1 HI0        -0.0498
     55 C40        -8.6830  -12.7000   11.6350 C.ar      1 HI0        -0.0678
     56 C41        -8.7750  -13.1350   10.3160 C.ar      1 HI0        -0.0687
     57 C42        -7.7420  -12.9070    9.4140 C.ar      1 HI0        -0.0678
     58 C43        -6.5920  -12.2450    9.8390 C.ar      1 HI0        -0.0498
     59 H1        -12.9565  -19.8557   10.2906 H         1 HI0         0.0834
     60 H2        -11.3627  -19.1857   10.7781 H         1 HI0         0.0834
     61 H3        -13.5339  -19.7243   12.6829 H         1 HI0         0.2050
     62 H4        -10.6436  -19.2891   13.0027 H         1 HI0         0.0834
     63 H5        -11.8060  -19.6189   14.3319 H         1 HI0         0.0834
     64 H6        -11.1731  -17.1500   13.8389 H         1 HI0         0.0571
     65 H7        -12.9082  -17.5616   14.0547 H         1 HI0         0.0571
     66 H8        -14.0993  -17.9036   11.2913 H         1 HI0         0.0571
     67 H9        -12.8844  -17.3658   10.0824 H         1 HI0         0.0571
     68 H10       -12.5421  -21.7332   13.3452 H         1 HI0         0.0987
     69 H11       -11.2535  -21.4756   12.1205 H         1 HI0         0.0987
     70 H12       -13.1012  -11.3244    9.7984 H         1 HI0         0.2391
     71 H13       -15.0199  -21.5295   12.3204 H         1 HI0         0.0559
     72 H14        -5.9870   -8.3998    9.4925 H         1 HI0         0.1792
     73 H15       -16.4751  -22.6193   10.6394 H         1 HI0         0.0602
     74 H16        -3.9226   -5.0958   11.1015 H         1 HI0         0.2028
     75 H17       -15.4692  -23.7178    8.6613 H         1 HI0         0.0561
     76 H18       -13.0107  -23.7279    8.3665 H         1 HI0         0.0605
     77 H19       -11.3039  -21.4336    8.1984 H         1 HI0         0.0613
     78 H20        -8.8937  -21.6927    7.6806 H         1 HI0         0.0620
     79 H21        -8.4039  -24.2023   11.1355 H         1 HI0         0.0620
     80 H22       -10.8129  -23.9399   11.6629 H         1 HI0         0.0613
     81 H23       -11.5288  -15.3838   13.9712 H         1 HI0         0.0464
     82 H24       -13.0930  -15.6784    9.9820 H         1 HI0         0.0561
     83 H25       -13.0502  -13.2157    9.7891 H         1 HI0         0.0666
     84 H26       -10.9206  -10.8739   14.7964 H         1 HI0         0.1027
     85 H27       -10.3252   -9.6618    8.2720 H         1 HI0         0.0677
     86 H28        -8.1982   -7.9010   12.3523 H         1 HI0         0.0533
     87 H29       -10.6418   -8.2274   12.2807 H         1 HI0         0.0647
     88 H30        -6.1428   -7.4766   12.1987 H         1 HI0         0.0564
     89 H31        -3.5888   -8.7026   11.1931 H         1 HI0         0.0339
     90 H32        -3.8551   -7.2638   12.2351 H         1 HI0         0.0339
     91 H33        -3.3632   -7.4180    9.3985 H         1 HI0         0.0815
     92 H34        -4.9680   -6.6631    9.6839 H         1 HI0         0.0815
     93 H35        -2.6258   -3.8721    9.4960 H         1 HI0         0.0777
     94 H36        -4.0894   -4.6187    8.7701 H         1 HI0         0.0777
     95 H37        -2.4830   -5.3914    8.5485 H         1 HI0         0.0777
     96 H38        -2.1245   -6.3758   12.0265 H         1 HI0         0.0777
     97 H39        -1.5766   -4.8083   11.3414 H         1 HI0         0.0777
     98 H40        -1.3420   -6.3265   10.4104 H         1 HI0         0.0777
     99 H41        -4.7740   -9.2933   13.2802 H         1 HI0         0.0424
    100 H42        -6.5124   -9.6528   13.0056 H         1 HI0         0.0424
    101 H43        -7.4560  -11.6851   13.0895 H         1 HI0         0.0565
    102 H44        -9.4987  -12.8807   12.3257 H         1 HI0         0.0600
    103 H45        -9.6651  -13.6592    9.9873 H         1 HI0         0.0559
    104 H46        -7.8306  -13.2420    8.3869 H         1 HI0         0.0600
    105 H47        -5.7777  -12.0695    9.1453 H         1 HI0         0.0565
@<TRIPOS>BOND
     1    1    2 1  
     2   13    1 1  
     3    6    2 1  
     4    2   16 1  
     5    4    3 2  
     6    4    8 2  
     7    4   17 am 
     8   41    4 1  
     9   30    5 1  
    10   10    6 1  
    11    7   10 1  
    12    7   13 1  
    13   33    7 1  
    14   52    9 1  
    15    9   53 1  
    16   38   11 ar 
    17   39   11 ar 
    18   19   12 2  
    19   14   39 ar 
    20   40   14 ar 
    21   19   15 2  
    22   16   18 1  
    23   17   40 1  
    24   18   20 ar 
    25   18   26 ar 
    26   43   19 1  
    27   20   22 ar 
    28   21   44 1  
    29   47   21 1  
    30   22   24 ar 
    31   49   23 1  
    32   23   50 1  
    33   23   51 1  
    34   25   24 ar 
    35   26   25 ar 
    36   26   27 1  
    37   27   28 ar 
    38   27   32 ar 
    39   28   29 ar 
    40   29   30 ar 
    41   31   30 ar 
    42   32   31 ar 
    43   34   33 ar 
    44   35   33 ar 
    45   38   34 ar 
    46   36   35 ar 
    47   37   36 ar 
    48   37   38 ar 
    49   40   37 ar 
    50   42   41 ar 
    51   46   41 ar 
    52   43   42 ar 
    53   44   43 ar 
    54   44   45 ar 
    55   45   46 ar 
    56   48   47 1  
    57   47   52 1  
    58   48   49 1  
    59   53   54 ar 
    60   53   58 ar 
    61   54   55 ar 
    62   55   56 ar 
    63   56   57 ar 
    64   57   58 ar 
    65    1   59 1  
    66    1   60 1  
    67    2   61 1  
    68    6   62 1  
    69    6   63 1  
    70   10   64 1  
    71   10   65 1  
    72   13   66 1  
    73   13   67 1  
    74   16   68 1  
    75   16   69 1  
    76   17   70 1  
    77   20   71 1  
    78   21   72 1  
    79   22   73 1  
    80   23   74 1  
    81   24   75 1  
    82   25   76 1  
    83   28   77 1  
    84   29   78 1  
    85   31   79 1  
    86   32   80 1  
    87   34   81 1  
    88   35   82 1  
    89   36   83 1  
    90   39   84 1  
    91   42   85 1  
    92   45   86 1  
    93   46   87 1  
    94   47   88 1  
    95   48   89 1  
    96   48   90 1  
    97   49   91 1  
    98   49   92 1  
    99   50   93 1  
   100   50   94 1  
   101   50   95 1  
   102   51   96 1  
   103   51   97 1  
   104   51   98 1  
   105   52   99 1  
   106   52  100 1  
   107   54  101 1  
   108   55  102 1  
   109   56  103 1  
   110   57  104 1  
   111   58  105 1  
@<TRIPOS>SUBSTRUCTURE
     1 HI0         1

