### 
### Created by X-TOOL on Mon Sep 10 21:13:06 2018
### 

@<TRIPOS>MOLECULE
3qkm_ligand
   85    89     1     0     0
SMALL
GAST_HUCK


@<TRIPOS>ATOM
      1 C1         28.1440    2.6070   13.9550 C.3       1 SM9        -0.0037
      2 C2         28.7290    1.4580   13.1180 C.3       1 SM9         0.1117
      3 C3         29.2960    0.4010   14.0890 C.3       1 SM9         0.0605
      4 O4         27.7160    0.8850   12.3060 O.3       1 SM9        -0.3849
      5 N5         30.3940   -0.4390   13.5300 N.am      1 SM9        -0.2310
      6 C6         29.9610   -1.7740   13.0410 C.3       1 SM9         0.0529
      7 C7         29.8030   -2.7930   14.1840 C.3       1 SM9         0.0646
      8 C8         31.8910    1.5200   12.2860 C.ar      1 SM9         0.1099
      9 C9         31.9800    2.8620   12.7530 C.ar      1 SM9        -0.0263
     10 C10        31.8310    3.9340   11.8430 C.ar      1 SM9        -0.0657
     11 C11        31.5720    3.6740   10.4790 C.ar      1 SM9        -0.0751
     12 C12        31.4810    2.3470   10.0100 C.ar      1 SM9        -0.0657
     13 C13        31.6350    1.2690   10.9090 C.ar      1 SM9        -0.0263
     14 C14        31.5140   -0.1360   10.3330 C.3       1 SM9        -0.0309
     15 C15        32.2380    3.2180   14.2130 C.3       1 SM9        -0.0309
     16 C16        27.5100    5.5110   11.4420 C.3       1 SM9         0.0341
     17 C17        26.7490    6.4200   12.4430 C.3       1 SM9        -0.0357
     18 C18        25.8360    5.6190   13.3960 C.3       1 SM9        -0.0118
     19 C19        26.6680    4.5480   14.1260 C.3       1 SM9        -0.0318
     20 N20        27.3920    3.6380   13.1940 N.4       1 SM9         0.2375
     21 C21        28.2150    4.3440   12.1660 C.3       1 SM9        -0.0240
     22 C22        28.5280    6.3550   10.6620 C.3       1 SM9        -0.0190
     23 C23        27.7820    6.8470    9.4080 C.3       1 SM9         0.0369
     24 N24        26.5950    5.9900    9.2660 N.pl3     1 SM9        -0.2776
     25 C25        26.5820    4.9830   10.3430 C.3       1 SM9         0.0466
     26 C26        25.5190    6.3000    8.4820 C.ar      1 SM9         0.1464
     27 C27        24.4000    5.4620    8.2230 C.ar      1 SM9         0.0552
     28 C28        23.3660    5.9490    7.3850 C.ar      1 SM9         0.0444
     29 N29        23.4640    7.1790    6.8560 N.ar      1 SM9        -0.2938
     30 C30        24.5460    7.9220    7.1380 C.ar      1 SM9         0.0604
     31 N31        25.5620    7.5260    7.9230 N.ar      1 SM9        -0.2539
     32 C32        24.2810    4.1620    8.7710 C.ar      1 SM9        -0.0400
     33 C33        23.1460    3.3610    8.4880 C.ar      1 SM9        -0.0545
     34 C34        22.1210    3.8530    7.6460 C.ar      1 SM9        -0.0555
     35 C35        22.2340    5.1500    7.0960 C.ar      1 SM9        -0.0401
     36 O36        29.9950   -4.0900   13.6540 O.3       1 SM9        -0.3784
     37 C37        29.7780   -6.4560   13.9040 C.3       1 SM9        -0.0416
     38 C38        29.7720   -5.0980   14.6270 C.3       1 SM9         0.0449
     39 S39        32.0670    0.1130   13.4460 S.o2      1 SM9         0.0655
     40 O40        32.4400    0.5790   14.7880 O.2       1 SM9        -0.1523
     41 O41        32.8890   -0.9520   12.8530 O.2       1 SM9        -0.1523
     42 H1         28.9765    3.1076   14.4710 H         1 SM9         0.0840
     43 H2         27.4611    2.1703   14.6986 H         1 SM9         0.0840
     44 H3         29.5357    1.8406   12.4755 H         1 SM9         0.0663
     45 H4         28.4734   -0.2657   14.3869 H         1 SM9         0.0505
     46 H5         29.6834    0.9242   14.9756 H         1 SM9         0.0505
     47 H6         27.0141    0.5615   12.8584 H         1 SM9         0.2101
     48 H7         30.7125   -2.1517   12.3321 H         1 SM9         0.0501
     49 H8         28.9942   -1.6660   12.5276 H         1 SM9         0.0501
     50 H9         28.7945   -2.7136   14.6160 H         1 SM9         0.0576
     51 H10        30.5528   -2.5956   14.9643 H         1 SM9         0.0576
     52 H11        31.9156    4.9566   12.1926 H         1 SM9         0.0500
     53 H12        31.4424    4.4995    9.7884 H         1 SM9         0.0582
     54 H13        31.2929    2.1547    8.9599 H         1 SM9         0.0500
     55 H14        31.6539   -0.8747   11.1359 H         1 SM9         0.0390
     56 H15        32.2836   -0.2834    9.5610 H         1 SM9         0.0390
     57 H16        30.5171   -0.2645    9.8862 H         1 SM9         0.0390
     58 H17        32.3327    2.2952   14.8042 H         1 SM9         0.0390
     59 H18        31.3990    3.8158   14.5985 H         1 SM9         0.0390
     60 H19        33.1684    3.7997   14.2897 H         1 SM9         0.0390
     61 H20        26.1292    7.1289   11.8743 H         1 SM9         0.0275
     62 H21        27.4842    6.9756   13.0436 H         1 SM9         0.0275
     63 H22        25.0387    5.1313   12.8160 H         1 SM9         0.0317
     64 H23        25.3881    6.3009   14.1338 H         1 SM9         0.0317
     65 H24        25.9926    3.9449   14.7506 H         1 SM9         0.0814
     66 H25        27.4060    5.0535   14.7662 H         1 SM9         0.0814
     67 H26        26.6815    3.1439   12.6771 H         1 SM9         0.2034
     68 H27        29.1101    4.7447   12.6643 H         1 SM9         0.0821
     69 H28        28.5167    3.6066   11.4076 H         1 SM9         0.0821
     70 H29        29.3964    5.7430   10.3769 H         1 SM9         0.0294
     71 H30        28.8643    7.2088   11.2686 H         1 SM9         0.0294
     72 H31        28.4263    6.7539    8.5213 H         1 SM9         0.0536
     73 H32        27.4798    7.8972    9.5330 H         1 SM9         0.0536
     74 H33        25.5616    4.8582   10.7345 H         1 SM9         0.0543
     75 H34        26.9505    4.0178    9.9654 H         1 SM9         0.0543
     76 H35        24.6041    8.9123    6.7011 H         1 SM9         0.1061
     77 H36        25.0647    3.7757    9.4126 H         1 SM9         0.0687
     78 H37        23.0633    2.3693    8.9178 H         1 SM9         0.0626
     79 H38        21.2552    3.2396    7.4243 H         1 SM9         0.0674
     80 H39        21.4517    5.5338    6.4512 H         1 SM9         0.0627
     81 H40        29.6070   -7.2608   14.6341 H         1 SM9         0.0252
     82 H41        30.7513   -6.6062   13.4140 H         1 SM9         0.0252
     83 H42        28.9800   -6.4720   13.1471 H         1 SM9         0.0252
     84 H43        28.7996   -4.9382   15.1158 H         1 SM9         0.0557
     85 H44        30.5709   -5.0725   15.3827 H         1 SM9         0.0557
@<TRIPOS>BOND
     1    1    2 1  
     2   20    1 1  
     3    2    3 1  
     4    2    4 1  
     5    3    5 1  
     6    5    6 1  
     7    5   39 am 
     8    6    7 1  
     9    7   36 1  
    10    8    9 ar 
    11    8   13 ar 
    12   39    8 1  
    13    9   10 ar 
    14    9   15 1  
    15   10   11 ar 
    16   12   11 ar 
    17   13   12 ar 
    18   13   14 1  
    19   17   16 1  
    20   16   21 1  
    21   16   22 1  
    22   16   25 1  
    23   18   17 1  
    24   19   18 1  
    25   19   20 1  
    26   20   21 1  
    27   22   23 1  
    28   23   24 1  
    29   24   25 1  
    30   24   26 1  
    31   26   27 ar 
    32   26   31 ar 
    33   27   28 ar 
    34   27   32 ar 
    35   28   29 ar 
    36   28   35 ar 
    37   29   30 ar 
    38   30   31 ar 
    39   32   33 ar 
    40   33   34 ar 
    41   34   35 ar 
    42   36   38 1  
    43   38   37 1  
    44   39   40 2  
    45   39   41 2  
    46    1   42 1  
    47    1   43 1  
    48    2   44 1  
    49    3   45 1  
    50    3   46 1  
    51    4   47 1  
    52    6   48 1  
    53    6   49 1  
    54    7   50 1  
    55    7   51 1  
    56   10   52 1  
    57   11   53 1  
    58   12   54 1  
    59   14   55 1  
    60   14   56 1  
    61   14   57 1  
    62   15   58 1  
    63   15   59 1  
    64   15   60 1  
    65   17   61 1  
    66   17   62 1  
    67   18   63 1  
    68   18   64 1  
    69   19   65 1  
    70   19   66 1  
    71   20   67 1  
    72   21   68 1  
    73   21   69 1  
    74   22   70 1  
    75   22   71 1  
    76   23   72 1  
    77   23   73 1  
    78   25   74 1  
    79   25   75 1  
    80   30   76 1  
    81   32   77 1  
    82   33   78 1  
    83   34   79 1  
    84   35   80 1  
    85   37   81 1  
    86   37   82 1  
    87   37   83 1  
    88   38   84 1  
    89   38   85 1  
@<TRIPOS>SUBSTRUCTURE
     1 SM9         1

