### 
### Created by X-TOOL on Mon Sep 10 21:13:06 2018
### 

@<TRIPOS>MOLECULE
3qlm_ligand
   49    48     1     0     0
SMALL
GAST_HUCK


@<TRIPOS>ATOM
      1 C1        -30.8270   17.1690  -12.8580 C.2       1 PLM         0.0348
      2 O1        -30.8180   15.9720  -13.2610 O.co2     1 PLM        -0.5690
      3 O2        -29.8330   17.9370  -12.7330 O.co2     1 PLM        -0.5690
      4 C2        -32.1850   17.7510  -12.4930 C.3       1 PLM         0.0002
      5 C3        -32.5680   17.3070  -11.1040 C.3       1 PLM        -0.0414
      6 C4        -33.0890   18.5130  -10.3500 C.3       1 PLM        -0.0516
      7 C5        -32.2670   18.7500   -9.0620 C.3       1 PLM        -0.0530
      8 C6        -32.6850   17.7560   -7.9530 C.3       1 PLM        -0.0531
      9 C7        -33.9560   18.2000   -7.2040 C.3       1 PLM        -0.0531
     10 C8        -35.1320   17.1750   -7.2810 C.3       1 PLM        -0.0531
     11 C9        -36.0860   17.2120   -8.5370 C.3       1 PLM        -0.0531
     12 CA        -36.7300   18.5670   -8.8890 C.3       1 PLM        -0.0531
     13 CB        -38.2380   18.4120   -8.9770 C.3       1 PLM        -0.0531
     14 CC        -38.8060   17.6600   -7.7780 C.3       1 PLM        -0.0531
     15 CD        -38.0720   17.9210   -6.4440 C.3       1 PLM        -0.0531
     16 CE        -37.1820   19.1790   -6.4310 C.3       1 PLM        -0.0533
     17 CF        -35.9150   18.9940   -5.6210 C.3       1 PLM        -0.0559
     18 CG        -36.1760   18.2440   -4.3320 C.3       1 PLM        -0.0653
     19 H1        -32.9397   17.3982  -13.2113 H         1 PLM         0.0430
     20 H2        -32.1334   18.8493  -12.5251 H         1 PLM         0.0430
     21 H3        -31.6875   16.8967  -10.5879 H         1 PLM         0.0283
     22 H4        -33.3512   16.5368  -11.1617 H         1 PLM         0.0283
     23 H5        -34.1417   18.3429  -10.0802 H         1 PLM         0.0266
     24 H6        -33.0145   19.4014  -10.9943 H         1 PLM         0.0266
     25 H7        -32.4385   19.7775   -8.7086 H         1 PLM         0.0265
     26 H8        -31.1988   18.6126   -9.2855 H         1 PLM         0.0265
     27 H9        -31.8616   17.6705   -7.2286 H         1 PLM         0.0265
     28 H10       -32.8724   16.7744   -8.4127 H         1 PLM         0.0265
     29 H11       -34.2980   19.1513   -7.6375 H         1 PLM         0.0265
     30 H12       -33.6982   18.3511   -6.1454 H         1 PLM         0.0265
     31 H13       -35.7601   17.3349   -6.3922 H         1 PLM         0.0265
     32 H14       -34.6885   16.1692   -7.2405 H         1 PLM         0.0265
     33 H15       -36.9004   16.4951   -8.3559 H         1 PLM         0.0265
     34 H16       -35.4989   16.8876   -9.4088 H         1 PLM         0.0265
     35 H17       -36.3416   18.9155   -9.8573 H         1 PLM         0.0265
     36 H18       -36.4834   19.3023   -8.1089 H         1 PLM         0.0265
     37 H19       -38.4850   17.8568   -9.8939 H         1 PLM         0.0265
     38 H20       -38.6959   19.4113   -9.0188 H         1 PLM         0.0265
     39 H21       -38.7527   16.5825   -7.9930 H         1 PLM         0.0265
     40 H22       -39.8577   17.9576   -7.6540 H         1 PLM         0.0265
     41 H23       -37.4362   17.0499   -6.2272 H         1 PLM         0.0265
     42 H24       -38.8284   18.0289   -5.6527 H         1 PLM         0.0265
     43 H25       -37.7567   20.0116   -5.9991 H         1 PLM         0.0265
     44 H26       -36.9042   19.4236   -7.4668 H         1 PLM         0.0265
     45 H27       -35.4993   19.9833   -5.3793 H         1 PLM         0.0263
     46 H28       -35.1880   18.4275   -6.2215 H         1 PLM         0.0263
     47 H29       -35.2336   18.1316   -3.7760 H         1 PLM         0.0230
     48 H30       -36.5864   17.2499   -4.5628 H         1 PLM         0.0230
     49 H31       -36.8976   18.8057   -3.7206 H         1 PLM         0.0230
@<TRIPOS>BOND
     1    1    2 ar 
     2    1    3 ar 
     3    1    4 1  
     4    4    5 1  
     5    5    6 1  
     6    6    7 1  
     7    7    8 1  
     8    8    9 1  
     9    9   10 1  
    10   10   11 1  
    11   11   12 1  
    12   12   13 1  
    13   13   14 1  
    14   14   15 1  
    15   15   16 1  
    16   16   17 1  
    17   17   18 1  
    18    4   19 1  
    19    4   20 1  
    20    5   21 1  
    21    5   22 1  
    22    6   23 1  
    23    6   24 1  
    24    7   25 1  
    25    7   26 1  
    26    8   27 1  
    27    8   28 1  
    28    9   29 1  
    29    9   30 1  
    30   10   31 1  
    31   10   32 1  
    32   11   33 1  
    33   11   34 1  
    34   12   35 1  
    35   12   36 1  
    36   13   37 1  
    37   13   38 1  
    38   14   39 1  
    39   14   40 1  
    40   15   41 1  
    41   15   42 1  
    42   16   43 1  
    43   16   44 1  
    44   17   45 1  
    45   17   46 1  
    46   18   47 1  
    47   18   48 1  
    48   18   49 1  
@<TRIPOS>SUBSTRUCTURE
     1 PLM         1

