### 
### Created by X-TOOL on Fri Sep 26 17:34:52 2014
### 

@<TRIPOS>MOLECULE
3qnd_ligand
   39    39     1     0     0
SMALL
GAST_HUCK


@<TRIPOS>ATOM
      1 C1         36.0910    4.9630  -19.9490 C.2       1 SIA         0.1039
      2 C2         35.7190    3.5640  -20.4050 C.3       1 SIA         0.2179
      3 C3         34.4880    3.0670  -19.6340 C.3       1 SIA         0.0351
      4 C4         33.2080    3.7490  -20.1130 C.3       1 SIA         0.0850
      5 C5         33.0390    3.5420  -21.6140 C.3       1 SIA         0.0964
      6 C6         34.2770    4.0890  -22.3350 C.3       1 SIA         0.1143
      7 C7         34.2320    3.9000  -23.8550 C.3       1 SIA         0.1114
      8 C8         35.4770    4.4760  -24.5390 C.3       1 SIA         0.1065
      9 C9         35.2980    4.5770  -26.0520 C.3       1 SIA         0.0727
     10 C10        30.6670    3.6170  -22.3050 C.2       1 SIA         0.1733
     11 C11        29.5870    4.5230  -22.8140 C.3       1 SIA         0.0257
     12 N5         31.8430    4.2150  -22.0970 N.am      1 SIA        -0.2790
     13 O1A        36.3290    5.8450  -20.8060 O.co2     1 SIA        -0.5426
     14 O1B        36.1570    5.1910  -18.7180 O.co2     1 SIA        -0.5426
     15 O2         36.8280    2.7060  -20.1210 O.3       1 SIA        -0.3631
     16 O4         32.0770    3.2410  -19.3980 O.3       1 SIA        -0.3893
     17 O6         35.4850    3.5010  -21.8240 O.3       1 SIA        -0.3385
     18 O7         34.1030    2.5070  -24.1790 O.3       1 SIA        -0.3865
     19 O8         35.7810    5.7740  -24.0060 O.3       1 SIA        -0.3869
     20 O9         34.4720    5.7050  -26.3760 O.3       1 SIA        -0.3924
     21 O10        30.4560    2.4310  -22.1000 O.2       1 SIA        -0.3974
     22 H1         34.6271    3.2812  -18.5641 H         1 SIA         0.0336
     23 H2         34.3898    1.9813  -19.7809 H         1 SIA         0.0336
     24 H3         33.2891    4.8281  -19.9156 H         1 SIA         0.0618
     25 H4         32.9475    2.4652  -21.8194 H         1 SIA         0.0608
     26 H5         34.3156    5.1702  -22.1362 H         1 SIA         0.0646
     27 H6         33.3499    4.4324  -24.2403 H         1 SIA         0.0647
     28 H7         36.3235    3.8041  -24.3343 H         1 SIA         0.0643
     29 H8         34.8215    3.6581  -26.4243 H         1 SIA         0.0584
     30 H9         36.2824    4.6982  -26.5277 H         1 SIA         0.0584
     31 H10        28.6608    3.9464  -22.9547 H         1 SIA         0.0467
     32 H11        29.8970    4.9592  -23.7751 H         1 SIA         0.0467
     33 H12        29.4105    5.3283  -22.0858 H         1 SIA         0.0467
     34 H13        31.9059    5.1948  -22.2867 H         1 SIA         0.1856
     35 H14        37.5910    3.0076  -20.5999 H         1 SIA         0.2112
     36 H15        32.2037    3.3804  -18.4669 H         1 SIA         0.2099
     37 H16        34.8734    2.0402  -23.8772 H         1 SIA         0.2100
     38 H17        35.8922    5.7104  -23.0647 H         1 SIA         0.2100
     39 H18        34.8832    6.4994  -26.0562 H         1 SIA         0.2095
@<TRIPOS>BOND
     1    2    1 1  
     2    1   13 ar 
     3    1   14 ar 
     4    3    2 1  
     5    2   15 1  
     6   17    2 1  
     7    4    3 1  
     8    5    4 1  
     9    4   16 1  
    10    5    6 1  
    11   12    5 1  
    12    6    7 1  
    13    6   17 1  
    14    7    8 1  
    15    7   18 1  
    16    8    9 1  
    17    8   19 1  
    18    9   20 1  
    19   10   11 1  
    20   10   12 am 
    21   10   21 2  
    22    3   22 1  
    23    3   23 1  
    24    4   24 1  
    25    5   25 1  
    26    6   26 1  
    27    7   27 1  
    28    8   28 1  
    29    9   29 1  
    30    9   30 1  
    31   11   31 1  
    32   11   32 1  
    33   11   33 1  
    34   12   34 1  
    35   15   35 1  
    36   16   36 1  
    37   18   37 1  
    38   19   38 1  
    39   20   39 1  
@<TRIPOS>SUBSTRUCTURE
     1 SIA         1

