### 
### Created by X-TOOL on Mon Sep 10 21:13:07 2018
### 

@<TRIPOS>MOLECULE
3qox_ligand
   46    48     1     0     0
SMALL
GAST_HUCK


@<TRIPOS>ATOM
      1 N          41.8560   51.3360    1.4430 N.4       1 SAH         0.2327
      2 CA         41.5950   52.7270    1.9560 C.3       1 SAH         0.0291
      3 CB         42.2760   52.9610    3.3260 C.3       1 SAH         0.0114
      4 CG         43.8070   52.8570    3.3140 C.3       1 SAH         0.0005
      5 SD         44.4650   53.1980    4.9230 S.3       1 SAH        -0.1578
      6 C          42.0710   53.7240    0.9240 C.2       1 SAH         0.0844
      7 O          41.5410   54.8350    0.7830 O.co2     1 SAH        -0.5643
      8 OXT        43.0140   53.4450    0.1850 O.co2     1 SAH        -0.5643
      9 C5'        45.1710   51.6630    5.4490 C.3       1 SAH         0.0226
     10 C4'        44.1380   50.8630    6.2410 C.3       1 SAH         0.0995
     11 O4'        44.6050   49.5150    6.3440 O.3       1 SAH        -0.3383
     12 C3'        43.9540   51.3520    7.6820 C.3       1 SAH         0.1132
     13 O3'        42.5650   51.5950    7.9370 O.3       1 SAH        -0.3864
     14 C2'        44.4170   50.1910    8.5490 C.3       1 SAH         0.1385
     15 O2'        43.5890   50.0310    9.6960 O.3       1 SAH        -0.3836
     16 C1'        44.1750   49.0340    7.6140 C.3       1 SAH         0.2009
     17 N9         44.8820   47.8210    8.0420 N.pl3     1 SAH        -0.1919
     18 C8         46.1780   47.7380    8.4470 C.2       1 SAH         0.1123
     19 N7         46.4740   46.4620    8.7670 N.2       1 SAH        -0.2958
     20 C5         45.3670   45.7060    8.5770 C.ar      1 SAH         0.1045
     21 C6         44.9950   44.2720    8.7310 C.ar      1 SAH         0.1298
     22 N6         45.8930   43.3580    9.1770 N.pl3     1 SAH        -0.3152
     23 N1         43.7220   43.9090    8.4150 N.ar      1 SAH        -0.2698
     24 C2         42.8150   44.8090    7.9680 C.ar      1 SAH         0.0533
     25 N3         43.0870   46.1190    7.8160 N.ar      1 SAH        -0.2714
     26 C4         44.3170   46.6140    8.0890 C.ar      1 SAH         0.1613
     27 H1         41.5421   50.6624    2.1240 H         1 SAH         0.2010
     28 H2         42.8441   51.2167    1.2831 H         1 SAH         0.2010
     29 H3         41.3566   51.1975    0.5785 H         1 SAH         0.2010
     30 H4         40.5104   52.8529    2.0893 H         1 SAH         0.1024
     31 H5         41.8884   52.2121    4.0323 H         1 SAH         0.0347
     32 H6         42.0050   53.9685    3.6744 H         1 SAH         0.0347
     33 H7         44.2135   53.5838    2.5953 H         1 SAH         0.0379
     34 H8         44.0984   51.8402    3.0119 H         1 SAH         0.0379
     35 H9         46.0452   51.8624    6.0861 H         1 SAH         0.0402
     36 H10        45.4839   51.0839    4.5677 H         1 SAH         0.0402
     37 H11        43.1731   50.9005    5.7142 H         1 SAH         0.0632
     38 H12        44.5454   52.2593    7.8746 H         1 SAH         0.0647
     39 H13        42.0758   50.7902    7.8124 H         1 SAH         0.2100
     40 H14        45.4723   50.2876    8.8438 H         1 SAH         0.0676
     41 H15        42.6960   49.8621    9.4195 H         1 SAH         0.2101
     42 H16        43.0998   48.8052    7.5759 H         1 SAH         0.0996
     43 H17        46.8717   48.5756    8.5041 H         1 SAH         0.1349
     44 H18        45.6167   42.3708    9.2768 H         1 SAH         0.1820
     45 H19        46.8510   43.6513    9.4158 H         1 SAH         0.1820
     46 H20        41.8200   44.4576    7.7200 H         1 SAH         0.0996
@<TRIPOS>BOND
     1    1    2 1  
     2    2    3 1  
     3    2    6 1  
     4    3    4 1  
     5    4    5 1  
     6    5    9 1  
     7    6    7 ar 
     8    6    8 ar 
     9    9   10 1  
    10   10   11 1  
    11   10   12 1  
    12   11   16 1  
    13   12   13 1  
    14   12   14 1  
    15   14   15 1  
    16   14   16 1  
    17   16   17 1  
    18   17   18 1  
    19   17   26 1  
    20   18   19 2  
    21   19   20 1  
    22   20   21 ar 
    23   20   26 ar 
    24   21   22 1  
    25   21   23 ar 
    26   23   24 ar 
    27   24   25 ar 
    28   25   26 ar 
    29    1   27 1  
    30    1   28 1  
    31    1   29 1  
    32    2   30 1  
    33    3   31 1  
    34    3   32 1  
    35    4   33 1  
    36    4   34 1  
    37    9   35 1  
    38    9   36 1  
    39   10   37 1  
    40   12   38 1  
    41   13   39 1  
    42   14   40 1  
    43   15   41 1  
    44   16   42 1  
    45   18   43 1  
    46   22   44 1  
    47   22   45 1  
    48   24   46 1  
@<TRIPOS>SUBSTRUCTURE
     1 SAH         1

