### 
### Created by X-TOOL on Mon Sep 10 21:13:07 2018
### 

@<TRIPOS>MOLECULE
3qpn_ligand
   42    45     1     0     0
SMALL
GAST_HUCK


@<TRIPOS>ATOM
      1 C1          6.1630   17.5600   34.7520 C.ar      1 PFK        -0.0581
      2 C2          6.5490   16.2680   35.1110 C.ar      1 PFK        -0.0585
      3 C3          7.6360   16.0680   35.9580 C.ar      1 PFK        -0.0435
      4 C4          8.3600   17.1770   36.4390 C.ar      1 PFK         0.0362
      5 C5          7.9740   18.4880   36.0850 C.ar      1 PFK         0.0021
      6 C6          6.8890   18.6620   35.2180 C.ar      1 PFK        -0.0488
      7 N7          9.4300   16.9840   37.2490 N.ar      1 PFK        -0.3005
      8 C8         10.1440   18.0390   37.7550 C.ar      1 PFK         0.0294
      9 C9          9.8010   19.3590   37.4030 C.ar      1 PFK        -0.0277
     10 C10         8.6990   19.6020   36.5680 C.ar      1 PFK        -0.0376
     11 C11        11.3520   17.7640   38.6480 C.3       1 PFK         0.0264
     12 C12        11.0230   17.3420   40.0780 C.3       1 PFK         0.0842
     13 O13        12.2450   16.8800   40.6300 O.3       1 PFK        -0.3084
     14 C14        12.5970   17.0390   41.9480 C.ar      1 PFK         0.1381
     15 C15        12.0420   18.0590   42.6950 C.ar      1 PFK        -0.0094
     16 C16        12.4070   18.2410   44.0260 C.ar      1 PFK         0.0415
     17 C17        13.3370   17.3980   44.5990 C.ar      1 PFK         0.0133
     18 C18        13.9290   16.3740   43.8550 C.ar      1 PFK        -0.0153
     19 C19        13.5540   16.2010   42.5190 C.ar      1 PFK         0.1368
     20 O20        14.0990   15.1920   41.7610 O.3       1 PFK        -0.3165
     21 C21        15.2440   14.4530   42.1920 C.3       1 PFK         0.0595
     22 N22        11.8390   19.2490   44.7480 N.ar      1 PFK        -0.2813
     23 C23        12.1960   19.4480   46.0230 C.ar      1 PFK         0.0751
     24 N24        13.1030   18.6350   46.5990 N.ar      1 PFK        -0.2715
     25 C25        13.6930   17.6240   45.9360 C.ar      1 PFK         0.0269
     26 H1          5.3009   17.7101   34.1122 H         1 PFK         0.0622
     27 H2          5.9997   15.4154   34.7284 H         1 PFK         0.0645
     28 H3          7.9240   15.0634   36.2461 H         1 PFK         0.0623
     29 H4          6.6081   19.6608   34.9042 H         1 PFK         0.0649
     30 H5         10.3892   20.1889   37.7776 H         1 PFK         0.0661
     31 H6          8.4125   20.6129   36.3015 H         1 PFK         0.0764
     32 H7         11.9561   18.6821   38.6950 H         1 PFK         0.0497
     33 H8         11.9421   16.9602   38.1836 H         1 PFK         0.0497
     34 H9         10.2732   16.5372   40.0780 H         1 PFK         0.0644
     35 H10        10.6415   18.1986   40.6530 H         1 PFK         0.0644
     36 H11        11.3159   18.7237   42.2412 H         1 PFK         0.0521
     37 H12        14.6685   15.7230   44.3071 H         1 PFK         0.0544
     38 H13        15.5025   13.7011   41.4319 H         1 PFK         0.0577
     39 H14        15.0186   13.9497   43.1438 H         1 PFK         0.0577
     40 H15        16.0921   15.1394   42.3319 H         1 PFK         0.0577
     41 H16        11.7567   20.2607   46.5901 H         1 PFK         0.1072
     42 H17        14.4290   16.9967   46.4258 H         1 PFK         0.0961
@<TRIPOS>BOND
     1    1    2 ar 
     2    1    6 ar 
     3    2    3 ar 
     4    3    4 ar 
     5    4    5 ar 
     6    4    7 ar 
     7    5    6 ar 
     8    5   10 ar 
     9    7    8 ar 
    10    8    9 ar 
    11    8   11 1  
    12    9   10 ar 
    13   11   12 1  
    14   12   13 1  
    15   13   14 1  
    16   14   15 ar 
    17   14   19 ar 
    18   15   16 ar 
    19   16   17 ar 
    20   16   22 ar 
    21   17   18 ar 
    22   17   25 ar 
    23   18   19 ar 
    24   19   20 1  
    25   20   21 1  
    26   22   23 ar 
    27   23   24 ar 
    28   24   25 ar 
    29    1   26 1  
    30    2   27 1  
    31    3   28 1  
    32    6   29 1  
    33    9   30 1  
    34   10   31 1  
    35   11   32 1  
    36   11   33 1  
    37   12   34 1  
    38   12   35 1  
    39   15   36 1  
    40   18   37 1  
    41   21   38 1  
    42   21   39 1  
    43   21   40 1  
    44   23   41 1  
    45   25   42 1  
@<TRIPOS>SUBSTRUCTURE
     1 PFK         1

