### 
### Created by X-TOOL on Mon Sep 10 21:13:07 2018
### 

@<TRIPOS>MOLECULE
3qpo_ligand
   61    65     1     0     0
SMALL
GAST_HUCK


@<TRIPOS>ATOM
      1 C1         13.1690   16.4320   42.1420 C.ar      1 PFR         0.1323
      2 C2         12.4320   17.3330   41.3490 C.ar      1 PFR         0.1325
      3 C3         11.9290   18.4820   41.9120 C.ar      1 PFR        -0.0173
      4 C4         13.3120   16.6670   43.5110 C.ar      1 PFR        -0.0169
      5 C5         12.7880   17.8270   44.0910 C.ar      1 PFR         0.0259
      6 C6         12.0820   18.7650   43.2950 C.ar      1 PFR         0.0363
      7 C7         11.5600   19.9440   43.9330 C.ar      1 PFR         0.1343
      8 N8         11.7470   20.0680   45.2400 N.ar      1 PFR        -0.2637
      9 C9         12.4120   19.1520   45.9350 C.ar      1 PFR         0.0518
     10 N10        12.9200   18.0700   45.3980 N.ar      1 PFR        -0.3059
     11 O11        13.6280   15.2960   41.4970 O.3       1 PFR        -0.3161
     12 O12        12.3290   17.0530   39.9930 O.3       1 PFR        -0.3144
     13 C13        14.8030   14.7260   42.0350 C.3       1 PFR         0.0601
     14 N14        10.8840   20.9220   43.2030 N.pl3     1 PFR        -0.2797
     15 C15        10.1170   21.9150   43.9790 C.3       1 PFR         0.0354
     16 C16         9.3490   22.9130   43.0750 C.3       1 PFR        -0.0295
     17 C17        10.0930   23.3570   41.7820 C.3       1 PFR        -0.0366
     18 C18        11.0560   22.2560   41.2570 C.3       1 PFR         0.0139
     19 C19        11.8680   21.6710   42.4040 C.3       1 PFR         0.0474
     20 C20        11.9380   22.7210   40.1130 C.ar      1 PFR        -0.0379
     21 C21        11.9250   21.9650   38.9460 C.ar      1 PFR        -0.0600
     22 C22        12.6800   22.3590   37.8800 C.ar      1 PFR        -0.0686
     23 C23        13.4520   23.5150   37.9570 C.ar      1 PFR        -0.0687
     24 C24        13.4720   24.2740   39.0980 C.ar      1 PFR        -0.0686
     25 C25        12.7050   23.8780   40.1860 C.ar      1 PFR        -0.0600
     26 C26        11.0080   17.0670   39.4450 C.3       1 PFR         0.0809
     27 C27        11.1970   17.9070   38.2010 C.3       1 PFR         0.0242
     28 C28        10.0260   18.0390   37.2730 C.ar      1 PFR         0.0306
     29 N29         9.3800   16.9720   36.8700 N.ar      1 PFR        -0.2980
     30 C30         8.3490   17.0350   36.0360 C.ar      1 PFR         0.0028
     31 C31         7.8830   18.2390   35.5140 C.ar      1 PFR        -0.0410
     32 C32         8.5740   19.3990   35.9240 C.ar      1 PFR        -0.0489
     33 C33         9.6570   19.2870   36.8000 C.ar      1 PFR        -0.0323
     34 H1         11.4017   19.1906   41.2835 H         1 PFR         0.0549
     35 H2         13.8331   15.9449   44.1291 H         1 PFR         0.0496
     36 H3         12.5410   19.3073   47.0000 H         1 PFR         0.1016
     37 H4         15.0784   13.8349   41.4519 H         1 PFR         0.0579
     38 H5         14.6251   14.4386   43.0818 H         1 PFR         0.0579
     39 H6         15.6206   15.4605   41.9903 H         1 PFR         0.0579
     40 H7         10.8142   22.4802   44.6149 H         1 PFR         0.0534
     41 H8          9.3917   21.3834   44.6125 H         1 PFR         0.0534
     42 H9          9.1362   23.8137   43.6694 H         1 PFR         0.0287
     43 H10         8.4025   22.4393   42.7753 H         1 PFR         0.0287
     44 H11        10.6761   24.2636   42.0013 H         1 PFR         0.0291
     45 H12         9.3491   23.5791   41.0027 H         1 PFR         0.0291
     46 H13        10.4276   21.4459   40.8585 H         1 PFR         0.0482
     47 H14        12.6523   21.0002   42.0234 H         1 PFR         0.0559
     48 H15        12.3283   22.4707   43.0028 H         1 PFR         0.0559
     49 H16        11.3189   21.0684   38.8836 H         1 PFR         0.0557
     50 H17        12.6787   21.7699   36.9700 H         1 PFR         0.0599
     51 H18        14.0456   23.8190   37.1025 H         1 PFR         0.0559
     52 H19        14.0782   25.1711   39.1505 H         1 PFR         0.0599
     53 H20        12.7045   24.4717   41.0930 H         1 PFR         0.0557
     54 H21        10.2920   17.5332   40.1378 H         1 PFR         0.0637
     55 H22        10.6677   16.0514   39.1944 H         1 PFR         0.0637
     56 H23        12.0247   17.4650   37.6270 H         1 PFR         0.0482
     57 H24        11.4761   18.9201   38.5261 H         1 PFR         0.0482
     58 H25         7.8515   16.1151   35.7508 H         1 PFR         0.0803
     59 H26         7.0402   18.2825   34.8337 H         1 PFR         0.0652
     60 H27         8.2660   20.3729   35.5610 H         1 PFR         0.0719
     61 H28        10.2043   20.1708   37.1071 H         1 PFR         0.0651
@<TRIPOS>BOND
     1    1    2 ar 
     2    1    4 ar 
     3    1   11 1  
     4    2    3 ar 
     5    2   12 1  
     6    3    6 ar 
     7    4    5 ar 
     8    5    6 ar 
     9    5   10 ar 
    10    6    7 ar 
    11    7    8 ar 
    12    7   14 1  
    13    8    9 ar 
    14    9   10 ar 
    15   11   13 1  
    16   12   26 1  
    17   14   15 1  
    18   14   19 1  
    19   15   16 1  
    20   16   17 1  
    21   17   18 1  
    22   18   19 1  
    23   18   20 1  
    24   20   21 ar 
    25   20   25 ar 
    26   21   22 ar 
    27   22   23 ar 
    28   23   24 ar 
    29   24   25 ar 
    30   26   27 1  
    31   27   28 1  
    32   28   29 ar 
    33   28   33 ar 
    34   29   30 ar 
    35   30   31 ar 
    36   31   32 ar 
    37   32   33 ar 
    38    3   34 1  
    39    4   35 1  
    40    9   36 1  
    41   13   37 1  
    42   13   38 1  
    43   13   39 1  
    44   15   40 1  
    45   15   41 1  
    46   16   42 1  
    47   16   43 1  
    48   17   44 1  
    49   17   45 1  
    50   18   46 1  
    51   19   47 1  
    52   19   48 1  
    53   21   49 1  
    54   22   50 1  
    55   23   51 1  
    56   24   52 1  
    57   25   53 1  
    58   26   54 1  
    59   26   55 1  
    60   27   56 1  
    61   27   57 1  
    62   30   58 1  
    63   31   59 1  
    64   32   60 1  
    65   33   61 1  
@<TRIPOS>SUBSTRUCTURE
     1 PFR         1

