### 
### Created by X-TOOL on Mon Sep 10 21:13:06 2018
### 

@<TRIPOS>MOLECULE
3qpp_ligand
   67    72     1     0     0
SMALL
GAST_HUCK


@<TRIPOS>ATOM
      1 C1         13.3440   16.3370   43.1300 C.ar      1 PFW         0.1323
      2 C2         12.5170   17.2500   42.4480 C.ar      1 PFW         0.1325
      3 C3         11.9910   18.3470   43.0870 C.ar      1 PFW        -0.0173
      4 C4         13.6090   16.5220   44.4870 C.ar      1 PFW        -0.0169
      5 C5         13.0600   17.6450   45.1520 C.ar      1 PFW         0.0259
      6 C6         12.2500   18.5890   44.4550 C.ar      1 PFW         0.0363
      7 C7         11.7260   19.7290   45.1680 C.ar      1 PFW         0.1343
      8 N8         12.0130   19.8130   46.4680 N.ar      1 PFW        -0.2637
      9 C9         12.7880   18.9180   47.0730 C.ar      1 PFW         0.0518
     10 N10        13.2930   17.8720   46.4570 N.ar      1 PFW        -0.3059
     11 N11        10.9600   20.7050   44.5330 N.pl3     1 PFW        -0.2797
     12 C12        10.4520   21.7460   45.4610 C.3       1 PFW         0.0354
     13 C13         9.6970   22.8710   44.7100 C.3       1 PFW        -0.0295
     14 C14        10.5130   23.4610   43.5380 C.3       1 PFW        -0.0366
     15 C15        11.1370   22.3210   42.6890 C.3       1 PFW         0.0139
     16 C16        11.9090   21.4080   43.6400 C.3       1 PFW         0.0474
     17 C17        11.9990   22.7890   41.5220 C.ar      1 PFW        -0.0379
     18 C18        12.0320   22.0340   40.3500 C.ar      1 PFW        -0.0600
     19 C19        12.7970   22.4470   39.2680 C.ar      1 PFW        -0.0686
     20 C20        13.5470   23.6150   39.3470 C.ar      1 PFW        -0.0687
     21 C21        13.5180   24.3780   40.5030 C.ar      1 PFW        -0.0686
     22 C22        12.7550   23.9670   41.5930 C.ar      1 PFW        -0.0600
     23 O23        13.8080   15.2720   42.4170 O.3       1 PFW        -0.3161
     24 O24        12.2970   17.0210   41.1120 O.3       1 PFW        -0.3142
     25 C25        15.0430   14.7340   42.9090 C.3       1 PFW         0.0601
     26 C26        10.9870   17.3770   40.6780 C.3       1 PFW         0.0818
     27 C27        11.2640   17.8040   39.2400 C.3       1 PFW         0.0260
     28 C28        10.0790   18.0490   38.3350 C.ar      1 PFW         0.0294
     29 N29         9.3810   17.0310   37.9040 N.ar      1 PFW        -0.3005
     30 C30         8.7350   19.5860   37.0920 C.ar      1 PFW        -0.0376
     31 C31         9.7850   19.3510   37.9440 C.ar      1 PFW        -0.0277
     32 C32         7.9690   18.4810   36.6440 C.ar      1 PFW         0.0021
     33 C33         8.3280   17.1780   37.0990 C.ar      1 PFW         0.0362
     34 C34         7.5920   16.0560   36.6790 C.ar      1 PFW        -0.0435
     35 C35         6.5460   16.2320   35.8270 C.ar      1 PFW        -0.0585
     36 C36         6.1710   17.5100   35.3820 C.ar      1 PFW        -0.0581
     37 C37         6.8640   18.6290   35.7720 C.ar      1 PFW        -0.0488
     38 H1         11.3669   19.0383   42.5324 H         1 PFW         0.0549
     39 H2         14.2281   15.8141   45.0262 H         1 PFW         0.0496
     40 H3         13.0142   19.0573   48.1239 H         1 PFW         0.1016
     41 H4         11.3030   22.1876   46.0003 H         1 PFW         0.0534
     42 H5          9.7656   21.2763   46.1808 H         1 PFW         0.0534
     43 H6          9.4706   23.6783   45.4220 H         1 PFW         0.0287
     44 H7          8.7579   22.4590   44.3120 H         1 PFW         0.0287
     45 H8         11.3164   24.0965   43.9387 H         1 PFW         0.0291
     46 H9          9.8498   24.0657   42.9021 H         1 PFW         0.0291
     47 H10        10.3091   21.7405   42.2558 H         1 PFW         0.0482
     48 H11        12.4785   20.6695   43.0567 H         1 PFW         0.0559
     49 H12        12.6022   22.0113   44.2445 H         1 PFW         0.0559
     50 H13        11.4561   21.1180   40.2835 H         1 PFW         0.0557
     51 H14        12.8097   21.8571   38.3586 H         1 PFW         0.0599
     52 H15        14.1537   23.9283   38.5051 H         1 PFW         0.0559
     53 H16        14.0904   25.2968   40.5591 H         1 PFW         0.0599
     54 H17        12.7457   24.5605   42.5000 H         1 PFW         0.0557
     55 H18        15.3475   13.8827   42.2825 H         1 PFW         0.0579
     56 H19        14.9079   14.3956   43.9469 H         1 PFW         0.0579
     57 H20        15.8209   15.5110   42.8749 H         1 PFW         0.0579
     58 H21        10.5752   18.2053   41.2733 H         1 PFW         0.0639
     59 H22        10.3003   16.5187   40.7195 H         1 PFW         0.0639
     60 H23        11.8734   17.0148   38.7754 H         1 PFW         0.0496
     61 H24        11.8433   18.7382   39.2814 H         1 PFW         0.0496
     62 H25         8.4972   20.5932   36.7693 H         1 PFW         0.0764
     63 H26        10.3831   20.1773   38.3109 H         1 PFW         0.0661
     64 H27         7.8544   15.0643   37.0293 H         1 PFW         0.0623
     65 H28         5.9900   15.3669   35.4842 H         1 PFW         0.0645
     66 H29         5.3197   17.6147   34.7192 H         1 PFW         0.0622
     67 H30         6.5696   19.6103   35.4178 H         1 PFW         0.0649
@<TRIPOS>BOND
     1    1    2 ar 
     2    1    4 ar 
     3    1   23 1  
     4    2    3 ar 
     5    2   24 1  
     6    3    6 ar 
     7    4    5 ar 
     8    5    6 ar 
     9    5   10 ar 
    10    6    7 ar 
    11    7    8 ar 
    12    7   11 1  
    13    8    9 ar 
    14    9   10 ar 
    15   11   12 1  
    16   11   16 1  
    17   12   13 1  
    18   13   14 1  
    19   14   15 1  
    20   15   16 1  
    21   15   17 1  
    22   17   18 ar 
    23   17   22 ar 
    24   18   19 ar 
    25   19   20 ar 
    26   20   21 ar 
    27   21   22 ar 
    28   23   25 1  
    29   24   26 1  
    30   26   27 1  
    31   27   28 1  
    32   28   29 ar 
    33   28   31 ar 
    34   29   33 ar 
    35   31   30 ar 
    36   30   32 ar 
    37   32   33 ar 
    38   32   37 ar 
    39   33   34 ar 
    40   34   35 ar 
    41   35   36 ar 
    42   36   37 ar 
    43    3   38 1  
    44    4   39 1  
    45    9   40 1  
    46   12   41 1  
    47   12   42 1  
    48   13   43 1  
    49   13   44 1  
    50   14   45 1  
    51   14   46 1  
    52   15   47 1  
    53   16   48 1  
    54   16   49 1  
    55   18   50 1  
    56   19   51 1  
    57   20   52 1  
    58   21   53 1  
    59   22   54 1  
    60   25   55 1  
    61   25   56 1  
    62   25   57 1  
    63   26   58 1  
    64   26   59 1  
    65   27   60 1  
    66   27   61 1  
    67   30   62 1  
    68   31   63 1  
    69   34   64 1  
    70   35   65 1  
    71   36   66 1  
    72   37   67 1  
@<TRIPOS>SUBSTRUCTURE
     1 PFW         1

