### 
### Created by X-TOOL on Mon Sep 10 21:13:07 2018
### 

@<TRIPOS>MOLECULE
3qps_ligand
   68    71     1     0     0
SMALL
GAST_HUCK


@<TRIPOS>ATOM
      1 C1         -9.1180   -4.9580  -15.7460 C.3       1 CHD        -0.0448
      2 C2         -8.2860   -5.6610  -16.8050 C.3       1 CHD        -0.0263
      3 C3         -7.2720   -4.6610  -17.3140 C.3       1 CHD         0.0555
      4 O3         -7.9710   -3.6980  -18.1100 O.3       1 CHD        -0.3918
      5 C4         -6.6010   -3.9660  -16.1290 C.3       1 CHD        -0.0234
      6 C5         -6.8370   -4.5940  -14.7470 C.3       1 CHD        -0.0307
      7 C6         -6.2040   -3.6960  -13.6790 C.3       1 CHD        -0.0232
      8 C7         -6.7590   -3.9900  -12.2840 C.3       1 CHD         0.0589
      9 O7         -6.0120   -3.2840  -11.2890 O.3       1 CHD        -0.3915
     10 C8         -8.2580   -3.6680  -12.2110 C.3       1 CHD        -0.0081
     11 C9         -8.8440   -3.6850  -13.6210 C.3       1 CHD        -0.0276
     12 C10        -8.3170   -4.8480  -14.4560 C.3       1 CHD        -0.0257
     13 C11       -10.3690   -3.6570  -13.5620 C.3       1 CHD        -0.0226
     14 C12       -10.9200   -2.4050  -12.8490 C.3       1 CHD         0.0614
     15 O12       -11.0300   -1.2660  -13.7330 O.3       1 CHD        -0.3912
     16 C13       -10.1630   -2.1130  -11.5290 C.3       1 CHD         0.0001
     17 C14        -8.6500   -2.3080  -11.6260 C.3       1 CHD        -0.0276
     18 C15        -8.2090   -1.9310  -10.2170 C.3       1 CHD        -0.0490
     19 C16        -9.1180   -0.7250   -9.9060 C.3       1 CHD        -0.0491
     20 C17       -10.2240   -0.6910  -10.9690 C.3       1 CHD        -0.0303
     21 C18       -10.6920   -3.0470  -10.4390 C.3       1 CHD        -0.0567
     22 C19        -8.4690   -6.1720  -13.7020 C.3       1 CHD        -0.0590
     23 C20       -11.5820   -0.2880  -10.3820 C.3       1 CHD        -0.0390
     24 C21       -12.4040    0.5580  -11.3600 C.3       1 CHD        -0.0620
     25 C22       -11.4270    0.4360   -9.0430 C.3       1 CHD        -0.0386
     26 C23       -11.8010    1.9220   -9.1080 C.3       1 CHD         0.0004
     27 O25        -9.6140    2.7860   -8.7310 O.co2     1 CHD        -0.5690
     28 C24       -10.6220    2.8000   -9.4860 C.2       1 CHD         0.0348
     29 O26       -10.9130    3.8180  -10.1540 O.co2     1 CHD        -0.5690
     30 H1        -10.0356   -5.5350  -15.5589 H         1 CHD         0.0271
     31 H2         -9.3839   -3.9506  -16.0986 H         1 CHD         0.0271
     32 H3         -8.9315   -5.9963  -17.6302 H         1 CHD         0.0290
     33 H4         -7.7719   -6.5286  -16.3658 H         1 CHD         0.0290
     34 H5         -6.5111   -5.1714  -17.9227 H         1 CHD         0.0593
     35 H6         -8.6255   -3.2628  -17.5764 H         1 CHD         0.2098
     36 H7         -6.9717   -2.9309  -16.0941 H         1 CHD         0.0293
     37 H8         -5.5167   -3.9612  -16.3138 H         1 CHD         0.0293
     38 H9         -6.3250   -5.5673  -14.7254 H         1 CHD         0.0308
     39 H10        -6.4110   -2.6452  -13.9298 H         1 CHD         0.0293
     40 H11        -5.1169   -3.8641  -13.6718 H         1 CHD         0.0293
     41 H12        -6.6394   -5.0664  -12.0918 H         1 CHD         0.0596
     42 H13        -6.0698   -2.3503  -11.4544 H         1 CHD         0.2098
     43 H14        -8.7330   -4.4515  -11.6023 H         1 CHD         0.0331
     44 H15        -8.5194   -2.7604  -14.1207 H         1 CHD         0.0310
     45 H16       -10.7157   -4.5498  -13.0210 H         1 CHD         0.0293
     46 H17       -10.7603   -3.6761  -14.5899 H         1 CHD         0.0293
     47 H18       -11.9506   -2.6514  -12.5539 H         1 CHD         0.0599
     48 H19       -10.1719   -1.0515  -14.0795 H         1 CHD         0.2098
     49 H20        -8.2340   -1.5601  -12.3171 H         1 CHD         0.0310
     50 H21        -7.1466   -1.6467  -10.1937 H         1 CHD         0.0268
     51 H22        -8.3836   -2.7554   -9.5099 H         1 CHD         0.0268
     52 H23        -8.5326    0.2055   -9.9440 H         1 CHD         0.0268
     53 H24        -9.5623   -0.8382   -8.9061 H         1 CHD         0.0268
     54 H25        -9.9722    0.0315  -11.7593 H         1 CHD         0.0310
     55 H26       -10.6656   -4.0853  -10.8013 H         1 CHD         0.0236
     56 H27       -11.7276   -2.7715  -10.1909 H         1 CHD         0.0236
     57 H28       -10.0631   -2.9559   -9.5411 H         1 CHD         0.0236
     58 H29        -8.0830   -6.9939  -14.3229 H         1 CHD         0.0235
     59 H30        -9.5320   -6.3479  -13.4805 H         1 CHD         0.0235
     60 H31        -7.9012   -6.1254  -12.7611 H         1 CHD         0.0235
     61 H32       -12.1440   -1.2148  -10.1944 H         1 CHD         0.0302
     62 H33       -13.3662    0.8223  -10.8971 H         1 CHD         0.0233
     63 H34       -12.5854   -0.0174  -12.2798 H         1 CHD         0.0233
     64 H35       -11.8506    1.4764  -11.6052 H         1 CHD         0.0233
     65 H36       -10.3782    0.3541   -8.7215 H         1 CHD         0.0286
     66 H37       -12.0767   -0.0551   -8.3036 H         1 CHD         0.0286
     67 H38       -12.1732    2.2360   -8.1217 H         1 CHD         0.0430
     68 H39       -12.5944    2.0540   -9.8583 H         1 CHD         0.0430
@<TRIPOS>BOND
     1    1    2 1  
     2    1   12 1  
     3    2    3 1  
     4    3    4 1  
     5    3    5 1  
     6    5    6 1  
     7    6    7 1  
     8    6   12 1  
     9    7    8 1  
    10    8    9 1  
    11    8   10 1  
    12   10   11 1  
    13   10   17 1  
    14   11   12 1  
    15   11   13 1  
    16   12   22 1  
    17   13   14 1  
    18   14   15 1  
    19   14   16 1  
    20   16   17 1  
    21   16   20 1  
    22   16   21 1  
    23   17   18 1  
    24   18   19 1  
    25   19   20 1  
    26   20   23 1  
    27   23   24 1  
    28   23   25 1  
    29   25   26 1  
    30   26   28 1  
    31   28   27 ar 
    32   28   29 ar 
    33    1   30 1  
    34    1   31 1  
    35    2   32 1  
    36    2   33 1  
    37    3   34 1  
    38    4   35 1  
    39    5   36 1  
    40    5   37 1  
    41    6   38 1  
    42    7   39 1  
    43    7   40 1  
    44    8   41 1  
    45    9   42 1  
    46   10   43 1  
    47   11   44 1  
    48   13   45 1  
    49   13   46 1  
    50   14   47 1  
    51   15   48 1  
    52   17   49 1  
    53   18   50 1  
    54   18   51 1  
    55   19   52 1  
    56   19   53 1  
    57   20   54 1  
    58   21   55 1  
    59   21   56 1  
    60   21   57 1  
    61   22   58 1  
    62   22   59 1  
    63   22   60 1  
    64   23   61 1  
    65   24   62 1  
    66   24   63 1  
    67   24   64 1  
    68   25   65 1  
    69   25   66 1  
    70   26   67 1  
    71   26   68 1  
@<TRIPOS>SUBSTRUCTURE
     1 CHD         1

