### 
### Created by X-TOOL on Mon Sep 10 21:13:07 2018
### 

@<TRIPOS>MOLECULE
3qqa_ligand
   79    82     1     0     0
SMALL
GAST_HUCK


@<TRIPOS>ATOM
      1 C1        -10.8720  -16.9300  -11.6910 C.3       1 TCH        -0.0448
      2 C2        -12.3500  -17.1920  -11.9600 C.3       1 TCH        -0.0263
      3 C3        -13.2660  -16.4840  -10.9850 C.3       1 TCH         0.0555
      4 O3        -13.6550  -15.1680  -11.4720 O.3       1 TCH        -0.3918
      5 C4        -12.6890  -16.6730   -9.5880 C.3       1 TCH        -0.0234
      6 C5        -11.8010  -17.8760   -9.8390 C.3       1 TCH        -0.0307
      7 C6        -11.4650  -19.0100   -8.8990 C.3       1 TCH        -0.0232
      8 C7        -11.3260  -20.1570   -9.8450 C.3       1 TCH         0.0589
      9 O7        -11.4370  -19.6970  -11.1960 O.3       1 TCH        -0.3915
     10 C8         -9.8900  -20.0680   -9.7420 C.3       1 TCH        -0.0081
     11 C9         -9.5340  -18.6760  -10.3030 C.3       1 TCH        -0.0276
     12 C10       -10.4830  -17.4430  -10.3220 C.3       1 TCH        -0.0257
     13 C11        -8.0320  -18.4320  -10.1930 C.3       1 TCH        -0.0226
     14 C12        -7.2110  -19.7340  -10.2820 C.3       1 TCH         0.0614
     15 O12        -5.9140  -19.4530  -10.8510 O.3       1 TCH        -0.3912
     16 C13        -7.8950  -21.1070  -10.5650 C.3       1 TCH         0.0001
     17 C14        -9.3960  -21.0470  -10.7270 C.3       1 TCH        -0.0276
     18 C15        -9.8680  -22.4510  -10.8670 C.3       1 TCH        -0.0490
     19 C16        -8.7370  -22.9640  -11.7790 C.3       1 TCH        -0.0491
     20 C17        -7.6900  -21.8570  -11.8710 C.3       1 TCH        -0.0303
     21 C18        -7.5540  -22.0800   -9.4560 C.3       1 TCH        -0.0567
     22 C19       -10.0270  -16.2480   -9.4850 C.3       1 TCH        -0.0590
     23 C20        -6.2950  -22.3690  -12.1120 C.3       1 TCH        -0.0384
     24 C21        -5.8270  -23.0990  -10.8870 C.3       1 TCH        -0.0620
     25 C22        -6.1370  -23.1940  -13.3710 C.3       1 TCH        -0.0332
     26 C23        -7.3080  -23.1240  -14.3320 C.3       1 TCH         0.0375
     27 C24        -7.8130  -24.5080  -14.5630 C.2       1 TCH         0.1760
     28 N24        -7.6350  -25.0890  -15.7450 N.am      1 TCH        -0.2855
     29 O24        -8.3520  -25.0590  -13.6530 O.2       1 TCH        -0.3971
     30 C25        -7.7360  -26.5420  -15.9000 C.3       1 TCH         0.0472
     31 C26        -6.6930  -27.1280  -16.8550 C.3       1 TCH         0.0508
     32 S26        -6.7170  -28.7650  -17.1660 S.o2      1 TCH        -0.1896
     33 O1S        -7.4360  -29.5170  -16.1330 O.co2     1 TCH        -0.4845
     34 O2S        -5.3390  -29.2320  -17.3160 O.co2     1 TCH        -0.4845
     35 O3S        -7.3580  -29.0870  -18.4420 O.co2     1 TCH        -0.4845
     36 H1        -10.6816  -15.8477  -11.7394 H         1 TCH         0.0271
     37 H2        -10.2687  -17.4429  -12.4545 H         1 TCH         0.0271
     38 H3        -12.5323  -18.2744  -11.8885 H         1 TCH         0.0290
     39 H4        -12.5873  -16.8466  -12.9770 H         1 TCH         0.0290
     40 H5        -14.2091  -17.0500  -10.9740 H         1 TCH         0.0593
     41 H6        -14.1118  -15.2602  -12.2999 H         1 TCH         0.2098
     42 H7        -13.4726  -16.8900   -8.8472 H         1 TCH         0.0293
     43 H8        -12.1091  -15.7968   -9.2625 H         1 TCH         0.0293
     44 H9        -12.3111  -18.3752  -10.6760 H         1 TCH         0.0308
     45 H10       -12.2745  -19.1836   -8.1747 H         1 TCH         0.0293
     46 H11       -10.5254  -18.8189   -8.3599 H         1 TCH         0.0293
     47 H12       -11.8534  -21.0909   -9.6007 H         1 TCH         0.0596
     48 H13       -11.3472  -20.4340  -11.7887 H         1 TCH         0.2098
     49 H14        -9.5076  -20.2383   -8.7248 H         1 TCH         0.0331
     50 H15        -9.6060  -18.9129  -11.3748 H         1 TCH         0.0310
     51 H16        -7.8234  -17.9495   -9.2267 H         1 TCH         0.0293
     52 H17        -7.7229  -17.7642  -11.0106 H         1 TCH         0.0293
     53 H18        -6.9511  -19.8870   -9.2242 H         1 TCH         0.0599
     54 H19        -5.4117  -20.2575  -10.9040 H         1 TCH         0.2098
     55 H20        -9.6175  -20.5875  -11.7015 H         1 TCH         0.0310
     56 H21       -10.8542  -22.5134  -11.3502 H         1 TCH         0.0268
     57 H22        -9.8981  -22.9791   -9.9026 H         1 TCH         0.0268
     58 H23        -9.1339  -23.1907  -12.7795 H         1 TCH         0.0268
     59 H24        -8.2885  -23.8713  -11.3482 H         1 TCH         0.0268
     60 H25        -7.9351  -21.1896  -12.7104 H         1 TCH         0.0310
     61 H26        -7.6858  -21.5864   -8.4818 H         1 TCH         0.0236
     62 H27        -6.5091  -22.4066   -9.5631 H         1 TCH         0.0236
     63 H28        -8.2194  -22.9538   -9.5173 H         1 TCH         0.0236
     64 H29       -10.7662  -15.4378   -9.5694 H         1 TCH         0.0235
     65 H30        -9.0520  -15.8943   -9.8514 H         1 TCH         0.0235
     66 H31        -9.9347  -16.5518   -8.4318 H         1 TCH         0.0235
     67 H32        -5.6475  -21.4887  -12.2373 H         1 TCH         0.0302
     68 H33        -4.8076  -23.4775  -11.0528 H         1 TCH         0.0233
     69 H34        -6.5026  -23.9426  -10.6824 H         1 TCH         0.0233
     70 H35        -5.8277  -22.4119  -10.0280 H         1 TCH         0.0233
     71 H36        -5.9997  -24.2447  -13.0759 H         1 TCH         0.0292
     72 H37        -5.2394  -22.8414  -13.9001 H         1 TCH         0.0292
     73 H38        -6.9799  -22.6847  -15.2856 H         1 TCH         0.0502
     74 H39        -8.1073  -22.5048  -13.8987 H         1 TCH         0.0502
     75 H40        -7.4282  -24.5236  -16.5435 H         1 TCH         0.1851
     76 H41        -8.7370  -26.7821  -16.2878 H         1 TCH         0.0535
     77 H42        -7.6041  -27.0076  -14.9122 H         1 TCH         0.0535
     78 H43        -5.7034  -26.8934  -16.4360 H         1 TCH         0.0488
     79 H44        -6.8138  -26.6141  -17.8200 H         1 TCH         0.0488
@<TRIPOS>BOND
     1    1    2 1  
     2    1   12 1  
     3    2    3 1  
     4    3    4 1  
     5    3    5 1  
     6    5    6 1  
     7    6    7 1  
     8    6   12 1  
     9    7    8 1  
    10    8    9 1  
    11    8   10 1  
    12   10   11 1  
    13   10   17 1  
    14   11   12 1  
    15   11   13 1  
    16   12   22 1  
    17   13   14 1  
    18   14   15 1  
    19   14   16 1  
    20   16   17 1  
    21   16   20 1  
    22   16   21 1  
    23   17   18 1  
    24   18   19 1  
    25   19   20 1  
    26   20   23 1  
    27   23   24 1  
    28   23   25 1  
    29   25   26 1  
    30   26   27 1  
    31   27   28 am 
    32   27   29 2  
    33   28   30 1  
    34   30   31 1  
    35   31   32 1  
    36   32   33 ar 
    37   32   34 ar 
    38   32   35 ar 
    39    1   36 1  
    40    1   37 1  
    41    2   38 1  
    42    2   39 1  
    43    3   40 1  
    44    4   41 1  
    45    5   42 1  
    46    5   43 1  
    47    6   44 1  
    48    7   45 1  
    49    7   46 1  
    50    8   47 1  
    51    9   48 1  
    52   10   49 1  
    53   11   50 1  
    54   13   51 1  
    55   13   52 1  
    56   14   53 1  
    57   15   54 1  
    58   17   55 1  
    59   18   56 1  
    60   18   57 1  
    61   19   58 1  
    62   19   59 1  
    63   20   60 1  
    64   21   61 1  
    65   21   62 1  
    66   21   63 1  
    67   22   64 1  
    68   22   65 1  
    69   22   66 1  
    70   23   67 1  
    71   24   68 1  
    72   24   69 1  
    73   24   70 1  
    74   25   71 1  
    75   25   72 1  
    76   26   73 1  
    77   26   74 1  
    78   28   75 1  
    79   30   76 1  
    80   30   77 1  
    81   31   78 1  
    82   31   79 1  
@<TRIPOS>SUBSTRUCTURE
     1 TCH         1

