### 
### Created by X-TOOL on Mon Sep 10 21:13:10 2018
### 

@<TRIPOS>MOLECULE
3qqk_ligand
   31    32     1     0     0
SMALL
GAST_HUCK


@<TRIPOS>ATOM
      1 C1         62.6090  153.3670  -46.9750 C.2       1 X02        -0.1155
      2 C2         62.9490  154.6470  -46.7530 C.2       1 X02        -0.0662
      3 C3         64.2770  155.2210  -47.1900 C.3       1 X02         0.0630
      4 N4         64.3310  155.2730  -48.6750 N.pl3     1 X02        -0.2675
      5 C5         65.2960  154.5150  -49.2260 C.2       1 X02         0.1867
      6 N6         65.5940  154.5220  -50.4520 N.2       1 X02        -0.2767
      7 C7         66.6600  153.6400  -50.8810 C.2       1 X02         0.0826
      8 C8         67.1440  152.9470  -49.8360 C.2       1 X02         0.0911
      9 S9         66.3090  153.3730  -48.3050 S.3       1 X02         0.0065
     10 N10        67.0840  153.5300  -52.1310 N.pl3     1 X02        -0.3319
     11 C11        68.2350  151.9300  -49.8750 C.2       1 X02         0.1291
     12 C12        68.7100  151.1570  -48.6490 C.ar      1 X02         0.0231
     13 C13        67.7700  150.4830  -47.7990 C.ar      1 X02        -0.0450
     14 C14        68.2240  149.7510  -46.6610 C.ar      1 X02        -0.0566
     15 C15        69.6140  149.6850  -46.3670 C.ar      1 X02        -0.0578
     16 C16        70.5530  150.3500  -47.2110 C.ar      1 X02        -0.0566
     17 C17        70.1030  151.0830  -48.3500 C.ar      1 X02        -0.0450
     18 O18        68.7750  151.6840  -50.9510 O.2       1 X02        -0.4029
     19 H1         61.6409  152.9953  -46.6426 H         1 X02         0.0290
     20 H2         63.3014  152.7007  -47.4874 H         1 X02         0.0290
     21 H3         62.2413  155.2957  -46.2388 H         1 X02         0.0693
     22 H4         65.0924  154.5845  -46.8157 H         1 X02         0.0714
     23 H5         64.3887  156.2370  -46.7835 H         1 X02         0.0714
     24 H6         63.6822  155.8431  -49.2362 H         1 X02         0.1963
     25 H7         67.8490  152.8794  -52.3600 H         1 X02         0.1746
     26 H8         66.6487  154.0950  -52.8741 H         1 X02         0.1746
     27 H9         66.7103  150.5302  -48.0225 H         1 X02         0.0665
     28 H10        67.5098  149.2456  -46.0211 H         1 X02         0.0628
     29 H11        69.9598  149.1300  -45.5025 H         1 X02         0.0651
     30 H12        71.6122  150.2983  -46.9862 H         1 X02         0.0628
     31 H13        70.8209  151.5844  -48.9890 H         1 X02         0.0665
@<TRIPOS>BOND
     1    1    2 2  
     2    2    3 1  
     3    3    4 1  
     4    4    5 1  
     5    5    6 2  
     6    5    9 1  
     7    6    7 1  
     8    7    8 2  
     9    7   10 1  
    10    8    9 1  
    11    8   11 1  
    12   11   12 1  
    13   11   18 2  
    14   12   13 ar 
    15   12   17 ar 
    16   13   14 ar 
    17   14   15 ar 
    18   15   16 ar 
    19   16   17 ar 
    20    1   19 1  
    21    1   20 1  
    22    2   21 1  
    23    3   22 1  
    24    3   23 1  
    25    4   24 1  
    26   10   25 1  
    27   10   26 1  
    28   13   27 1  
    29   14   28 1  
    30   15   29 1  
    31   16   30 1  
    32   17   31 1  
@<TRIPOS>SUBSTRUCTURE
     1 X02         1

