### 
### Created by X-TOOL on Mon Sep 10 21:13:11 2018
### 

@<TRIPOS>MOLECULE
3qqs_ligand
   28    29     1     0     0
SMALL
GAST_HUCK


@<TRIPOS>ATOM
      1 OAA        30.7020   -4.7710   26.9290 O.co2     1 17C        -0.5646
      2 OAB        26.9160   -7.3360   28.9720 O.co2     1 17C        -0.5646
      3 OAC        31.5540   -5.2870   24.9710 O.co2     1 17C        -0.5646
      4 OAD        28.3070   -5.8560   28.1030 O.co2     1 17C        -0.5646
      5 CAE        34.0030   -8.3060   28.0840 C.ar      1 17C        -0.0695
      6 CAF        30.5960   -7.5280   32.2850 C.ar      1 17C        -0.0695
      7 CAG        34.3210   -7.8160   26.8240 C.ar      1 17C        -0.0703
      8 CAH        29.2120   -7.6090   32.4320 C.ar      1 17C        -0.0703
      9 CAI        32.8480   -7.8860   28.7450 C.ar      1 17C        -0.0356
     10 CAJ        31.1470   -7.1650   31.0600 C.ar      1 17C        -0.0356
     11 CAK        33.4800   -6.8850   26.2210 C.ar      1 17C        -0.0578
     12 CAL        28.3990   -7.3340   31.3410 C.ar      1 17C        -0.0578
     13 NAM        30.8630   -6.5200   28.7580 N.pl3     1 17C        -0.2695
     14 CAN        31.4480   -5.4470   26.2010 C.2       1 17C         0.0569
     15 CAO        27.9900   -6.6880   28.9760 C.2       1 17C         0.0569
     16 CAP        31.9930   -6.9590   28.1520 C.ar      1 17C         0.0741
     17 CAQ        30.3420   -6.8890   29.9530 C.ar      1 17C         0.0741
     18 CAR        32.3270   -6.4740   26.8790 C.ar      1 17C         0.0321
     19 CAS        28.9540   -6.9630   30.1210 C.ar      1 17C         0.0321
     20 H1         34.6606   -9.0242   28.5603 H         1 17C         0.0607
     21 H2         31.2436   -7.7481   33.1260 H         1 17C         0.0607
     22 H3         35.2158   -8.1554   26.3149 H         1 17C         0.0522
     23 H4         28.7764   -7.8832   33.3860 H         1 17C         0.0522
     24 H5         32.6144   -8.2834   29.7261 H         1 17C         0.0538
     25 H6         32.2244   -7.0950   30.9630 H         1 17C         0.0538
     26 H7         33.7230   -6.4830   25.2441 H         1 17C         0.0619
     27 H8         27.3222   -7.4091   31.4408 H         1 17C         0.0619
     28 H9         30.3275   -5.8091   28.2395 H         1 17C         0.2110
@<TRIPOS>BOND
     1   14    1 ar 
     2   15    2 ar 
     3   14    3 ar 
     4   15    4 ar 
     5    5    7 ar 
     6    9    5 ar 
     7    8    6 ar 
     8    6   10 ar 
     9    7   11 ar 
    10   12    8 ar 
    11   16    9 ar 
    12   10   17 ar 
    13   11   18 ar 
    14   19   12 ar 
    15   13   16 1  
    16   17   13 1  
    17   18   14 1  
    18   15   19 1  
    19   16   18 ar 
    20   17   19 ar 
    21    5   20 1  
    22    6   21 1  
    23    7   22 1  
    24    8   23 1  
    25    9   24 1  
    26   10   25 1  
    27   11   26 1  
    28   12   27 1  
    29   13   28 1  
@<TRIPOS>SUBSTRUCTURE
     1 17C         1

