### 
### Created by X-TOOL on Mon Sep 10 21:13:08 2018
### 

@<TRIPOS>MOLECULE
3qqu_ligand
   56    60     1     0     0
SMALL
GAST_HUCK


@<TRIPOS>ATOM
      1 C1        -10.8970    0.4580   -0.1090 C.ar      1 01P        -0.0018
      2 N1        -12.0770   -7.0030   -4.9250 N.pl3     1 01P        -0.3134
      3 O1        -12.3850   -9.7470   -4.7760 O.3       1 01P        -0.3760
      4 C2        -11.0240   -9.2930   -4.8170 C.3       1 01P         0.0666
      5 N2        -10.8840   -1.6950    0.9790 N.pl3     1 01P        -0.2502
      6 O2        -10.1160   -6.0660   -3.0510 O.3       1 01P        -0.3294
      7 C3        -10.8440   -7.7950   -5.0610 C.3       1 01P         0.0462
      8 N3        -10.1440   -4.8490    2.5880 N.ar      1 01P        -0.2983
      9 C4        -11.4550   -0.8790   -2.4930 C.ar      1 01P         0.1924
     10 N4        -11.3450    0.4690   -2.4230 N.ar      1 01P        -0.2696
     11 C5        -13.3580   -7.6820   -5.1880 C.3       1 01P         0.0462
     12 N5        -11.2910   -1.5730   -1.3760 N.ar      1 01P        -0.2351
     13 C6        -13.1970   -9.1000   -5.7170 C.3       1 01P         0.0666
     14 N6        -11.7160   -1.5240   -3.6850 N.pl3     1 01P        -0.2538
     15 C7        -12.1830   -6.4200   -0.2960 C.ar      1 01P        -0.0522
     16 C8        -12.0310   -7.8500    0.0270 C.ar      1 01P        -0.0602
     17 C9        -11.2670   -8.2940    1.1980 C.ar      1 01P        -0.0596
     18 C10       -10.6540   -7.2940    2.0570 C.ar      1 01P        -0.0438
     19 C11       -12.8030   -3.3480   -4.8760 C.ar      1 01P        -0.0605
     20 C12       -11.7920   -2.8770   -3.9570 C.ar      1 01P         0.0438
     21 C13       -10.8890   -3.7970   -3.3570 C.ar      1 01P        -0.0203
     22 C14       -10.9920   -5.1790   -3.6680 C.ar      1 01P         0.1005
     23 C15       -12.0040   -5.6550   -4.5920 C.ar      1 01P         0.0598
     24 C16       -12.9320   -4.7390   -5.2120 C.ar      1 01P        -0.0610
     25 C17        -8.7650   -5.6890   -2.6990 C.3       1 01P         0.0563
     26 C18       -10.9010   -3.0590    1.2020 C.ar      1 01P         0.0947
     27 C19       -11.5700   -4.0450    0.3540 C.ar      1 01P        -0.0146
     28 C20       -11.5570   -5.4330    0.5670 C.ar      1 01P        -0.0046
     29 C21       -10.7700   -5.8500    1.7840 C.ar      1 01P         0.0395
     30 C22       -10.1740   -3.5090    2.3560 C.ar      1 01P         0.0396
     31 C23       -11.0780    1.1590   -1.3060 C.ar      1 01P         0.0009
     32 C24       -11.0190   -0.9590   -0.1910 C.ar      1 01P         0.1348
     33 H         -10.6759    0.9655    0.8300 H         1 01P         0.0583
     34 H         -10.5485   -9.8054   -5.6533 H         1 01P         0.0579
     35 H         -10.5943   -9.5042   -3.8378 H         1 01P         0.0579
     36 H         -10.7490   -1.1318    1.8186 H         1 01P         0.2177
     37 H         -10.1455   -7.4304   -4.3078 H         1 01P         0.0528
     38 H         -10.5009   -7.6778   -6.0889 H         1 01P         0.0528
     39 H         -13.8834   -7.1061   -5.9499 H         1 01P         0.0528
     40 H         -13.8955   -7.7447   -4.2418 H         1 01P         0.0528
     41 H         -14.1586   -9.5999   -5.8330 H         1 01P         0.0579
     42 H         -12.7517   -9.1123   -6.7118 H         1 01P         0.0579
     43 H         -11.8767   -0.9109   -4.4842 H         1 01P         0.2143
     44 H         -12.7563   -6.1077   -1.1689 H         1 01P         0.0620
     45 H         -12.4968   -8.5944   -0.6188 H         1 01P         0.0630
     46 H         -11.1607   -9.3558    1.4203 H         1 01P         0.0619
     47 H         -10.0908   -7.6224    2.9305 H         1 01P         0.0636
     48 H         -13.4864   -2.6283   -5.3266 H         1 01P         0.0413
     49 H         -10.1245   -3.4448   -2.6645 H         1 01P         0.0426
     50 H         -13.6975   -5.0877   -5.9052 H         1 01P         0.0456
     51 H          -8.2239   -5.3984   -3.5995 H         1 01P         0.0572
     52 H          -8.7927   -4.8501   -2.0036 H         1 01P         0.0572
     53 H          -8.2636   -6.5353   -2.2295 H         1 01P         0.0572
     54 H         -12.1212   -3.6739   -0.5100 H         1 01P         0.0635
     55 H          -9.6677   -2.8064    3.0179 H         1 01P         0.0836
     56 H         -11.0032    2.2462   -1.3295 H         1 01P         0.0848
@<TRIPOS>BOND
     1    1   31 ar 
     2   32    1 ar 
     3    2    7 1  
     4    2   11 1  
     5   23    2 1  
     6    4    3 1  
     7   13    3 1  
     8    7    4 1  
     9   26    5 1  
    10    5   32 1  
    11   22    6 1  
    12    6   25 1  
    13    8   29 ar 
    14   30    8 ar 
    15    9   10 ar 
    16   12    9 ar 
    17    9   14 1  
    18   31   10 ar 
    19   11   13 1  
    20   32   12 ar 
    21   14   20 1  
    22   16   15 ar 
    23   15   28 ar 
    24   17   16 ar 
    25   18   17 ar 
    26   29   18 ar 
    27   20   19 ar 
    28   19   24 ar 
    29   20   21 ar 
    30   21   22 ar 
    31   22   23 ar 
    32   24   23 ar 
    33   26   27 ar 
    34   26   30 ar 
    35   27   28 ar 
    36   28   29 ar 
    37    1   33 1  
    38    4   34 1  
    39    4   35 1  
    40    5   36 1  
    41    7   37 1  
    42    7   38 1  
    43   11   39 1  
    44   11   40 1  
    45   13   41 1  
    46   13   42 1  
    47   14   43 1  
    48   15   44 1  
    49   16   45 1  
    50   17   46 1  
    51   18   47 1  
    52   19   48 1  
    53   21   49 1  
    54   24   50 1  
    55   25   51 1  
    56   25   52 1  
    57   25   53 1  
    58   27   54 1  
    59   30   55 1  
    60   31   56 1  
@<TRIPOS>SUBSTRUCTURE
     1 01P         1

