### 
### Created by X-TOOL on Mon Sep 10 21:13:07 2018
### 

@<TRIPOS>MOLECULE
3qri_ligand
   69    73     1     0     0
SMALL
GAST_HUCK


@<TRIPOS>ATOM
      1 C1         26.5400    7.9350   28.7590 C.ar      1 919         0.1347
      2 C2         26.9920    6.6310   28.5320 C.ar      1 919        -0.0125
      3 C3         27.1300    5.6850   29.5410 C.ar      1 919        -0.0375
      4 C4         26.8920    6.0360   30.8630 C.ar      1 919         0.0443
      5 C5         26.3500    7.2820   31.1250 C.ar      1 919         0.0053
      6 C6         26.2240    8.2250   30.0900 C.ar      1 919        -0.0062
      7 C9         26.5480    5.3600   33.0870 C.ar      1 919         0.0092
      8 N10        26.9800    5.1040   31.8390 N.ar      1 919        -0.2971
      9 C13        26.0300    7.6110   32.4420 C.ar      1 919        -0.0368
     10 C14        26.2700    6.6790   33.4480 C.ar      1 919        -0.0333
     11 C22        29.0890   20.1520   30.3000 C.ar      1 919         0.0057
     12 N23        28.6330   21.0580   31.1800 N.ar      1 919        -0.2925
     13 C24        28.3310   20.7220   32.4460 C.ar      1 919         0.1117
     14 C25        28.5310   19.4100   32.8760 C.ar      1 919         0.0183
     15 C26        29.0080   18.4590   31.9850 C.ar      1 919         0.1379
     16 C27        29.2920   18.8320   30.6840 C.ar      1 919         0.0024
     17 C34        27.6220   14.5020   30.4660 C.ar      1 919        -0.0492
     18 C35        27.8550   15.7500   31.0450 C.ar      1 919        -0.0445
     19 C36        28.9910   15.9850   31.8080 C.ar      1 919         0.1030
     20 C37        29.9050   14.9540   31.9970 C.ar      1 919        -0.0068
     21 C38        29.6810   13.7170   31.4130 C.ar      1 919         0.1452
     22 C39        28.5530   13.4710   30.6310 C.ar      1 919         0.0916
     23 C46        25.5050    9.5670   25.9910 C.2       1 919        -0.0026
     24 C47        26.0910   10.6450   26.6250 C.2       1 919        -0.0186
     25 C48        26.7810   10.1020   27.6990 C.2       1 919         0.2203
     26 N49        26.4570    8.7880   27.7170 N.pl3     1 919        -0.1012
     27 N50        25.6590    8.4110   26.6400 N.2       1 919        -0.1651
     28 N56        27.5220   10.6070   28.7330 N.am      1 919        -0.1797
     29 C58        27.6000   11.9190   29.0400 C.2       1 919         0.3199
     30 N60        28.3470   12.2220   30.1160 N.am      1 919        -0.2184
     31 O63        27.0330   12.7870   28.3770 O.2       1 919        -0.3801
     32 O65        29.2240   17.1830   32.4340 O.3       1 919        -0.2573
     33 F68        30.5930   12.7680   31.6170 F         1 919        -0.1960
     34 C70        27.8100   21.7820   33.3890 C.2       1 919         0.2205
     35 O72        27.4140   21.4530   34.4960 O.2       1 919        -0.3791
     36 N74        27.8050   23.0510   32.9930 N.am      1 919        -0.2874
     37 C76        27.5850   24.1310   33.9340 C.3       1 919         0.0193
     38 C79        24.4900    9.7050   24.8860 C.3       1 919        -0.0453
     39 C81        25.2690    9.5690   23.5810 C.3       1 919        -0.0853
     40 C83        23.7790   11.0620   24.9430 C.3       1 919        -0.0853
     41 C85        23.4640    8.5790   24.9890 C.3       1 919        -0.0853
     42 H1         27.2475    6.3437   27.5185 H         1 919         0.0663
     43 H2         27.4241    4.6710   29.2952 H         1 919         0.0644
     44 H3         25.8668    9.2189   30.3340 H         1 919         0.0625
     45 H4         26.4179    4.5546   33.8008 H         1 919         0.0852
     46 H5         25.6009    8.5779   32.6788 H         1 919         0.0759
     47 H6         26.2415    6.9722   34.4912 H         1 919         0.0689
     48 H7         29.3008   20.4532   29.2804 H         1 919         0.0803
     49 H8         28.3147   19.1345   33.9019 H         1 919         0.0696
     50 H9         29.6678   18.1047   29.9735 H         1 919         0.0673
     51 H10        26.7204   14.3315   29.8889 H         1 919         0.0467
     52 H11        27.1375   16.5490   30.8967 H         1 919         0.0486
     53 H12        30.7909   15.1174   32.5999 H         1 919         0.0505
     54 H13        26.0255   11.6947   26.3427 H         1 919         0.0222
     55 H14        28.0386    9.9628   29.2970 H         1 919         0.2345
     56 H15        28.7948   11.4604   30.5844 H         1 919         0.2220
     57 H16        27.9559   23.2644   32.0277 H         1 919         0.1844
     58 H17        27.6203   25.0934   33.4024 H         1 919         0.0484
     59 H18        28.3681   24.1098   34.7062 H         1 919         0.0484
     60 H19        26.5996   24.0097   34.4076 H         1 919         0.0484
     61 H20        24.5780    9.6616   22.7302 H         1 919         0.0133
     62 H21        25.7610    8.5857   23.5484 H         1 919         0.0133
     63 H22        26.0295   10.3617   23.5236 H         1 919         0.0133
     64 H23        23.2226   11.1449   25.8882 H         1 919         0.0133
     65 H24        23.0802   11.1456   24.0976 H         1 919         0.0133
     66 H25        24.5240   11.8691   24.8841 H         1 919         0.0133
     67 H26        23.9796    7.6082   24.9476 H         1 919         0.0133
     68 H27        22.7534    8.6527   24.1525 H         1 919         0.0133
     69 H28        22.9198    8.6647   25.9411 H         1 919         0.0133
@<TRIPOS>BOND
     1    1    2 ar 
     2    1    6 ar 
     3   26    1 1  
     4    2    3 ar 
     5    3    4 ar 
     6    5    4 ar 
     7    4    8 ar 
     8    6    5 ar 
     9    5    9 ar 
    10    8    7 ar 
    11   10    7 ar 
    12    9   10 ar 
    13   11   12 ar 
    14   16   11 ar 
    15   13   12 ar 
    16   14   13 ar 
    17   13   34 1  
    18   15   14 ar 
    19   15   16 ar 
    20   32   15 1  
    21   17   18 ar 
    22   22   17 ar 
    23   18   19 ar 
    24   20   19 ar 
    25   19   32 1  
    26   21   20 ar 
    27   22   21 ar 
    28   21   33 1  
    29   30   22 1  
    30   24   23 1  
    31   27   23 2  
    32   23   38 1  
    33   25   24 2  
    34   25   26 1  
    35   28   25 1  
    36   26   27 1  
    37   29   28 am 
    38   29   30 am 
    39   29   31 2  
    40   34   35 2  
    41   34   36 am 
    42   36   37 1  
    43   38   39 1  
    44   38   40 1  
    45   38   41 1  
    46    2   42 1  
    47    3   43 1  
    48    6   44 1  
    49    7   45 1  
    50    9   46 1  
    51   10   47 1  
    52   11   48 1  
    53   14   49 1  
    54   16   50 1  
    55   17   51 1  
    56   18   52 1  
    57   20   53 1  
    58   24   54 1  
    59   28   55 1  
    60   30   56 1  
    61   36   57 1  
    62   37   58 1  
    63   37   59 1  
    64   37   60 1  
    65   39   61 1  
    66   39   62 1  
    67   39   63 1  
    68   40   64 1  
    69   40   65 1  
    70   40   66 1  
    71   41   67 1  
    72   41   68 1  
    73   41   69 1  
@<TRIPOS>SUBSTRUCTURE
     1 919         1

