### 
### Created by X-TOOL on Mon Sep 10 21:13:07 2018
### 

@<TRIPOS>MOLECULE
3qrj_ligand
   69    73     1     0     0
SMALL
GAST_HUCK


@<TRIPOS>ATOM
      1 C1          5.4690   -7.3460   27.0400 C.ar      1 919         0.1347
      2 C2          4.9360   -6.0800   26.7090 C.ar      1 919        -0.0125
      3 C3          4.6860   -5.0810   27.6660 C.ar      1 919        -0.0375
      4 C4          4.9600   -5.3190   29.0050 C.ar      1 919         0.0443
      5 C5          5.4910   -6.5580   29.3750 C.ar      1 919         0.0053
      6 C6          5.7320   -7.5240   28.4090 C.ar      1 919        -0.0062
      7 C9          5.0050   -4.6220   31.2460 C.ar      1 919         0.0092
      8 N10         4.7450   -4.3740   29.9440 N.ar      1 919        -0.2971
      9 C13         5.7850   -6.8370   30.7080 C.ar      1 919        -0.0368
     10 C14         5.5390   -5.8460   31.6560 C.ar      1 919        -0.0333
     11 C22         2.8770  -19.7360   28.7390 C.ar      1 919         0.0057
     12 N23         3.4360  -20.7000   29.5090 N.ar      1 919        -0.2925
     13 C24         3.9380  -20.3760   30.7400 C.ar      1 919         0.1117
     14 C25         3.8410  -19.0690   31.2310 C.ar      1 919         0.0183
     15 C26         3.2610  -18.0690   30.4510 C.ar      1 919         0.1379
     16 C27         2.7630  -18.4280   29.2060 C.ar      1 919         0.0024
     17 C34         4.3690  -14.3040   28.5680 C.ar      1 919        -0.0492
     18 C35         4.2140  -15.5140   29.2210 C.ar      1 919        -0.0445
     19 C36         3.3330  -15.6180   30.2950 C.ar      1 919         0.1030
     20 C37         2.6190  -14.5080   30.6880 C.ar      1 919        -0.0068
     21 C38         2.7920  -13.2940   30.0380 C.ar      1 919         0.1452
     22 C39         3.6740  -13.1610   28.9860 C.ar      1 919         0.0916
     23 C46         6.4270   -9.2380   24.3250 C.2       1 919        -0.0026
     24 C47         5.8040  -10.2410   25.0040 C.2       1 919        -0.0186
     25 C48         5.4000   -9.6530   26.2090 C.2       1 919         0.2203
     26 N49         5.6990   -8.3290   26.1210 N.pl3     1 919        -0.1012
     27 N50         6.3590   -8.0120   24.9090 N.2       1 919        -0.1651
     28 N56         4.7230  -10.1840   27.2680 N.am      1 919        -0.1797
     29 C58         4.6980  -11.5070   27.5410 C.2       1 919         0.3199
     30 N60         3.7730  -11.9090   28.4380 N.am      1 919        -0.2184
     31 O63         5.4580  -12.2850   26.9640 O.2       1 919        -0.3801
     32 O65         3.1430  -16.7870   30.9700 O.3       1 919        -0.2573
     33 F68         2.1010  -12.2120   30.4320 F         1 919        -0.1960
     34 C70         4.6000  -21.4230   31.5840 C.2       1 919         0.2205
     35 O72         5.3880  -21.0560   32.4670 O.2       1 919        -0.3791
     36 N74         4.2490  -22.6860   31.3570 N.am      1 919        -0.2874
     37 C76         4.5330  -23.7820   32.2710 C.3       1 919         0.0193
     38 C79         7.0110   -9.4650   22.9390 C.3       1 919        -0.0453
     39 C81         6.0210  -10.1310   22.0050 C.3       1 919        -0.0853
     40 C83         8.2040  -10.4110   23.0150 C.3       1 919        -0.0853
     41 C85         7.1980   -8.1070   22.3070 C.3       1 919        -0.0853
     42 H           4.7083   -5.8683   25.6643 H         1 919         0.0663
     43 H           4.2769   -4.1194   27.3560 H         1 919         0.0644
     44 H           6.1502   -8.4777   28.7309 H         1 919         0.0625
     45 H           4.7945   -3.8536   31.9899 H         1 919         0.0852
     46 H           6.1958   -7.8032   31.0009 H         1 919         0.0759
     47 H           5.7612   -6.0242   32.7081 H         1 919         0.0689
     48 H           2.5122  -19.9862   27.7428 H         1 919         0.0803
     49 H           4.2196  -18.8322   32.2253 H         1 919         0.0696
     50 H           2.2759  -17.6762   28.5849 H         1 919         0.0673
     51 H           5.0431  -14.2387   27.7140 H         1 919         0.0467
     52 H           4.7813  -16.3858   28.8950 H         1 919         0.0486
     53 H           1.9132  -14.5833   31.5152 H         1 919         0.0505
     54 H           5.6535  -11.2713   24.6815 H         1 919         0.0222
     55 H           4.2111   -9.5517   27.8832 H         1 919         0.2345
     56 H           3.0846  -11.2175   28.7352 H         1 919         0.2220
     57 H           3.7519  -22.8984   30.4920 H         1 919         0.1844
     58 H           5.6108  -23.8686   32.4087 H         1 919         0.0484
     59 H           4.0574  -23.5848   33.2317 H         1 919         0.0484
     60 H           4.1428  -24.7108   31.8549 H         1 919         0.0484
     61 H           5.7315  -11.0987   22.4146 H         1 919         0.0133
     62 H           5.1385   -9.4995   21.9028 H         1 919         0.0133
     63 H           6.4834  -10.2722   21.0281 H         1 919         0.0133
     64 H           8.9700   -9.9768   23.6575 H         1 919         0.0133
     65 H           7.8820  -11.3675   23.4268 H         1 919         0.0133
     66 H           8.6100  -10.5628   22.0149 H         1 919         0.0133
     67 H           6.2339   -7.6029   22.2401 H         1 919         0.0133
     68 H           7.8780   -7.5137   22.9183 H         1 919         0.0133
     69 H           7.6167   -8.2272   21.3078 H         1 919         0.0133
@<TRIPOS>BOND
     1    1    2 ar 
     2    1    6 ar 
     3   26    1 1  
     4    2    3 ar 
     5    3    4 ar 
     6    5    4 ar 
     7    4    8 ar 
     8    6    5 ar 
     9    5    9 ar 
    10    8    7 ar 
    11   10    7 ar 
    12    9   10 ar 
    13   11   12 ar 
    14   16   11 ar 
    15   13   12 ar 
    16   14   13 ar 
    17   13   34 1  
    18   15   14 ar 
    19   15   16 ar 
    20   32   15 1  
    21   17   18 ar 
    22   22   17 ar 
    23   18   19 ar 
    24   20   19 ar 
    25   19   32 1  
    26   21   20 ar 
    27   22   21 ar 
    28   21   33 1  
    29   30   22 1  
    30   24   23 1  
    31   27   23 2  
    32   23   38 1  
    33   25   24 2  
    34   25   26 1  
    35   28   25 1  
    36   26   27 1  
    37   29   28 am 
    38   29   30 am 
    39   29   31 2  
    40   34   35 2  
    41   34   36 am 
    42   36   37 1  
    43   38   39 1  
    44   38   40 1  
    45   38   41 1  
    46    2   42 1  
    47    3   43 1  
    48    6   44 1  
    49    7   45 1  
    50    9   46 1  
    51   10   47 1  
    52   11   48 1  
    53   14   49 1  
    54   16   50 1  
    55   17   51 1  
    56   18   52 1  
    57   20   53 1  
    58   24   54 1  
    59   28   55 1  
    60   30   56 1  
    61   36   57 1  
    62   37   58 1  
    63   37   59 1  
    64   37   60 1  
    65   39   61 1  
    66   39   62 1  
    67   39   63 1  
    68   40   64 1  
    69   40   65 1  
    70   40   66 1  
    71   41   67 1  
    72   41   68 1  
    73   41   69 1  
@<TRIPOS>SUBSTRUCTURE
     1 919         1

