### 
### Created by X-TOOL on Mon Sep 10 21:13:06 2018
### 

@<TRIPOS>MOLECULE
3qrk_ligand
   59    62     1     0     0
SMALL
GAST_HUCK


@<TRIPOS>ATOM
      1 C1         14.9470   19.0200   10.0590 C.ar      1 9DP         0.0408
      2 N1         17.7130   21.3490   10.7340 N.am      1 9DP        -0.2126
      3 O1         17.1350   23.2510   11.7860 O.2       1 9DP        -0.3785
      4 CL1        14.6680   17.2210   10.1100 Cl        1 9DP        -0.0742
      5 C2         16.1680   19.5970   10.3900 C.ar      1 9DP         0.0729
      6 N2         19.2890   22.6580   11.7670 N.am      1 9DP        -0.1794
      7 O2         25.4680   23.0550    5.9730 O.co2     1 9DP        -0.5641
      8 CL2        17.4920   18.5770   10.9160 Cl        1 9DP        -0.0825
      9 C3         13.9350   19.8900    9.6660 C.ar      1 9DP        -0.0629
     10 N3         21.1730   25.2170   13.3410 N.2       1 9DP        -0.1674
     11 O3         23.5810   22.2420    5.2240 O.co2     1 9DP        -0.5641
     12 C4         14.1880   21.2720    9.6200 C.ar      1 9DP        -0.0749
     13 N4         20.9340   24.1130   12.5100 N.pl3     1 9DP        -0.1084
     14 C5         15.4290   21.8190    9.9590 C.ar      1 9DP        -0.0407
     15 N5         25.3330   22.3630    8.3570 N.4       1 9DP         0.2529
     16 C6         16.4540   20.9600   10.3540 C.ar      1 9DP         0.0818
     17 C7         18.0070   22.4460   11.4540 C.2       1 9DP         0.3236
     18 C8         19.6480   23.7270   12.4920 C.2       1 9DP         0.2187
     19 C9         18.9570   24.5630   13.3760 C.2       1 9DP        -0.0194
     20 C10        19.9350   25.4480   13.8450 C.2       1 9DP        -0.0042
     21 C11        19.6340   26.5720   14.8150 C.3       1 9DP        -0.0464
     22 C12        19.2420   25.9950   16.1710 C.3       1 9DP        -0.0859
     23 C13        18.5110   27.4320   14.2460 C.3       1 9DP        -0.0859
     24 C14        20.8250   27.4900   15.0040 C.3       1 9DP        -0.0859
     25 C15        23.1560   23.3090   12.4830 C.ar      1 9DP        -0.0331
     26 C16        21.9680   23.6200   11.8240 C.ar      1 9DP         0.1163
     27 C17        21.9810   23.4440   10.4340 C.ar      1 9DP        -0.0248
     28 C18        24.2650   22.8560   11.8090 C.ar      1 9DP        -0.0617
     29 C19        24.2290   22.6790   10.4430 C.ar      1 9DP         0.0006
     30 C20        23.0840   22.9830    9.7330 C.ar      1 9DP        -0.0292
     31 C21        25.4720   22.1510    9.7820 C.3       1 9DP        -0.0018
     32 C22        24.1270   22.0680    7.6050 C.3       1 9DP         0.0398
     33 C23        22.9550   22.8240    8.2280 C.3       1 9DP         0.0333
     34 C24        24.3850   22.4700    6.1670 C.2       1 9DP         0.0865
     35 H1         18.4765   20.7681   10.4520 H         1 9DP         0.2268
     36 H2         19.9874   22.0128   11.4573 H         1 9DP         0.2344
     37 H3         12.9581   19.5048    9.3971 H         1 9DP         0.0493
     38 H4         13.3911   21.9384    9.3101 H         1 9DP         0.0579
     39 H5         15.5913   22.8899    9.9157 H         1 9DP         0.0503
     40 H6         26.0630   21.8167    7.9273 H         1 9DP         0.2044
     41 H7         25.5147   23.3432    8.2079 H         1 9DP         0.2044
     42 H8         17.9006   24.5322   13.6389 H         1 9DP         0.0221
     43 H9         19.0250   26.8162   16.8700 H         1 9DP         0.0131
     44 H10        20.0706   25.3879   16.5646 H         1 9DP         0.0131
     45 H11        18.3477   25.3648   16.0567 H         1 9DP         0.0131
     46 H12        18.8172   27.8359   13.2697 H         1 9DP         0.0131
     47 H13        18.2992   28.2620   14.9360 H         1 9DP         0.0131
     48 H14        17.6064   26.8186   14.1216 H         1 9DP         0.0131
     49 H15        21.6686   26.9161   15.4151 H         1 9DP         0.0131
     50 H16        20.5578   28.2987   15.7001 H         1 9DP         0.0131
     51 H17        21.1131   27.9214   14.0340 H         1 9DP         0.0131
     52 H18        23.2070   23.4279   13.5593 H         1 9DP         0.0539
     53 H19        21.0812   23.6808    9.8778 H         1 9DP         0.0529
     54 H20        25.1746   22.6364   12.3562 H         1 9DP         0.0534
     55 H21        26.3543   22.6901   10.1572 H         1 9DP         0.0959
     56 H22        25.5815   21.0769    9.9926 H         1 9DP         0.0959
     57 H23        23.9148   20.9894    7.6455 H         1 9DP         0.1048
     58 H24        22.9016   23.8241    7.7732 H         1 9DP         0.0485
     59 H25        22.0279   22.2729    8.0119 H         1 9DP         0.0485
@<TRIPOS>BOND
     1    1    4 1  
     2    5    1 ar 
     3    1    9 ar 
     4    2   16 1  
     5   17    2 am 
     6   17    3 2  
     7    5    8 1  
     8   16    5 ar 
     9    6   17 am 
    10   18    6 1  
    11   34    7 ar 
    12   12    9 ar 
    13   13   10 1  
    14   10   20 2  
    15   34   11 ar 
    16   14   12 ar 
    17   13   18 1  
    18   26   13 1  
    19   16   14 ar 
    20   15   31 1  
    21   32   15 1  
    22   18   19 2  
    23   19   20 1  
    24   20   21 1  
    25   21   22 1  
    26   21   23 1  
    27   21   24 1  
    28   26   25 ar 
    29   28   25 ar 
    30   27   26 ar 
    31   30   27 ar 
    32   29   28 ar 
    33   30   29 ar 
    34   31   29 1  
    35   33   30 1  
    36   32   33 1  
    37   32   34 1  
    38    2   35 1  
    39    6   36 1  
    40    9   37 1  
    41   12   38 1  
    42   14   39 1  
    43   15   40 1  
    44   15   41 1  
    45   19   42 1  
    46   22   43 1  
    47   22   44 1  
    48   22   45 1  
    49   23   46 1  
    50   23   47 1  
    51   23   48 1  
    52   24   49 1  
    53   24   50 1  
    54   24   51 1  
    55   25   52 1  
    56   27   53 1  
    57   28   54 1  
    58   31   55 1  
    59   31   56 1  
    60   32   57 1  
    61   33   58 1  
    62   33   59 1  
@<TRIPOS>SUBSTRUCTURE
     1 9DP         1

