### 
### Created by X-TOOL on Mon Sep 10 21:13:07 2018
### 

@<TRIPOS>MOLECULE
3qs1_ligand
   86    90     1     0     0
SMALL
GAST_HUCK


@<TRIPOS>ATOM
      1 N2         28.5280   -9.3920    5.4040 N.am      1 006        -0.2750
      2 C20        27.1050   -9.3590    5.1740 C.3       1 006         0.0945
      3 O20        26.4820   -7.1280    4.8490 O.3       1 006        -0.3689
      4 C21        26.6110   -8.8180    6.4830 C.3       1 006         0.0086
      5 O21        24.6260   -8.1800    3.7310 O.2       1 006        -0.3938
      6 C22        26.7490   -9.9230    7.4770 C.ar      1 006        -0.0406
      7 C23        27.5400   -9.7200    8.5940 C.ar      1 006        -0.0603
      8 C24        27.6630  -10.7760    9.4900 C.ar      1 006        -0.0686
      9 C25        27.0230  -12.0090    9.2890 C.ar      1 006        -0.0687
     10 C26        26.2410  -12.2000    8.1690 C.ar      1 006        -0.0686
     11 C27        26.1060  -11.1540    7.2540 C.ar      1 006        -0.0603
     12 C28        26.8630   -8.3050    4.1510 C.3       1 006         0.1683
     13 C29        25.6600   -8.6800    3.3770 C.2       1 006         0.2129
     14 N30        22.7290  -11.2970    2.3470 N.am      1 006        -0.2691
     15 O30        20.3950  -11.4020    2.0880 O.3       1 006        -0.3857
     16 C31        22.2390  -12.6000    2.7870 C.3       1 006         0.1007
     17 C32        21.9910  -12.6520    4.2410 C.ar      1 006        -0.0133
     18 C33        22.8860  -12.2670    5.2690 C.ar      1 006        -0.0646
     19 C34        22.5000  -12.3570    6.6050 C.ar      1 006        -0.0754
     20 C35        20.8230  -12.7470    2.2600 C.3       1 006         0.0951
     21 C36        20.7400  -13.1300    4.5220 C.ar      1 006        -0.0361
     22 C37        20.3310  -13.2160    5.8540 C.ar      1 006        -0.0667
     23 C38        21.2100  -12.8280    6.8790 C.ar      1 006        -0.0755
     24 C39        19.9440  -13.4530    3.2930 C.3       1 006         0.0085
     25 C40        35.6540   -9.1960    6.4880 C.ar      1 006        -0.0862
     26 O40        28.5210  -11.5000    4.7240 O.2       1 006        -0.3941
     27 C41        35.1240   -8.6250    5.3630 C.ar      1 006        -0.0759
     28 O41        31.4350   -9.4070    5.7420 O.3       1 006        -0.3054
     29 C42        33.7520   -8.6890    5.1180 C.ar      1 006        -0.0230
     30 C43        33.3390   -8.0120    3.8320 C.3       1 006        -0.0348
     31 C44        32.6130  -10.6470    8.1890 C.3       1 006        -0.0348
     32 C45        32.8370   -9.3490    5.9850 C.ar      1 006         0.0966
     33 C46        33.4190   -9.9210    7.1360 C.ar      1 006        -0.0230
     34 C47        34.7940   -9.8360    7.3650 C.ar      1 006        -0.0759
     35 C48        29.1760  -10.5310    5.1600 C.2       1 006         0.2069
     36 C49        30.7000  -10.6160    5.4420 C.3       1 006         0.1556
     37 C50        26.9640  -10.1850    1.8880 C.3       1 006         0.0831
     38 N50        25.7550   -9.5310    2.3720 N.am      1 006        -0.2383
     39 O50        24.7520  -12.0550    2.2050 O.2       1 006        -0.3943
     40 S50        26.5730  -10.6960    0.2830 S.3       1 006        -0.1252
     41 C51        25.0570   -9.8080    0.1470 C.3       1 006         0.0532
     42 C52        24.1620  -10.3470   -0.9860 C.3       1 006        -0.0463
     43 C53        25.3390   -8.3460   -0.1640 C.3       1 006        -0.0463
     44 C54        24.5660   -9.8620    1.6130 C.3       1 006         0.1486
     45 C55        24.0040  -11.1560    2.0800 C.2       1 006         0.2053
     46 H          29.0242   -8.5680    5.7434 H         1 006         0.1859
     47 H          26.6581  -10.3031    4.8626 H         1 006         0.0630
     48 H          25.6840   -7.3009    5.3539 H         1 006         0.2134
     49 H          25.5742   -8.4912    6.4040 H         1 006         0.0451
     50 H          27.1881   -7.9448    6.7873 H         1 006         0.0451
     51 H          28.0465   -8.7700    8.7647 H         1 006         0.0557
     52 H          28.2780  -10.6417   10.3798 H         1 006         0.0599
     53 H          27.1436  -12.8127   10.0154 H         1 006         0.0559
     54 H          25.7368  -13.1517    8.0010 H         1 006         0.0599
     55 H          25.4977  -11.2924    6.3601 H         1 006         0.0557
     56 H          27.7445   -8.1774    3.5226 H         1 006         0.0863
     57 H          22.0889  -10.5089    2.2490 H         1 006         0.1881
     58 H          19.4956  -11.3940    1.7523 H         1 006         0.2103
     59 H          22.9771  -13.3334    2.4623 H         1 006         0.0732
     60 H          23.8799  -11.8991    5.0143 H         1 006         0.0538
     61 H          23.1785  -12.0708    7.4086 H         1 006         0.0541
     62 H          20.7652  -13.3366    1.3450 H         1 006         0.0659
     63 H          19.3339  -13.5826    6.0977 H         1 006         0.0537
     64 H          20.8790  -12.8954    7.9153 H         1 006         0.0541
     65 H          19.7792  -14.5154    3.1132 H         1 006         0.0439
     66 H          18.9036  -13.1287    3.3158 H         1 006         0.0439
     67 H          36.7243   -9.1484    6.6886 H         1 006         0.0489
     68 H          35.7777   -8.1171    4.6540 H         1 006         0.0471
     69 H          32.8812   -8.7450    3.1678 H         1 006         0.0366
     70 H          32.6214   -7.2219    4.0530 H         1 006         0.0366
     71 H          34.2175   -7.5824    3.3507 H         1 006         0.0366
     72 H          32.9694  -11.6736    8.2738 H         1 006         0.0366
     73 H          32.7292  -10.1403    9.1471 H         1 006         0.0366
     74 H          31.5613  -10.6487    7.9026 H         1 006         0.0366
     75 H          35.2053  -10.2898    8.2667 H         1 006         0.0471
     76 H          30.7818  -11.2217    6.3445 H         1 006         0.0853
     77 H          31.1344  -10.9812    4.5114 H         1 006         0.0853
     78 H          27.2554  -11.0224    2.5220 H         1 006         0.0640
     79 H          27.8234   -9.5147    1.9037 H         1 006         0.0640
     80 H          24.6898  -10.2619   -1.9359 H         1 006         0.0245
     81 H          23.9246  -11.3932   -0.7932 H         1 006         0.0245
     82 H          23.2408   -9.7657   -1.0274 H         1 006         0.0245
     83 H          25.9383   -7.9144    0.6376 H         1 006         0.0245
     84 H          25.8837   -8.2746   -1.1054 H         1 006         0.0245
     85 H          24.3963   -7.8050   -0.2463 H         1 006         0.0245
     86 H          23.7200   -9.1857    1.7350 H         1 006         0.0816
@<TRIPOS>BOND
     1    2    1 1  
     2    1   35 am 
     3    2    4 1  
     4   12    2 1  
     5   12    3 1  
     6    4    6 1  
     7   13    5 2  
     8    6    7 ar 
     9    6   11 ar 
    10    7    8 ar 
    11    8    9 ar 
    12   10    9 ar 
    13   11   10 ar 
    14   13   12 1  
    15   38   13 am 
    16   14   16 1  
    17   45   14 am 
    18   20   15 1  
    19   16   17 1  
    20   16   20 1  
    21   17   18 ar 
    22   17   21 ar 
    23   18   19 ar 
    24   19   23 ar 
    25   20   24 1  
    26   21   22 ar 
    27   24   21 1  
    28   22   23 ar 
    29   27   25 ar 
    30   34   25 ar 
    31   35   26 2  
    32   29   27 ar 
    33   28   32 1  
    34   36   28 1  
    35   29   30 1  
    36   32   29 ar 
    37   33   31 1  
    38   32   33 ar 
    39   33   34 ar 
    40   35   36 1  
    41   38   37 1  
    42   40   37 1  
    43   44   38 1  
    44   45   39 2  
    45   41   40 1  
    46   41   42 1  
    47   41   43 1  
    48   44   41 1  
    49   44   45 1  
    50    1   46 1  
    51    2   47 1  
    52    3   48 1  
    53    4   49 1  
    54    4   50 1  
    55    7   51 1  
    56    8   52 1  
    57    9   53 1  
    58   10   54 1  
    59   11   55 1  
    60   12   56 1  
    61   14   57 1  
    62   15   58 1  
    63   16   59 1  
    64   18   60 1  
    65   19   61 1  
    66   20   62 1  
    67   22   63 1  
    68   23   64 1  
    69   24   65 1  
    70   24   66 1  
    71   25   67 1  
    72   27   68 1  
    73   30   69 1  
    74   30   70 1  
    75   30   71 1  
    76   31   72 1  
    77   31   73 1  
    78   31   74 1  
    79   34   75 1  
    80   36   76 1  
    81   36   77 1  
    82   37   78 1  
    83   37   79 1  
    84   42   80 1  
    85   42   81 1  
    86   42   82 1  
    87   43   83 1  
    88   43   84 1  
    89   43   85 1  
    90   44   86 1  
@<TRIPOS>SUBSTRUCTURE
     1 006         1

