### 
### Created by X-TOOL on Mon Sep 10 21:13:07 2018
### 

@<TRIPOS>MOLECULE
3qs4_ligand
   27    28     1     0     0
SMALL
GAST_HUCK


@<TRIPOS>ATOM
      1 N         -25.9110   -4.1100  -19.2820 N.4       1 TRP         0.2336
      2 CA        -26.7070   -5.3330  -19.3020 C.3       1 TRP         0.0324
      3 C         -26.2980   -6.2810  -18.1820 C.2       1 TRP         0.0858
      4 O         -26.8820   -7.3490  -18.0050 O.co2     1 TRP        -0.5642
      5 CB        -26.5790   -6.0350  -20.6550 C.3       1 TRP         0.0190
      6 CG        -26.9740   -5.1790  -21.8120 C.2       1 TRP        -0.0392
      7 CD1       -26.1750   -4.7670  -22.8390 C.2       1 TRP         0.0167
      8 CD2       -28.2670   -4.6160  -22.0570 C.ar      1 TRP        -0.0213
      9 NE1       -26.8940   -3.9880  -23.7130 N.pl3     1 TRP        -0.2890
     10 CE2       -28.1810   -3.8780  -23.2540 C.ar      1 TRP         0.0603
     11 CE3       -29.4910   -4.6650  -21.3810 C.ar      1 TRP        -0.0747
     12 CZ2       -29.2720   -3.1960  -23.7900 C.ar      1 TRP        -0.0443
     13 CZ3       -30.5710   -3.9870  -21.9140 C.ar      1 TRP        -0.0792
     14 CH2       -30.4550   -3.2630  -23.1060 C.ar      1 TRP        -0.0768
     15 OXT       -25.3770   -5.9990  -17.4220 O.co2     1 TRP        -0.5642
     16 H         -26.0089   -3.6568  -18.3735 H         1 TRP         0.2011
     17 H         -24.9308   -4.3410  -19.4442 H         1 TRP         0.2011
     18 H         -26.2388   -3.4804  -20.0144 H         1 TRP         0.2011
     19 H         -27.7481   -5.0509  -19.1448 H         1 TRP         0.1040
     20 H         -27.2482   -6.8953  -20.6414 H         1 TRP         0.0423
     21 H         -25.5301   -6.3001  -20.7877 H         1 TRP         0.0423
     22 H         -25.1204   -5.0192  -22.9496 H         1 TRP         0.0795
     23 H         -26.5295   -3.5611  -24.5646 H         1 TRP         0.2216
     24 H         -29.5908   -5.2268  -20.4523 H         1 TRP         0.0540
     25 H         -29.1860   -2.6311  -24.7182 H         1 TRP         0.0541
     26 H         -31.5300   -4.0167  -21.3968 H         1 TRP         0.0510
     27 H         -31.3273   -2.7404  -23.4985 H         1 TRP         0.0530
@<TRIPOS>BOND
     1    1    2 1  
     2    2    3 1  
     3    2    5 1  
     4    3    4 ar 
     5    3   15 ar 
     6    5    6 1  
     7    6    7 2  
     8    6    8 1  
     9    7    9 1  
    10    8   10 ar 
    11    8   11 ar 
    12    9   10 1  
    13   10   12 ar 
    14   11   13 ar 
    15   12   14 ar 
    16   13   14 ar 
    17    1   16 1  
    18    1   17 1  
    19    1   18 1  
    20    2   19 1  
    21    5   20 1  
    22    5   21 1  
    23    7   22 1  
    24    9   23 1  
    25   11   24 1  
    26   12   25 1  
    27   13   26 1  
    28   14   27 1  
@<TRIPOS>SUBSTRUCTURE
     1 TRP         1

