### 
### Created by X-TOOL on Mon Sep 10 21:13:07 2018
### 

@<TRIPOS>MOLECULE
3qs5_ligand
   27    28     1     0     0
SMALL
GAST_HUCK


@<TRIPOS>ATOM
      1 N          26.4420   30.7550   19.7450 N.4       1 TRP         0.2336
      2 CA         27.7060   30.0770   19.4680 C.3       1 TRP         0.0324
      3 C          27.5120   28.9250   18.4660 C.2       1 TRP         0.0858
      4 O          28.3750   28.1000   18.1390 O.co2     1 TRP        -0.5642
      5 CB         28.3190   29.5820   20.7760 C.3       1 TRP         0.0190
      6 CG         28.2090   30.5620   21.8910 C.2       1 TRP        -0.0392
      7 CD1        27.6010   30.3700   23.0960 C.2       1 TRP         0.0167
      8 CD2        28.7330   31.8890   21.9100 C.ar      1 TRP        -0.0213
      9 NE1        27.7170   31.4990   23.8680 N.pl3     1 TRP        -0.2890
     10 CE2        28.4090   32.4480   23.1610 C.ar      1 TRP         0.0603
     11 CE3        29.4460   32.6610   20.9880 C.ar      1 TRP        -0.0747
     12 CZ2        28.7750   33.7460   23.5130 C.ar      1 TRP        -0.0443
     13 CZ3        29.8090   33.9470   21.3380 C.ar      1 TRP        -0.0792
     14 CH2        29.4730   34.4780   22.5890 C.ar      1 TRP        -0.0768
     15 OXT        26.4200   28.7930   17.9420 O.co2     1 TRP        -0.5642
     16 H          26.0352   31.0843   18.8695 H         1 TRP         0.2011
     17 H          25.7997   30.1034   20.1958 H         1 TRP         0.2011
     18 H          26.6116   31.5490   20.3624 H         1 TRP         0.2011
     19 H          28.3936   30.7864   19.0074 H         1 TRP         0.1040
     20 H          29.3799   29.4083   20.5957 H         1 TRP         0.0423
     21 H          27.7763   28.6848   21.0735 H         1 TRP         0.0423
     22 H          27.0963   29.4535   23.4018 H         1 TRP         0.0795
     23 H          27.3489   31.6131   24.8124 H         1 TRP         0.2216
     24 H          29.7105   32.2558   20.0113 H         1 TRP         0.0540
     25 H          28.5158   34.1627   24.4863 H         1 TRP         0.0541
     26 H          30.3663   34.5585   20.6284 H         1 TRP         0.0510
     27 H          29.7735   35.4969   22.8334 H         1 TRP         0.0530
@<TRIPOS>BOND
     1    1    2 1  
     2    2    3 1  
     3    2    5 1  
     4    3    4 ar 
     5    3   15 ar 
     6    5    6 1  
     7    6    7 2  
     8    6    8 1  
     9    7    9 1  
    10    8   10 ar 
    11    8   11 ar 
    12    9   10 1  
    13   10   12 ar 
    14   11   13 ar 
    15   12   14 ar 
    16   13   14 ar 
    17    1   16 1  
    18    1   17 1  
    19    1   18 1  
    20    2   19 1  
    21    5   20 1  
    22    5   21 1  
    23    7   22 1  
    24    9   23 1  
    25   11   24 1  
    26   12   25 1  
    27   13   26 1  
    28   14   27 1  
@<TRIPOS>SUBSTRUCTURE
     1 TRP         1

