### 
### Created by X-TOOL on Mon Sep 10 21:13:07 2018
### 

@<TRIPOS>MOLECULE
3qs6_ligand
   27    28     1     0     0
SMALL
GAST_HUCK


@<TRIPOS>ATOM
      1 N          26.9410    0.4010   19.6470 N.4       1 TRP         0.2336
      2 CA         28.0710   -0.3920   19.1920 C.3       1 TRP         0.0324
      3 C          27.5850   -1.5350   18.3140 C.2       1 TRP         0.0858
      4 O          28.2950   -2.5170   18.1140 O.co2     1 TRP        -0.5642
      5 CB         28.8460   -0.9470   20.3860 C.3       1 TRP         0.0190
      6 CG         28.5890   -0.2020   21.6650 C.2       1 TRP        -0.0392
      7 CD1        27.8860   -0.6470   22.7460 C.2       1 TRP         0.0167
      8 CD2        29.0210    1.1250   21.9870 C.ar      1 TRP        -0.0213
      9 NE1        27.8600    0.3160   23.7250 N.pl3     1 TRP        -0.2890
     10 CE2        28.5490    1.4150   23.2840 C.ar      1 TRP         0.0603
     11 CE3        29.7640    2.0960   21.3080 C.ar      1 TRP        -0.0747
     12 CZ2        28.7960    2.6330   23.9140 C.ar      1 TRP        -0.0443
     13 CZ3        30.0070    3.3040   21.9340 C.ar      1 TRP        -0.0792
     14 CH2        29.5260    3.5620   23.2240 C.ar      1 TRP        -0.0768
     15 OXT        26.4710   -1.5060   17.7930 O.co2     1 TRP        -0.5642
     16 H          26.4346    0.7638   18.8393 H         1 TRP         0.2011
     17 H          26.3191   -0.1842   20.2049 H         1 TRP         0.2011
     18 H          27.2791    1.1779   20.2149 H         1 TRP         0.2011
     19 H          28.7342    0.2481   18.6102 H         1 TRP         0.1040
     20 H          29.9081   -0.8533   20.1597 H         1 TRP         0.0423
     21 H          28.5233   -1.9772   20.5361 H         1 TRP         0.0423
     22 H          27.4129   -1.6260   22.8219 H         1 TRP         0.0795
     23 H          27.4024    0.2274   24.6323 H         1 TRP         0.2216
     24 H          30.1440    1.9038   20.3046 H         1 TRP         0.0540
     25 H          28.4223    2.8377   24.9173 H         1 TRP         0.0541
     26 H          30.5833    4.0696   21.4146 H         1 TRP         0.0510
     27 H          29.7381    4.5249   23.6888 H         1 TRP         0.0530
@<TRIPOS>BOND
     1    1    2 1  
     2    2    3 1  
     3    2    5 1  
     4    3    4 ar 
     5    3   15 ar 
     6    5    6 1  
     7    6    7 2  
     8    6    8 1  
     9    7    9 1  
    10    8   10 ar 
    11    8   11 ar 
    12    9   10 1  
    13   10   12 ar 
    14   11   13 ar 
    15   12   14 ar 
    16   13   14 ar 
    17    1   16 1  
    18    1   17 1  
    19    1   18 1  
    20    2   19 1  
    21    5   20 1  
    22    5   21 1  
    23    7   22 1  
    24    9   23 1  
    25   11   24 1  
    26   12   25 1  
    27   13   26 1  
    28   14   27 1  
@<TRIPOS>SUBSTRUCTURE
     1 TRP         1

