### 
### Created by X-TOOL on Mon Sep 10 21:13:10 2018
### 

@<TRIPOS>MOLECULE
3qs8_ligand
   27    28     1     0     0
SMALL
GAST_HUCK


@<TRIPOS>ATOM
      1 OAA         8.5540  -14.9310   31.5700 O.co2     1 17D        -0.5629
      2 OAB         7.2890  -13.7400   32.9410 O.co2     1 17D        -0.5629
      3 CAC         5.7190   -8.2500   34.4620 C.ar      1 17D        -0.0685
      4 CAD         4.7230   -9.2210   34.5730 C.ar      1 17D        -0.0681
      5 CAE         6.7370   -8.3650   33.5110 C.ar      1 17D        -0.0681
      6 CAF         7.6960  -10.9970   28.6520 C.ar      1 17D        -0.0656
      7 CAG         8.6520  -12.0120   28.6460 C.ar      1 17D        -0.0649
      8 CAH         4.7570  -10.3320   33.7200 C.ar      1 17D        -0.0582
      9 CAI         6.7710   -9.4620   32.6550 C.ar      1 17D        -0.0582
     10 CAJ         6.7840  -10.9110   29.7020 C.ar      1 17D        -0.0546
     11 CAK         8.7010  -12.9570   29.6690 C.ar      1 17D        -0.0539
     12 CAL         5.7350  -11.7000   31.8600 C.3       1 17D         0.0163
     13 CAM         7.8730  -13.9230   31.8360 C.2       1 17D         0.0589
     14 CAN         5.7750  -10.4540   32.7610 C.ar      1 17D        -0.0313
     15 CAO         6.8160  -11.8320   30.7530 C.ar      1 17D        -0.0174
     16 CAP         7.7830  -12.8610   30.7200 C.ar      1 17D         0.0136
     17 H           5.7029   -7.3873   35.1281 H         1 17D         0.0561
     18 H           3.9296   -9.1166   35.3130 H         1 17D         0.0600
     19 H           7.5050   -7.5948   33.4397 H         1 17D         0.0600
     20 H           7.6622  -10.2730   27.8378 H         1 17D         0.0621
     21 H           9.3716  -12.0671   27.8291 H         1 17D         0.0568
     22 H           3.9912  -11.1034   33.8012 H         1 17D         0.0561
     23 H           7.5607   -9.5533   31.9093 H         1 17D         0.0561
     24 H           6.0374  -10.1168   29.7038 H         1 17D         0.0568
     25 H           9.4415  -13.7567   29.6505 H         1 17D         0.0634
     26 H           4.7837  -11.6445   31.3309 H         1 17D         0.0592
     27 H           5.8992  -12.5458   32.5277 H         1 17D         0.0592
@<TRIPOS>BOND
     1   13    1 ar 
     2   13    2 ar 
     3    4    3 ar 
     4    5    3 ar 
     5    8    4 ar 
     6    9    5 ar 
     7    7    6 ar 
     8    6   10 ar 
     9   11    7 ar 
    10   14    8 ar 
    11   14    9 ar 
    12   10   15 ar 
    13   16   11 ar 
    14   12   14 1  
    15   15   12 1  
    16   13   16 1  
    17   15   16 ar 
    18    3   17 1  
    19    4   18 1  
    20    5   19 1  
    21    6   20 1  
    22    7   21 1  
    23    8   22 1  
    24    9   23 1  
    25   10   24 1  
    26   11   25 1  
    27   12   26 1  
    28   12   27 1  
@<TRIPOS>SUBSTRUCTURE
     1 17D         1

