### 
### Created by X-TOOL on Mon Sep 10 21:13:08 2018
### 

@<TRIPOS>MOLECULE
3qsb_ligand
   59    61     1     0     0
SMALL
GAST_HUCK


@<TRIPOS>ATOM
      1 C1         50.4550    8.2090   43.8450 C.ar      1 743         0.1322
      2 F1         49.5510    7.3670   44.3680 F         1 743        -0.1835
      3 C2         50.7110    9.4000   44.5190 C.ar      1 743        -0.0282
      4 C3         51.6430   10.2900   43.9530 C.ar      1 743        -0.0571
      5 C4         52.3340    9.9810   42.7820 C.ar      1 743        -0.0257
      6 C5         52.0140    8.7780   42.0800 C.ar      1 743        -0.0571
      7 C6         51.0790    7.9170   42.6170 C.ar      1 743        -0.0282
      8 C7         53.2660   10.8910   42.2780 C.ar      1 743        -0.0267
      9 C8         53.4980   12.1260   42.9320 C.ar      1 743        -0.0609
     10 C9         54.4070   13.0430   42.3870 C.ar      1 743        -0.0570
     11 C10        55.1410   12.7630   41.2400 C.ar      1 743        -0.0116
     12 C11        54.9090   11.5510   40.5880 C.ar      1 743        -0.0570
     13 C12        53.9690   10.6240   41.1120 C.ar      1 743        -0.0609
     14 C13        56.1600   13.7540   40.6840 C.3       1 743         0.1151
     15 O14        57.4210   13.7230   41.4180 O.3       1 743        -0.2594
     16 N15        58.1890   14.8600   41.3690 N.2       1 743        -0.1940
     17 C16        58.7630   15.3080   42.4050 C.2       1 743         0.0630
     18 C17        58.6470   14.6530   43.7710 C.3       1 743         0.1533
     19 C18        57.2810   14.7900   44.4230 C.2       1 743         0.1689
     20 O18        56.4650   15.6300   44.0210 O.2       1 743        -0.3819
     21 C19        57.0520   13.9240   45.6450 C.3       1 743         0.1673
     22 C20        57.6800   12.4990   45.5550 C.3       1 743         0.0240
     23 C21        59.1720   12.6450   45.3700 C.3       1 743         0.0354
     24 C22        59.4410   13.4150   44.0900 C.2       1 743         0.1403
     25 O22        60.4190   13.1410   43.4290 O.2       1 743        -0.3845
     26 C23        55.6470   13.7970   46.1280 C.1       1 743         0.1149
     27 N23        54.5470   13.6580   46.5480 N.1       1 743        -0.3004
     28 C24        57.3820   11.7960   46.8740 C.3       1 743        -0.0533
     29 C25        57.1400   11.6230   44.3940 C.3       1 743        -0.0533
     30 C26        59.5060   16.6200   42.2990 C.3       1 743        -0.0007
     31 C27        60.8690   16.6040   41.6300 C.3       1 743        -0.0436
     32 C28        61.4430   18.0040   41.7420 C.3       1 743        -0.0632
     33 H1         50.2084    9.6345   45.4504 H         1 743         0.0604
     34 H2         51.8284   11.2405   44.4402 H         1 743         0.0606
     35 H3         52.4990    8.5452   41.1389 H         1 743         0.0606
     36 H4         50.8222    7.0064   42.0880 H         1 743         0.0604
     37 H5         52.9740   12.3611   43.8513 H         1 743         0.0604
     38 H6         54.5421   14.0013   42.8754 H         1 743         0.0560
     39 H7         55.4486   11.3161   39.6777 H         1 743         0.0560
     40 H8         53.7974    9.6893   40.5905 H         1 743         0.0604
     41 H9         55.7385   14.7680   40.7480 H         1 743         0.0790
     42 H10        56.3576   13.5047   39.6310 H         1 743         0.0790
     43 H11        59.2176   15.3796   44.3679 H         1 743         0.0941
     44 H12        57.5929   14.4417   46.4508 H         1 743         0.0838
     45 H13        59.6342   11.6490   45.3046 H         1 743         0.0505
     46 H14        59.5974   13.1913   46.2247 H         1 743         0.0505
     47 H15        56.2937   11.6952   46.9980 H         1 743         0.0239
     48 H16        57.7926   12.3874   47.7057 H         1 743         0.0239
     49 H17        57.8445   10.7980   46.8703 H         1 743         0.0239
     50 H18        57.3479   12.1180   43.4339 H         1 743         0.0239
     51 H19        56.0544   11.4892   44.5099 H         1 743         0.0239
     52 H20        57.6349   10.6408   44.4149 H         1 743         0.0239
     53 H21        59.6455   17.0027   43.3208 H         1 743         0.0460
     54 H22        58.8689   17.3141   41.7312 H         1 743         0.0460
     55 H23        60.7655   16.3232   40.5715 H         1 743         0.0288
     56 H24        61.5289   15.8849   42.1373 H         1 743         0.0288
     57 H25        62.4346   18.0328   41.2666 H         1 743         0.0231
     58 H26        61.5371   18.2780   42.8032 H         1 743         0.0231
     59 H27        60.7736   18.7162   41.2373 H         1 743         0.0231
@<TRIPOS>BOND
     1    1    2 1  
     2    1    3 ar 
     3    1    7 ar 
     4    3    4 ar 
     5    4    5 ar 
     6    5    6 ar 
     7    5    8 1  
     8    6    7 ar 
     9    8    9 ar 
    10    8   13 ar 
    11    9   10 ar 
    12   10   11 ar 
    13   11   12 ar 
    14   11   14 1  
    15   12   13 ar 
    16   14   15 1  
    17   15   16 1  
    18   16   17 2  
    19   17   18 1  
    20   17   30 1  
    21   18   19 1  
    22   18   24 1  
    23   19   20 2  
    24   19   21 1  
    25   21   22 1  
    26   21   26 1  
    27   22   23 1  
    28   22   28 1  
    29   22   29 1  
    30   23   24 1  
    31   24   25 2  
    32   26   27 3  
    33   30   31 1  
    34   31   32 1  
    35    3   33 1  
    36    4   34 1  
    37    6   35 1  
    38    7   36 1  
    39    9   37 1  
    40   10   38 1  
    41   12   39 1  
    42   13   40 1  
    43   14   41 1  
    44   14   42 1  
    45   18   43 1  
    46   21   44 1  
    47   23   45 1  
    48   23   46 1  
    49   28   47 1  
    50   28   48 1  
    51   28   49 1  
    52   29   50 1  
    53   29   51 1  
    54   29   52 1  
    55   30   53 1  
    56   30   54 1  
    57   31   55 1  
    58   31   56 1  
    59   32   57 1  
    60   32   58 1  
    61   32   59 1  
@<TRIPOS>SUBSTRUCTURE
     1 743         1

