### 
### Created by X-TOOL on Mon Sep 10 21:13:05 2018
### 

@<TRIPOS>MOLECULE
3qsd_ligand
   57    57     1     0     0
SMALL
GAST_HUCK


@<TRIPOS>ATOM
      1 C1         19.0750    7.7230   19.2750 C.3       1 074        -0.0635
      2 C2         18.6270    9.1290   19.5670 C.3       1 074        -0.0356
      3 C3         19.6940    9.9450   20.2700 C.3       1 074         0.0307
      4 N1         19.2620   11.3560   20.4030 N.am      1 074        -0.2847
      5 C4         18.5250   11.8080   21.4210 C.2       1 074         0.2073
      6 O1         18.1870   11.0440   22.3640 O.2       1 074        -0.3941
      7 C5         18.1510   13.2470   21.5440 C.3       1 074         0.1600
      8 O2         19.3680   14.0110   21.4040 O.3       1 074        -0.3690
      9 C6         17.2300   13.6960   20.3770 C.3       1 074         0.0806
     10 C7         16.7930   15.0690   20.7430 C.2       1 074         0.1830
     11 O3         16.0510   15.3340   21.6950 O.2       1 074        -0.3967
     12 N2         17.3580   16.0080   19.9970 N.am      1 074        -0.2652
     13 C8         17.3340   17.4030   20.3540 C.3       1 074         0.1336
     14 C13        16.0280   18.1060   20.2290 C.2       1 074         0.2061
     15 O4         15.1980   17.6910   19.4260 O.2       1 074        -0.3942
     16 C9         18.4160   18.1550   19.4680 C.3       1 074        -0.0037
     17 C11        18.0910   18.0060   17.9750 C.3       1 074        -0.0491
     18 C10        19.8320   17.6150   19.8570 C.3       1 074        -0.0582
     19 C12        18.9170   19.0120   17.1900 C.3       1 074        -0.0648
     20 N3         15.8680   19.1840   20.9930 N.am      1 074        -0.2556
     21 C17        14.7080   20.0170   20.7880 C.3       1 074         0.0972
     22 C18        14.9710   20.9790   19.6030 C.2       1 074         0.0603
     23 O          16.1240   21.0770   19.0430 O.co2     1 074        -0.5666
     24 C16        14.6410   20.8760   22.0290 C.3       1 074        -0.0159
     25 C15        16.0750   20.9470   22.4740 C.3       1 074        -0.0288
     26 C14        16.7690   19.6830   22.0280 C.3       1 074         0.0362
     27 OT         14.0340   21.7120   19.2100 O.co2     1 074        -0.5666
     28 H          19.9552    7.7495   18.6327 H         1 074         0.0230
     29 H          19.3210    7.2198   20.2101 H         1 074         0.0230
     30 H          18.2722    7.1844   18.7714 H         1 074         0.0230
     31 H          17.7583    9.0754   20.2231 H         1 074         0.0282
     32 H          18.4040    9.6147   18.6170 H         1 074         0.0282
     33 H          20.6121    9.9088   19.6836 H         1 074         0.0520
     34 H          19.8608    9.5298   21.2639 H         1 074         0.0520
     35 H          19.5423   12.0172   19.6787 H         1 074         0.1851
     36 H          17.6396   13.3964   22.4949 H         1 074         0.0863
     37 H          19.1673   14.9469   21.4778 H         1 074         0.2135
     38 H          16.3831   13.0223   20.2469 H         1 074         0.0554
     39 H          17.7509   13.6782   19.4197 H         1 074         0.0554
     40 H          17.8287   15.7313   19.1354 H         1 074         0.1883
     41 H          17.5493   17.4303   21.4222 H         1 074         0.0803
     42 H          18.4021   19.2275   19.6623 H         1 074         0.0345
     43 H          17.0296   18.1898   17.8083 H         1 074         0.0267
     44 H          18.3293   16.9950   17.6446 H         1 074         0.0267
     45 H          20.0150   17.8074   20.9142 H         1 074         0.0235
     46 H          19.8746   16.5422   19.6689 H         1 074         0.0235
     47 H          20.5894   18.1206   19.2580 H         1 074         0.0235
     48 H          18.6714   20.0205   17.5229 H         1 074         0.0230
     49 H          19.9767   18.8204   17.3585 H         1 074         0.0230
     50 H          18.6931   18.9140   16.1278 H         1 074         0.0230
     51 H          13.8119   19.4267   20.5967 H         1 074         0.0728
     52 H          13.9833   20.4613   22.7929 H         1 074         0.0306
     53 H          14.2105   21.8590   21.8378 H         1 074         0.0306
     54 H          16.1270   21.0408   23.5587 H         1 074         0.0286
     55 H          16.5617   21.8175   22.0341 H         1 074         0.0286
     56 H          17.7836   19.8541   21.6682 H         1 074         0.0524
     57 H          16.9282   18.9716   22.8383 H         1 074         0.0524
@<TRIPOS>BOND
     1    1    2 1  
     2    2    3 1  
     3    3    4 1  
     4    4    5 am 
     5    5    6 2  
     6    5    7 1  
     7    7    8 1  
     8    7    9 1  
     9    9   10 1  
    10   10   11 2  
    11   10   12 am 
    12   12   13 1  
    13   13   14 1  
    14   13   16 1  
    15   14   15 2  
    16   14   20 am 
    17   16   17 1  
    18   16   18 1  
    19   17   19 1  
    20   20   21 1  
    21   20   26 1  
    22   21   22 1  
    23   21   24 1  
    24   22   23 ar 
    25   22   27 ar 
    26   24   25 1  
    27   25   26 1  
    28    1   28 1  
    29    1   29 1  
    30    1   30 1  
    31    2   31 1  
    32    2   32 1  
    33    3   33 1  
    34    3   34 1  
    35    4   35 1  
    36    7   36 1  
    37    8   37 1  
    38    9   38 1  
    39    9   39 1  
    40   12   40 1  
    41   13   41 1  
    42   16   42 1  
    43   17   43 1  
    44   17   44 1  
    45   18   45 1  
    46   18   46 1  
    47   18   47 1  
    48   19   48 1  
    49   19   49 1  
    50   19   50 1  
    51   21   51 1  
    52   24   52 1  
    53   24   53 1  
    54   25   54 1  
    55   25   55 1  
    56   26   56 1  
    57   26   57 1  
@<TRIPOS>SUBSTRUCTURE
     1 074         1

