### 
### Created by X-TOOL on Mon Sep 10 21:13:06 2018
### 

@<TRIPOS>MOLECULE
3qtf_ligand
   63    66     1     0     0
SMALL
GAST_HUCK


@<TRIPOS>ATOM
      1 C1         40.9670    9.5160   23.0940 C.3       1 05S        -0.0557
      2 C2         39.8260   10.3680   23.5450 C.2       1 05S        -0.0613
      3 C3         38.4780    9.9980   23.6320 C.2       1 05S         0.0440
      4 N1         37.7700   11.1130   24.0970 N.pl3     1 05S        -0.2308
      5 C4         38.6560   12.1500   24.2970 C.2       1 05S         0.0668
      6 C5         39.9260   11.7080   24.0140 C.2       1 05S         0.0074
      7 C6         41.0750   12.5990   24.1560 C.2       1 05S         0.0957
      8 O1         42.2250   12.1610   24.1540 O.2       1 05S        -0.4028
      9 C7         40.8080   14.0170   24.6660 C.3       1 05S         0.0212
     10 C8         39.5280   14.1530   25.5310 C.3       1 05S        -0.0089
     11 C9         38.3090   13.5110   24.8140 C.3       1 05S         0.0114
     12 C10        39.2290   15.6360   25.8520 C.3       1 05S        -0.0559
     13 C11        39.7600   13.4120   26.8590 C.3       1 05S        -0.0559
     14 C12        36.3830   11.2190   24.3390 C.ar      1 05S         0.0846
     15 C13        35.5670   12.1320   23.6770 C.ar      1 05S        -0.0353
     16 C14        34.1870   12.0850   23.9000 C.ar      1 05S        -0.0574
     17 C15        33.6230   11.1340   24.7800 C.ar      1 05S         0.0591
     18 C16        34.4490   10.2110   25.4670 C.ar      1 05S         0.0546
     19 C17        35.8280   10.3190   25.2510 C.ar      1 05S        -0.0057
     20 N2         33.9420    9.2800   26.3700 N.pl3     1 05S        -0.3121
     21 C18        34.7250    8.3350   27.1730 C.3       1 05S         0.0732
     22 C19        35.1630    7.1110   26.3490 C.3       1 05S        -0.0109
     23 N3         35.7730    7.4700   25.0270 N.4       1 05S         0.2287
     24 C20        36.9200    6.6230   24.5420 C.3       1 05S        -0.0322
     25 C21        38.1060    7.4870   24.1080 C.3       1 05S        -0.0046
     26 C22        37.8270    8.7010   23.2000 C.3       1 05S        -0.0030
     27 C23        33.8410    7.8840   28.3480 C.3       1 05S        -0.0375
     28 C24        32.1520   11.1360   25.0010 C.2       1 05S         0.1889
     29 O2         31.6910   10.6610   26.0290 O.2       1 05S        -0.3957
     30 N4         31.3740   11.7050   24.0170 N.am      1 05S        -0.3034
     31 H1         40.5891    8.5295   22.7873 H         1 05S         0.0298
     32 H2         41.6825    9.3938   23.9205 H         1 05S         0.0298
     33 H3         41.4696    9.9972   22.2420 H         1 05S         0.0298
     34 H4         40.7085   14.6830   23.7962 H         1 05S         0.0483
     35 H5         41.6692   14.3328   25.2730 H         1 05S         0.0483
     36 H6         37.4753   13.4250   25.5264 H         1 05S         0.0457
     37 H7         38.0072   14.1511   23.9719 H         1 05S         0.0457
     38 H8         40.0964   16.0834   26.3594 H         1 05S         0.0238
     39 H9         38.3481   15.6989   26.5078 H         1 05S         0.0238
     40 H10        39.0299   16.1806   24.9173 H         1 05S         0.0238
     41 H11        39.9750   12.3527   26.6551 H         1 05S         0.0238
     42 H12        38.8584   13.4893   27.4844 H         1 05S         0.0238
     43 H13        40.6125   13.8640   27.3871 H         1 05S         0.0238
     44 H14        35.9928   12.8653   23.0017 H         1 05S         0.0488
     45 H15        33.5399   12.7892   23.3897 H         1 05S         0.0618
     46 H16        36.4935    9.6764   25.8160 H         1 05S         0.0484
     47 H17        32.9188    9.2524   26.4850 H         1 05S         0.1784
     48 H18        35.6218    8.8423   27.5582 H         1 05S         0.0601
     49 H19        34.2807    6.4801   26.1659 H         1 05S         0.0836
     50 H20        35.9039    6.5449   26.9325 H         1 05S         0.0836
     51 H21        36.1053    8.4192   25.0947 H         1 05S         0.2014
     52 H22        35.0438    7.4179   24.3330 H         1 05S         0.2014
     53 H23        36.5833    6.0207   23.6853 H         1 05S         0.0815
     54 H24        37.2416    5.9560   25.3554 H         1 05S         0.0815
     55 H25        38.8078    6.8321   23.5709 H         1 05S         0.0334
     56 H26        38.5853    7.8666   25.0224 H         1 05S         0.0334
     57 H27        38.1890    8.4595   22.1898 H         1 05S         0.0397
     58 H28        36.7390    8.8604   23.1713 H         1 05S         0.0397
     59 H29        34.3985    7.1717   28.9739 H         1 05S         0.0253
     60 H30        32.9338    7.3985   27.9591 H         1 05S         0.0253
     61 H31        33.5585    8.7593   28.9514 H         1 05S         0.0253
     62 H32        30.3795   11.7311   24.1185 H         1 05S         0.1801
     63 H33        31.8037   12.0920   23.2011 H         1 05S         0.1801
@<TRIPOS>BOND
     1    1    2 1  
     2    2    3 2  
     3    2    6 1  
     4    3    4 1  
     5    3   26 1  
     6    4    5 1  
     7    4   14 1  
     8    5    6 2  
     9    5   11 1  
    10    6    7 1  
    11    7    8 2  
    12    7    9 1  
    13    9   10 1  
    14   10   11 1  
    15   10   12 1  
    16   10   13 1  
    17   14   15 ar 
    18   14   19 ar 
    19   15   16 ar 
    20   16   17 ar 
    21   17   18 ar 
    22   17   28 1  
    23   18   19 ar 
    24   18   20 1  
    25   20   21 1  
    26   21   22 1  
    27   21   27 1  
    28   22   23 1  
    29   23   24 1  
    30   24   25 1  
    31   25   26 1  
    32   28   29 2  
    33   28   30 am 
    34    1   31 1  
    35    1   32 1  
    36    1   33 1  
    37    9   34 1  
    38    9   35 1  
    39   11   36 1  
    40   11   37 1  
    41   12   38 1  
    42   12   39 1  
    43   12   40 1  
    44   13   41 1  
    45   13   42 1  
    46   13   43 1  
    47   15   44 1  
    48   16   45 1  
    49   19   46 1  
    50   20   47 1  
    51   21   48 1  
    52   22   49 1  
    53   22   50 1  
    54   23   51 1  
    55   23   52 1  
    56   24   53 1  
    57   24   54 1  
    58   25   55 1  
    59   25   56 1  
    60   26   57 1  
    61   26   58 1  
    62   27   59 1  
    63   27   60 1  
    64   27   61 1  
    65   30   62 1  
    66   30   63 1  
@<TRIPOS>SUBSTRUCTURE
     1 05S         1

