### 
### Created by X-TOOL on Mon Sep 10 21:13:06 2018
### 

@<TRIPOS>MOLECULE
3qti_ligand
   42    46     1     0     0
SMALL
GAST_HUCK


@<TRIPOS>ATOM
      1 C1         12.8950   26.7010  -15.7680 C.ar      1 3QT         0.0424
      2 N1         12.2710   27.4330  -14.8030 N.ar      1 3QT        -0.2983
      3 C2         12.2100   25.6260  -16.3870 C.ar      1 3QT        -0.0416
      4 N2         16.2280   22.6330  -17.6010 N.pl3     1 3QT        -0.1386
      5 C3         12.8310   24.8610  -17.4040 C.ar      1 3QT        -0.0496
      6 N3         17.1110   23.5310  -17.0700 N.2       1 3QT        -0.1609
      7 C4         14.1710   25.1290  -17.7900 C.ar      1 3QT        -0.0254
      8 N4         20.1790   25.8430  -15.3800 N.2       1 3QT        -0.2123
      9 C5         14.8480   24.3290  -18.8940 C.3       1 3QT         0.0396
     10 N5         20.7550   24.8170  -14.7140 N.pl3     1 3QT        -0.2037
     11 C6         15.1780   22.9410  -18.4430 C.2       1 3QT         0.1004
     12 N6         15.1800   20.6930  -18.0700 N.2       1 3QT        -0.3438
     13 C7         18.0450   22.9740  -16.2770 C.2       1 3QT         0.0694
     14 C8         19.0320   23.9190  -15.7360 C.2       1 3QT         0.0238
     15 C9         19.1550   25.3070  -16.0280 C.2       1 3QT         0.0094
     16 C10        20.0930   23.6300  -14.9220 C.2       1 3QT         0.0687
     17 C11        21.9520   25.0550  -13.9380 C.3       1 3QT         0.0621
     18 C12        18.1130   21.5670  -16.0080 C.2       1 3QT        -0.0291
     19 C13        17.1980   20.7030  -16.5620 C.2       1 3QT        -0.0028
     20 C14        16.1870   21.2340  -17.4020 C.2       1 3QT         0.1563
     21 C15        14.5490   21.7550  -18.7070 C.2       1 3QT        -0.0234
     22 C16        14.8910   26.1790  -17.1570 C.ar      1 3QT        -0.0452
     23 C17        14.2540   26.9650  -16.1600 C.ar      1 3QT        -0.0006
     24 C18        14.9670   27.9880  -15.4960 C.ar      1 3QT        -0.0382
     25 C19        14.3150   28.7300  -14.4810 C.ar      1 3QT        -0.0342
     26 C20        12.9660   28.4180  -14.1810 C.ar      1 3QT         0.0083
     27 H1         11.1988   25.3865  -16.0784 H         1 3QT         0.0640
     28 H2         12.2795   24.0651  -17.8913 H         1 3QT         0.0624
     29 H3         15.7771   24.8398  -19.1871 H         1 3QT         0.0593
     30 H4         14.1720   24.2720  -19.7599 H         1 3QT         0.0593
     31 H5         18.4939   25.8564  -16.6966 H         1 3QT         0.0683
     32 H6         20.3600   22.6542  -14.5191 H         1 3QT         0.1067
     33 H7         22.2778   24.1149  -13.4690 H         1 3QT         0.0609
     34 H8         21.7406   25.8003  -13.1571 H         1 3QT         0.0609
     35 H9         22.7480   25.4307  -14.5977 H         1 3QT         0.0609
     36 H10        18.8967   21.1792  -15.3589 H         1 3QT         0.0650
     37 H11        17.2488   19.6341  -16.3599 H         1 3QT         0.0731
     38 H12        13.6659   21.6557  -19.3364 H         1 3QT         0.0420
     39 H13        15.9200   26.3785  -17.4336 H         1 3QT         0.0563
     40 H14        15.9966   28.2016  -15.7592 H         1 3QT         0.0752
     41 H15        14.8352   29.5170  -13.9470 H         1 3QT         0.0687
     42 H16        12.4630   28.9965  -13.4145 H         1 3QT         0.0846
@<TRIPOS>BOND
     1    1    2 ar 
     2    3    1 ar 
     3    1   23 ar 
     4    2   26 ar 
     5    5    3 ar 
     6    6    4 1  
     7    4   11 1  
     8    4   20 1  
     9    7    5 ar 
    10   13    6 2  
    11    9    7 1  
    12    7   22 ar 
    13    8   10 1  
    14   15    8 2  
    15   11    9 1  
    16   10   16 1  
    17   10   17 1  
    18   11   21 2  
    19   20   12 2  
    20   12   21 1  
    21   14   13 1  
    22   13   18 1  
    23   14   15 1  
    24   14   16 2  
    25   18   19 2  
    26   19   20 1  
    27   22   23 ar 
    28   23   24 ar 
    29   24   25 ar 
    30   25   26 ar 
    31    3   27 1  
    32    5   28 1  
    33    9   29 1  
    34    9   30 1  
    35   15   31 1  
    36   16   32 1  
    37   17   33 1  
    38   17   34 1  
    39   17   35 1  
    40   18   36 1  
    41   19   37 1  
    42   21   38 1  
    43   22   39 1  
    44   24   40 1  
    45   25   41 1  
    46   26   42 1  
@<TRIPOS>SUBSTRUCTURE
     1 3QT         1

