### 
### Created by X-TOOL on Mon Sep 10 21:13:08 2018
### 

@<TRIPOS>MOLECULE
3qto_ligand
   55    57     1     0     0
SMALL
GAST_HUCK


@<TRIPOS>ATOM
      1 N22        16.2450  -16.0150   22.9050 N.4       1 10P         0.2394
      2 C3         17.5270  -15.3320   22.9680 C.3       1 10P         0.0746
      3 C4         17.3150  -13.9460   22.4080 C.2       1 10P         0.2313
      4 O24        16.4100  -13.2450   22.8480 O.2       1 10P        -0.3903
      5 C2         17.9810  -15.3150   24.4320 C.3       1 10P         0.0416
      6 C1         19.3940  -14.7950   24.5660 C.ar      1 10P        -0.0353
      7 C5         19.6390  -13.7000   25.3810 C.ar      1 10P        -0.0600
      8 C9         20.4430  -15.4020   23.8780 C.ar      1 10P        -0.0600
      9 C6         20.9260  -13.2020   25.5000 C.ar      1 10P        -0.0686
     10 C8         21.7350  -14.9070   24.0050 C.ar      1 10P        -0.0686
     11 C7         21.9760  -13.8030   24.8140 C.ar      1 10P        -0.0687
     12 N23        18.1100  -13.5150   21.4340 N.am      1 10P        -0.2470
     13 C10        17.9050  -12.1760   20.8580 C.3       1 10P         0.1343
     14 C11        16.5020  -12.0120   20.3250 C.2       1 10P         0.2082
     15 O25        15.9740  -12.8780   19.6250 O.2       1 10P        -0.3940
     16 C14        18.9370  -12.0970   19.7400 C.3       1 10P        -0.0104
     17 C15        19.9880  -13.1470   20.0810 C.3       1 10P        -0.0281
     18 C16        19.2240  -14.2400   20.8090 C.3       1 10P         0.0371
     19 C12        14.4710  -10.6000   20.2420 C.3       1 10P         0.1290
     20 C13        13.4610  -11.2050   21.1990 C.ar      1 10P         0.1266
     21 C17        12.8040  -10.4460   22.1600 C.ar      1 10P         0.1068
     22 C18        11.2320  -10.1850   24.0120 C.3       1 10P         0.0175
     23 C19        11.6370  -12.3130   22.9410 C.ar      1 10P         0.0755
     24 C20        12.2650  -13.1190   22.0010 C.ar      1 10P         0.0436
     25 C21        13.1920  -12.5690   21.1300 C.ar      1 10P         0.0557
     26 N26        15.8480  -10.9030   20.6690 N.am      1 10P        -0.2477
     27 N27        11.9160  -11.0010   22.9970 N.ar      1 10P        -0.2907
     28 H1         16.3435  -16.9488   23.2715 H         1 10P         0.2017
     29 H2         15.9355  -16.0610   21.9468 H         1 10P         0.2017
     30 H3         15.5673  -15.5087   23.4531 H         1 10P         0.2017
     31 H4         18.2757  -15.8625   22.3613 H         1 10P         0.1123
     32 H5         17.9371  -16.3387   24.8321 H         1 10P         0.0507
     33 H6         17.3050  -14.6666   25.0087 H         1 10P         0.0507
     34 H7         18.8245  -13.2345   25.9241 H         1 10P         0.0557
     35 H8         20.2510  -16.2600   23.2440 H         1 10P         0.0557
     36 H9         21.1155  -12.3406   26.1302 H         1 10P         0.0599
     37 H10        22.5530  -15.3807   23.4744 H         1 10P         0.0599
     38 H11        22.9819  -13.4105   24.9103 H         1 10P         0.0559
     39 H12        18.0946  -11.3989   21.6130 H         1 10P         0.0802
     40 H13        19.3910  -11.0956   19.7059 H         1 10P         0.0313
     41 H14        18.4703  -12.3213   18.7695 H         1 10P         0.0313
     42 H15        20.7659  -12.7196   20.7307 H         1 10P         0.0287
     43 H16        20.4516  -13.5426   19.1653 H         1 10P         0.0287
     44 H17        18.8540  -14.9988   20.1037 H         1 10P         0.0524
     45 H18        19.8557  -14.7229   21.5691 H         1 10P         0.0524
     46 H19        14.3340   -9.5089   20.2164 H         1 10P         0.1076
     47 H20        14.3067  -11.0139   19.2362 H         1 10P         0.1076
     48 H21        13.0135   -9.3850   22.2342 H         1 10P         0.1400
     49 H22        10.5486  -10.8208   24.5940 H         1 10P         0.0425
     50 H23        10.6584   -9.3880   23.5162 H         1 10P         0.0425
     51 H24        11.9774   -9.7360   24.6849 H         1 10P         0.0425
     52 H25        10.9203  -12.7438   23.6308 H         1 10P         0.1509
     53 H26        12.0307  -14.1761   21.9485 H         1 10P         0.1041
     54 H27        13.7011  -13.1929   20.4043 H         1 10P         0.1051
     55 H28        16.3186  -10.2389   21.2499 H         1 10P         0.1945
@<TRIPOS>BOND
     1    2    1 1  
     2    3    2 1  
     3    2    5 1  
     4    3    4 2  
     5   12    3 am 
     6    5    6 1  
     7    6    7 ar 
     8    6    8 ar 
     9    7    9 ar 
    10    8   10 ar 
    11    9   11 ar 
    12   10   11 ar 
    13   13   12 1  
    14   12   18 1  
    15   14   13 1  
    16   13   16 1  
    17   14   15 2  
    18   26   14 am 
    19   16   17 1  
    20   17   18 1  
    21   20   19 1  
    22   19   26 1  
    23   21   20 ar 
    24   20   25 ar 
    25   27   21 ar 
    26   27   22 1  
    27   23   24 ar 
    28   23   27 ar 
    29   24   25 ar 
    30    1   28 1  
    31    1   29 1  
    32    1   30 1  
    33    2   31 1  
    34    5   32 1  
    35    5   33 1  
    36    7   34 1  
    37    8   35 1  
    38    9   36 1  
    39   10   37 1  
    40   11   38 1  
    41   13   39 1  
    42   16   40 1  
    43   16   41 1  
    44   17   42 1  
    45   17   43 1  
    46   18   44 1  
    47   18   45 1  
    48   19   46 1  
    49   19   47 1  
    50   21   48 1  
    51   22   49 1  
    52   22   50 1  
    53   22   51 1  
    54   23   52 1  
    55   24   53 1  
    56   25   54 1  
    57   26   55 1  
@<TRIPOS>SUBSTRUCTURE
     1 10P         1

