### 
### Created by X-TOOL on Mon Sep 10 21:13:10 2018
### 

@<TRIPOS>MOLECULE
3qtq_ligand
   34    35     1     0     0
SMALL
GAST_HUCK


@<TRIPOS>ATOM
      1 N1        -65.3260  -82.0010  -86.0600 N.2       1 X35        -0.3077
      2 C2        -66.3280  -81.1600  -86.4100 C.2       1 X35         0.0516
      3 N3        -66.7390  -81.0890  -87.6840 N.pl3     1 X35        -0.3522
      4 C4        -66.8490  -80.4050  -85.3510 C.2       1 X35         0.0579
      5 C5        -67.8690  -79.4570  -85.4530 C.3       1 X35         0.1207
      6 C6        -68.3940  -78.6320  -84.3090 C.ar      1 X35         0.0184
      7 C7        -69.7890  -78.4780  -84.0780 C.ar      1 X35         0.0158
      8 N8        -70.2250  -77.7000  -83.0130 N.ar      1 X35        -0.3046
      9 C9        -69.3510  -77.0550  -82.1470 C.ar      1 X35         0.0038
     10 C10       -67.9590  -77.1720  -82.3370 C.ar      1 X35        -0.0406
     11 C11       -67.4870  -77.9640  -83.4260 C.ar      1 X35        -0.0373
     12 O12       -68.4480  -79.2160  -86.6480 O.3       1 X35        -0.3717
     13 S13       -66.0340  -80.8100  -83.8760 S.3       1 X35        -0.0016
     14 C14       -65.0590  -81.9250  -84.7510 C.2       1 X35         0.1685
     15 N15       -64.0840  -82.6850  -84.1970 N.pl3     1 X35        -0.2889
     16 C16       -63.7740  -82.5690  -82.7760 C.3       1 X35         0.0315
     17 C17       -62.4100  -81.9760  -82.5800 C.3       1 X35        -0.0351
     18 C18       -62.1950  -80.5310  -82.5310 C.3       1 X35        -0.0634
     19 H1        -67.5016  -80.4474  -87.9441 H         1 X35         0.1624
     20 H2        -66.2922  -81.6761  -88.4028 H         1 X35         0.1624
     21 H3        -68.6040  -80.2440  -85.2285 H         1 X35         0.0863
     22 H4        -70.5069  -78.9644  -84.7285 H         1 X35         0.0766
     23 H5        -69.7388  -76.4625  -81.3263 H         1 X35         0.0764
     24 H6        -67.2640  -76.6723  -81.6718 H         1 X35         0.0692
     25 H7        -66.4196  -78.0618  -83.5879 H         1 X35         0.0678
     26 H8        -68.3138  -78.3061  -86.8859 H         1 X35         0.2154
     27 H9        -63.5580  -83.3491  -84.7828 H         1 X35         0.1878
     28 H10       -63.8032  -83.5681  -82.3168 H         1 X35         0.0526
     29 H11       -64.5220  -81.9221  -82.2944 H         1 X35         0.0526
     30 H12       -61.7887  -82.3522  -83.4061 H         1 X35         0.0282
     31 H13       -62.0340  -82.3760  -81.6268 H         1 X35         0.0282
     32 H14       -61.1251  -80.3244  -82.3807 H         1 X35         0.0230
     33 H15       -62.7717  -80.1025  -81.6980 H         1 X35         0.0230
     34 H16       -62.5263  -80.0787  -83.4773 H         1 X35         0.0230
@<TRIPOS>BOND
     1    1    2 1  
     2    1   14 2  
     3    2    3 1  
     4    2    4 2  
     5    4    5 1  
     6    4   13 1  
     7    5    6 1  
     8    5   12 1  
     9    6    7 ar 
    10    6   11 ar 
    11    7    8 ar 
    12    8    9 ar 
    13    9   10 ar 
    14   10   11 ar 
    15   13   14 1  
    16   14   15 1  
    17   15   16 1  
    18   16   17 1  
    19   17   18 1  
    20    3   19 1  
    21    3   20 1  
    22    5   21 1  
    23    7   22 1  
    24    9   23 1  
    25   10   24 1  
    26   11   25 1  
    27   12   26 1  
    28   15   27 1  
    29   16   28 1  
    30   16   29 1  
    31   17   30 1  
    32   17   31 1  
    33   18   32 1  
    34   18   33 1  
    35   18   34 1  
@<TRIPOS>SUBSTRUCTURE
     1 X35         1

