### 
### Created by X-TOOL on Mon Sep 10 21:13:10 2018
### 

@<TRIPOS>MOLECULE
3qtr_ligand
   36    38     1     0     0
SMALL
GAST_HUCK


@<TRIPOS>ATOM
      1 N1         91.7380   81.8750  -51.0020 N.2       1 X36        -0.3021
      2 C2         92.8210   81.1210  -51.3000 C.2       1 X36         0.0542
      3 N3         93.3290   81.1370  -52.5370 N.pl3     1 X36        -0.3518
      4 C4         93.3100   80.3550  -50.2310 C.2       1 X36         0.0585
      5 C5         94.4160   79.4660  -50.2440 C.3       1 X36         0.1155
      6 C6         94.8760   78.6390  -49.0580 C.ar      1 X36        -0.0093
      7 C7         93.9210   77.8670  -48.2200 C.ar      1 X36        -0.0570
      8 C8         94.3930   77.1080  -47.1180 C.ar      1 X36        -0.0686
      9 C9         95.7650   77.0490  -46.7690 C.ar      1 X36        -0.0689
     10 C10        96.7440   77.7800  -47.5560 C.ar      1 X36        -0.0686
     11 C11        96.3040   78.5690  -48.6940 C.ar      1 X36        -0.0570
     12 O12        95.1300   79.3060  -51.3820 O.3       1 X36        -0.3728
     13 S13        92.3400   80.6440  -48.8520 S.3       1 X36         0.0022
     14 C14        91.3620   81.7220  -49.7370 C.2       1 X36         0.1880
     15 N15        90.2650   82.4100  -49.2730 N.pl3     1 X36        -0.2419
     16 C16        89.6400   82.4060  -48.0430 C.ar      1 X36         0.0661
     17 C17        88.4920   83.3120  -47.8780 C.ar      1 X36        -0.0383
     18 C18        87.7790   83.3710  -46.6240 C.ar      1 X36        -0.0717
     19 C19        88.1790   82.5310  -45.5010 C.ar      1 X36        -0.0736
     20 C20        89.3060   81.6140  -45.6160 C.ar      1 X36        -0.0717
     21 C21        90.0320   81.5460  -46.8650 C.ar      1 X36        -0.0383
     22 H1         94.1536   80.5625  -52.7626 H         1 X36         0.1623
     23 H2         92.8957   81.7239  -53.2641 H         1 X36         0.1623
     24 H3         95.0678   80.2922  -49.9236 H         1 X36         0.0850
     25 H4         92.8621   77.8840  -48.4513 H         1 X36         0.0557
     26 H5         93.6780   76.5531  -46.5214 H         1 X36         0.0599
     27 H6         96.0838   76.4598  -45.9167 H         1 X36         0.0557
     28 H7         97.7954   77.7369  -47.2957 H         1 X36         0.0599
     29 H8         97.0339   79.1128  -49.2827 H         1 X36         0.0557
     30 H9         95.0865   78.3977  -51.6567 H         1 X36         0.2152
     31 H10        89.8343   83.0389  -49.9658 H         1 X36         0.2193
     32 H11        88.1793   83.9399  -48.7045 H         1 X36         0.0535
     33 H12        86.9380   84.0464  -46.5161 H         1 X36         0.0587
     34 H13        87.6305   82.5894  -44.5678 H         1 X36         0.0517
     35 H14        89.5960   80.9917  -44.7771 H         1 X36         0.0587
     36 H15        90.8715   80.8664  -46.9572 H         1 X36         0.0535
@<TRIPOS>BOND
     1    1    2 1  
     2    1   14 2  
     3    2    3 1  
     4    2    4 2  
     5    4    5 1  
     6    4   13 1  
     7    5    6 1  
     8    5   12 1  
     9    6    7 ar 
    10    6   11 ar 
    11    7    8 ar 
    12    8    9 ar 
    13    9   10 ar 
    14   10   11 ar 
    15   13   14 1  
    16   14   15 1  
    17   15   16 1  
    18   16   17 ar 
    19   16   21 ar 
    20   17   18 ar 
    21   18   19 ar 
    22   19   20 ar 
    23   20   21 ar 
    24    3   22 1  
    25    3   23 1  
    26    5   24 1  
    27    7   25 1  
    28    8   26 1  
    29    9   27 1  
    30   10   28 1  
    31   11   29 1  
    32   12   30 1  
    33   15   31 1  
    34   17   32 1  
    35   18   33 1  
    36   19   34 1  
    37   20   35 1  
    38   21   36 1  
@<TRIPOS>SUBSTRUCTURE
     1 X36         1

