### 
### Created by X-TOOL on Mon Sep 10 21:13:11 2018
### 

@<TRIPOS>MOLECULE
3qts_ligand
   40    42     1     0     0
SMALL
GAST_HUCK


@<TRIPOS>ATOM
      1 C1         94.6970   77.1150  -45.9280 C.ar      1 X46        -0.0403
      2 N1         91.5880   81.7670  -51.0210 N.2       1 X46        -0.3022
      3 S1         91.9990   80.7250  -48.6970 S.3       1 X46         0.0022
      4 C2         94.6490   78.6040  -45.9850 C.ar      1 X46         0.0840
      5 N2         93.1730   80.5960  -52.3660 N.pl3     1 X46        -0.3518
      6 C3         94.4070   79.2600  -47.2610 C.ar      1 X46        -0.0290
      7 N3         90.1470   82.6800  -49.3430 N.pl3     1 X46        -0.2419
      8 O3         94.6470   78.7150  -50.9120 O.3       1 X46        -0.3730
      9 C4         94.2590   76.9840  -48.4130 C.ar      1 X46        -0.0681
     10 C5         94.5010   76.3100  -47.1560 C.ar      1 X46        -0.0772
     11 O6         94.8310   79.4290  -44.8390 O.3       1 X46        -0.3231
     12 C7         95.0620   79.0020  -43.5900 C.3       1 X46         0.0592
     13 C10        94.2060   78.4580  -48.5010 C.ar      1 X46        -0.0183
     14 C11        93.9560   79.1040  -49.8330 C.3       1 X46         0.1131
     15 C12        92.9190   80.1850  -49.9980 C.2       1 X46         0.0583
     16 C13        92.5840   80.8460  -51.1720 C.2       1 X46         0.0542
     17 C14        91.1660   81.8130  -49.7360 C.2       1 X46         0.1880
     18 C15        89.3870   82.6670  -48.1580 C.ar      1 X46         0.0661
     19 C16        89.5380   81.6480  -47.0320 C.ar      1 X46        -0.0383
     20 C17        88.7290   81.7050  -45.8450 C.ar      1 X46        -0.0717
     21 C18        87.7360   82.7710  -45.7110 C.ar      1 X46        -0.0736
     22 C19        87.5680   83.7710  -46.7920 C.ar      1 X46        -0.0717
     23 C20        88.3730   83.7200  -47.9870 C.ar      1 X46        -0.0383
     24 H1         94.8765   76.6180  -44.9815 H         1 X46         0.0484
     25 H2         93.9215   79.8916  -52.4336 H         1 X46         0.1623
     26 H3         92.8724   81.1103  -53.2063 H         1 X46         0.1623
     27 H4         94.3726   80.3423  -47.3102 H         1 X46         0.0479
     28 H5         89.9196   83.4314  -50.0098 H         1 X46         0.2193
     29 H6         94.3673   79.2216  -51.6653 H         1 X46         0.2152
     30 H7         94.1132   76.3942  -49.3108 H         1 X46         0.0465
     31 H8         94.5385   75.2275  -47.1132 H         1 X46         0.0571
     32 H9         95.1592   79.8679  -42.9186 H         1 X46         0.0577
     33 H10        95.9924   78.4156  -43.5691 H         1 X46         0.0577
     34 H11        94.2240   78.3721  -43.2569 H         1 X46         0.0577
     35 H12        94.7190   79.8631  -49.6059 H         1 X46         0.0849
     36 H13        90.2755   80.8596  -47.1299 H         1 X46         0.0535
     37 H14        88.8531   80.9680  -45.0598 H         1 X46         0.0587
     38 H15        87.1220   82.8296  -44.8195 H         1 X46         0.0517
     39 H16        86.8269   84.5544  -46.6822 H         1 X46         0.0587
     40 H17        88.2305   84.4619  -48.7644 H         1 X46         0.0535
@<TRIPOS>BOND
     1    4    1 ar 
     2   10    1 ar 
     3    2   16 1  
     4   17    2 2  
     5   15    3 1  
     6    3   17 1  
     7    6    4 ar 
     8    4   11 1  
     9   16    5 1  
    10   13    6 ar 
    11   17    7 1  
    12    7   18 1  
    13   14    8 1  
    14    9   10 ar 
    15   13    9 ar 
    16   11   12 1  
    17   14   13 1  
    18   14   15 1  
    19   15   16 2  
    20   18   19 ar 
    21   18   23 ar 
    22   19   20 ar 
    23   20   21 ar 
    24   21   22 ar 
    25   22   23 ar 
    26    1   24 1  
    27    5   25 1  
    28    5   26 1  
    29    6   27 1  
    30    7   28 1  
    31    8   29 1  
    32    9   30 1  
    33   10   31 1  
    34   12   32 1  
    35   12   33 1  
    36   12   34 1  
    37   14   35 1  
    38   19   36 1  
    39   20   37 1  
    40   21   38 1  
    41   22   39 1  
    42   23   40 1  
@<TRIPOS>SUBSTRUCTURE
     1 X46         1

