### 
### Created by X-TOOL on Mon Sep 10 21:13:10 2018
### 

@<TRIPOS>MOLECULE
3qtu_ligand
   44    46     1     0     0
SMALL
GAST_HUCK


@<TRIPOS>ATOM
      1 N01       119.0990   10.0720  -50.8930 N.2       1 X44        -0.2715
      2 N02       117.9680   10.7430  -49.0780 N.pl3     1 X44        -0.2326
      3 N03       120.5090    9.1440  -52.4730 N.pl3     1 X44        -0.3317
      4 N04       115.1730    8.9970  -43.2680 N.am      1 X44        -0.2621
      5 N05       124.0330    2.7550  -46.2640 N.am      1 X44        -0.2605
      6 C06       120.7350    8.5230  -50.2260 C.2       1 X44         0.0923
      7 C07       120.1350    9.2420  -51.2580 C.2       1 X44         0.0846
      8 C08       118.8990   10.0100  -49.6080 C.2       1 X44         0.2037
      9 C09       117.2200   10.5150  -48.0490 C.ar      1 X44         0.0701
     10 C10       121.7910    7.6170  -50.3730 C.2       1 X44         0.1300
     11 C11       122.2480    6.8630  -49.3100 C.ar      1 X44         0.0234
     12 C12       116.2110   11.4830  -47.7490 C.ar      1 X44        -0.0354
     13 C13       115.3520   11.2960  -46.6460 C.ar      1 X44        -0.0445
     14 C14       115.4980   10.1370  -45.8330 C.ar      1 X44         0.0965
     15 C15       116.4910    9.1800  -46.1170 C.ar      1 X44        -0.0445
     16 C16       117.3480    9.3610  -47.2110 C.ar      1 X44        -0.0354
     17 C17       123.6470    6.8180  -49.0270 C.ar      1 X44        -0.0431
     18 C18       124.1200    6.0500  -47.9410 C.ar      1 X44        -0.0299
     19 C19       123.2100    5.3230  -47.1270 C.ar      1 X44         0.1119
     20 C20       121.8210    5.3550  -47.3940 C.ar      1 X44        -0.0299
     21 C21       121.3390    6.1220  -48.4860 C.ar      1 X44        -0.0431
     22 O22       122.3110    7.4670  -51.4650 O.2       1 X44        -0.4023
     23 O23       113.2990    9.1170  -44.9710 O.2       1 X44        -0.1519
     24 O24       113.9530   11.1630  -43.9800 O.2       1 X44        -0.1519
     25 O25       125.1160    4.9040  -45.3710 O.2       1 X44        -0.1500
     26 O26       122.8970    4.4110  -44.6600 O.2       1 X44        -0.1500
     27 S27       119.9550    8.9300  -48.7470 S.3       1 X44         0.0099
     28 S28       114.4140    9.8830  -44.4770 S.o2      1 X44         0.0609
     29 S29       123.8310    4.3560  -45.7570 S.o2      1 X44         0.0676
     30 H1        117.7998   11.6433  -49.5492 H         1 X44         0.2243
     31 H2        121.2866    8.5167  -52.7235 H         1 X44         0.1746
     32 H3        120.0336    9.6922  -53.2040 H         1 X44         0.1746
     33 H4        114.6791    8.7718  -42.4281 H         1 X44         0.1633
     34 H5        116.1186    8.6948  -43.3883 H         1 X44         0.1633
     35 H6        124.3752    2.0672  -45.6238 H         1 X44         0.1635
     36 H7        123.8102    2.4963  -47.2039 H         1 X44         0.1635
     37 H8        116.1059   12.3640  -48.3718 H         1 X44         0.0540
     38 H9        114.5866   12.0293  -46.4193 H         1 X44         0.0607
     39 H10       116.5927    8.3024  -45.4889 H         1 X44         0.0607
     40 H11       118.1126    8.6227  -47.4241 H         1 X44         0.0540
     41 H12       124.3442    7.3724  -49.6447 H         1 X44         0.0666
     42 H13       125.1821    6.0147  -47.7271 H         1 X44         0.0648
     43 H14       121.1312    4.7985  -46.7699 H         1 X44         0.0648
     44 H15       120.2763    6.1477  -48.6985 H         1 X44         0.0666
@<TRIPOS>BOND
     1    7    1 1  
     2    8    1 2  
     3    8    2 1  
     4    2    9 1  
     5    7    3 1  
     6   28    4 am 
     7   29    5 am 
     8    6    7 2  
     9   10    6 1  
    10    6   27 1  
    11   27    8 1  
    12    9   12 ar 
    13    9   16 ar 
    14   11   10 1  
    15   10   22 2  
    16   17   11 ar 
    17   11   21 ar 
    18   12   13 ar 
    19   13   14 ar 
    20   15   14 ar 
    21   14   28 1  
    22   16   15 ar 
    23   18   17 ar 
    24   19   18 ar 
    25   19   20 ar 
    26   19   29 1  
    27   20   21 ar 
    28   28   23 2  
    29   28   24 2  
    30   29   25 2  
    31   29   26 2  
    32    2   30 1  
    33    3   31 1  
    34    3   32 1  
    35    4   33 1  
    36    4   34 1  
    37    5   35 1  
    38    5   36 1  
    39   12   37 1  
    40   13   38 1  
    41   15   39 1  
    42   16   40 1  
    43   17   41 1  
    44   18   42 1  
    45   20   43 1  
    46   21   44 1  
@<TRIPOS>SUBSTRUCTURE
     1 X44         1

