### 
### Created by X-TOOL on Mon Sep 10 21:13:08 2018
### 

@<TRIPOS>MOLECULE
3qtv_ligand
   55    57     1     0     0
SMALL
GAST_HUCK


@<TRIPOS>ATOM
      1 N4         16.3240  -15.5750   23.1220 N.4       1 06P         0.2394
      2 C3         17.5740  -14.8360   23.1290 C.3       1 06P         0.0746
      3 C5         17.3340  -13.4700   22.5350 C.2       1 06P         0.2313
      4 O7         16.4020  -12.7660   22.9200 O.2       1 06P        -0.3903
      5 C2         18.0670  -14.7750   24.5810 C.3       1 06P         0.0416
      6 C1         19.4860  -14.2600   24.6610 C.ar      1 06P        -0.0353
      7 C8         19.7430  -13.0940   25.3650 C.ar      1 06P        -0.0600
      8 C12        20.5370  -14.9340   24.0400 C.ar      1 06P        -0.0600
      9 C9         21.0300  -12.5830   25.4470 C.ar      1 06P        -0.0686
     10 C11        21.8300  -14.4270   24.1340 C.ar      1 06P        -0.0686
     11 C10        22.0810  -13.2550   24.8330 C.ar      1 06P        -0.0687
     12 N6         18.1550  -13.0590   21.5740 N.am      1 06P        -0.2470
     13 C13        17.9440  -11.7490   20.9560 C.3       1 06P         0.1343
     14 C14        16.5540  -11.6290   20.3890 C.2       1 06P         0.2089
     15 O15        16.0470  -12.5660   19.7770 O.2       1 06P        -0.3939
     16 C19        18.9730  -11.7000   19.8310 C.3       1 06P        -0.0103
     17 C20        20.0360  -12.7230   20.2060 C.3       1 06P        -0.0281
     18 C21        19.2970  -13.7850   21.0070 C.3       1 06P         0.0371
     19 N16        15.9050  -10.4820   20.5940 N.am      1 06P        -0.2443
     20 C17        14.5420  -10.2290   20.0990 C.3       1 06P         0.1339
     21 C18        13.5360  -10.4590   21.2090 C.ar      1 06P         0.1258
     22 C22        13.2030   -9.4420   22.1000 C.ar      1 06P         0.0723
     23 C23        12.2790   -9.6970   23.1090 C.ar      1 06P         0.0735
     24 N24        11.7190  -10.9100   23.2440 N.ar      1 06P        -0.3119
     25 C25        10.7470  -11.1450   24.3190 C.3       1 06P         0.0308
     26 C26        12.0350  -11.9080   22.4010 C.ar      1 06P         0.0735
     27 C27        12.9460  -11.7040   21.3730 C.ar      1 06P         0.0723
     28 H1         16.4726  -16.4903   23.5171 H         1 06P         0.2017
     29 H2         15.9938  -15.6678   22.1742 H         1 06P         0.2017
     30 H3         15.6379  -15.0799   23.6699 H         1 06P         0.2017
     31 H4         18.3223  -15.3618   22.5178 H         1 06P         0.1123
     32 H5         18.0280  -15.7851   25.0149 H         1 06P         0.0507
     33 H6         17.4101  -14.1041   25.1540 H         1 06P         0.0507
     34 H7         18.9285  -12.5752   25.8574 H         1 06P         0.0557
     35 H8         20.3483  -15.8473   23.4874 H         1 06P         0.0557
     36 H9         21.2158  -11.6624   25.9883 H         1 06P         0.0599
     37 H10        22.6488  -14.9529   23.6564 H         1 06P         0.0599
     38 H11        23.0904  -12.8656   24.9000 H         1 06P         0.0559
     39 H12        18.1162  -10.9423   21.6837 H         1 06P         0.0802
     40 H13        19.4152  -10.6955   19.7582 H         1 06P         0.0313
     41 H14        18.5059  -11.9655   18.8711 H         1 06P         0.0313
     42 H15        20.8230  -12.2564   20.8167 H         1 06P         0.0287
     43 H16        20.4848  -13.1627   19.3031 H         1 06P         0.0287
     44 H17        18.9574  -14.6030   20.3547 H         1 06P         0.0524
     45 H18        19.9374  -14.1926   21.8031 H         1 06P         0.0524
     46 H19        16.3664   -9.7593   21.1086 H         1 06P         0.1956
     47 H20        14.3252  -10.9114   19.2639 H         1 06P         0.1131
     48 H21        14.4683   -9.1882   19.7507 H         1 06P         0.1131
     49 H22        13.6584   -8.4626   22.0087 H         1 06P         0.1191
     50 H23        12.0072   -8.9042   23.7965 H         1 06P         0.1063
     51 H24        10.3971  -12.1870   24.2756 H         1 06P         0.0514
     52 H25         9.8911  -10.4654   24.1945 H         1 06P         0.0514
     53 H26        11.2245  -10.9588   25.2923 H         1 06P         0.0514
     54 H27        11.5743  -12.8814   22.5248 H         1 06P         0.1063
     55 H28        13.1958  -12.5161   20.6998 H         1 06P         0.1191
@<TRIPOS>BOND
     1    1    2 1  
     2    2    3 1  
     3    2    5 1  
     4    3    4 2  
     5    3   12 am 
     6    5    6 1  
     7    6    7 ar 
     8    6    8 ar 
     9    7    9 ar 
    10    8   10 ar 
    11    9   11 ar 
    12   10   11 ar 
    13   12   13 1  
    14   12   18 1  
    15   13   14 1  
    16   13   16 1  
    17   14   15 2  
    18   14   19 am 
    19   16   17 1  
    20   17   18 1  
    21   19   20 1  
    22   20   21 1  
    23   21   22 ar 
    24   21   27 ar 
    25   22   23 ar 
    26   23   24 ar 
    27   24   25 1  
    28   24   26 ar 
    29   26   27 ar 
    30    1   28 1  
    31    1   29 1  
    32    1   30 1  
    33    2   31 1  
    34    5   32 1  
    35    5   33 1  
    36    7   34 1  
    37    8   35 1  
    38    9   36 1  
    39   10   37 1  
    40   11   38 1  
    41   13   39 1  
    42   16   40 1  
    43   16   41 1  
    44   17   42 1  
    45   17   43 1  
    46   18   44 1  
    47   18   45 1  
    48   19   46 1  
    49   20   47 1  
    50   20   48 1  
    51   22   49 1  
    52   23   50 1  
    53   25   51 1  
    54   25   52 1  
    55   25   53 1  
    56   26   54 1  
    57   27   55 1  
@<TRIPOS>SUBSTRUCTURE
     1 06P         1

