### 
### Created by X-TOOL on Mon Sep 10 21:13:11 2018
### 

@<TRIPOS>MOLECULE
3qtw_ligand
   35    37     1     0     0
SMALL
GAST_HUCK


@<TRIPOS>ATOM
      1 N1         92.3700   10.3700  -86.9760 N.2       1 X3A        -0.3020
      2 C2         93.4350    9.6370  -87.3250 C.2       1 X3A         0.0545
      3 N3         93.9080    9.7100  -88.5750 N.pl3     1 X3A        -0.3517
      4 C4         93.9520    8.8320  -86.3000 C.2       1 X3A         0.0598
      5 C5         95.0470    7.9600  -86.3890 C.3       1 X3A         0.1215
      6 C6         95.5550    7.0720  -85.2750 C.ar      1 X3A         0.0186
      7 C7         96.9630    6.8970  -84.9710 C.ar      1 X3A         0.0158
      8 N8         97.3350    6.0390  -83.9240 N.ar      1 X3A        -0.3046
      9 C9         96.4100    5.3280  -83.1400 C.ar      1 X3A         0.0038
     10 C10        95.0130    5.4600  -83.3990 C.ar      1 X3A        -0.0406
     11 C11        94.5920    6.3280  -84.4650 C.ar      1 X3A        -0.0372
     12 O12        95.7190    7.8530  -87.5460 O.3       1 X3A        -0.3714
     13 S13        93.0330    9.0570  -84.8740 S.3       1 X3A         0.0024
     14 C14        92.0250   10.1750  -85.7000 C.2       1 X3A         0.1881
     15 N15        90.9390   10.8670  -85.1920 N.pl3     1 X3A        -0.2418
     16 C16        90.3440   10.8550  -83.9370 C.ar      1 X3A         0.0661
     17 C17        89.2110   11.7450  -83.7240 C.ar      1 X3A        -0.0383
     18 C18        88.5460   11.7920  -82.4520 C.ar      1 X3A        -0.0717
     19 C19        88.9940   10.9480  -81.3650 C.ar      1 X3A        -0.0736
     20 C20        90.1080   10.0550  -81.5450 C.ar      1 X3A        -0.0717
     21 C21        90.7770   10.0070  -82.8090 C.ar      1 X3A        -0.0383
     22 H1         94.7268    9.1486  -88.8494 H         1 X3A         0.1624
     23 H2         93.4532   10.3275  -89.2625 H         1 X3A         0.1624
     24 H3         95.7054    8.7728  -86.0486 H         1 X3A         0.0866
     25 H4         97.7179    7.4221  -85.5450 H         1 X3A         0.0766
     26 H5         96.7566    4.6818  -82.3416 H         1 X3A         0.0764
     27 H6         94.2856    4.9181  -82.8054 H         1 X3A         0.0692
     28 H7         93.5335    6.4334  -84.6734 H         1 X3A         0.0678
     29 H8         95.6637    6.9587  -87.8615 H         1 X3A         0.2154
     30 H9         90.4920   11.5053  -85.8655 H         1 X3A         0.2194
     31 H10        88.8663   12.3782  -84.5335 H         1 X3A         0.0535
     32 H11        87.7061   12.4615  -82.3056 H         1 X3A         0.0587
     33 H12        88.4865   10.9888  -80.4080 H         1 X3A         0.0517
     34 H13        90.4381    9.4229  -80.7286 H         1 X3A         0.0587
     35 H14        91.6176    9.3353  -82.9407 H         1 X3A         0.0535
@<TRIPOS>BOND
     1    1    2 1  
     2    1   14 2  
     3    2    3 1  
     4    2    4 2  
     5    4    5 1  
     6    4   13 1  
     7    5    6 1  
     8    5   12 1  
     9    6    7 ar 
    10    6   11 ar 
    11    7    8 ar 
    12    8    9 ar 
    13    9   10 ar 
    14   10   11 ar 
    15   13   14 1  
    16   14   15 1  
    17   15   16 1  
    18   16   17 ar 
    19   16   21 ar 
    20   17   18 ar 
    21   18   19 ar 
    22   19   20 ar 
    23   20   21 ar 
    24    3   22 1  
    25    3   23 1  
    26    5   24 1  
    27    7   25 1  
    28    9   26 1  
    29   10   27 1  
    30   11   28 1  
    31   12   29 1  
    32   15   30 1  
    33   17   31 1  
    34   18   32 1  
    35   19   33 1  
    36   20   34 1  
    37   21   35 1  
@<TRIPOS>SUBSTRUCTURE
     1 X3A         1

