### 
### Created by X-TOOL on Mon Sep 10 21:13:10 2018
### 

@<TRIPOS>MOLECULE
3qtx_ligand
   43    45     1     0     0
SMALL
GAST_HUCK


@<TRIPOS>ATOM
      1 N1        -11.9140  -82.0730  -86.7360 N.2       1 X43        -0.1097
      2 C2        -12.9810  -81.3120  -87.0170 C.2       1 X43         0.3319
      3 N3        -13.5540  -81.3820  -88.2410 N.pl3     1 X43        -0.2399
      4 C4        -13.3910  -80.4840  -85.9640 C.2       1 X43         0.3200
      5 C5        -14.4480  -79.5900  -85.9840 C.3       1 X43         0.2435
      6 C6        -14.8280  -78.7200  -84.8240 C.ar      1 X43         0.0518
      7 C7        -16.1670  -78.7160  -84.3190 C.ar      1 X43        -0.0095
      8 C8        -16.5410  -77.8800  -83.1970 C.ar      1 X43         0.0847
      9 C9        -15.5180  -77.0470  -82.6020 C.ar      1 X43        -0.0290
     10 C10       -14.1900  -77.0460  -83.1040 C.ar      1 X43        -0.0536
     11 C11       -13.8440  -77.8750  -84.2060 C.ar      1 X43        -0.0378
     12 O12       -15.2080  -79.4480  -87.1010 O.3       1 X43        -0.3252
     13 S13       -12.3740  -80.7180  -84.5890 S.3       1 X43         0.2348
     14 C14       -11.4500  -81.8600  -85.5010 C.2       1 X43         0.3360
     15 N15       -10.3370  -82.5560  -85.0840 N.pl3     1 X43        -0.1762
     16 C16        -9.6170  -82.3580  -83.9260 C.ar      1 X43         0.1097
     17 N17       -17.7950  -77.8880  -82.7260 N.2       1 X43        -0.2166
     18 O18       -18.7360  -78.6530  -83.2720 O.2       1 X43        -0.4885
     19 O19       -18.1250  -77.1980  -81.7830 O.2       1 X43        -0.4885
     20 C20        -8.4620  -83.1730  -83.7230 C.ar      1 X43        -0.0183
     21 C21        -7.6310  -82.9700  -82.5980 C.ar      1 X43        -0.0332
     22 C22        -7.9290  -81.9590  -81.6510 C.ar      1 X43         0.1068
     23 C23        -9.0750  -81.1460  -81.8130 C.ar      1 X43        -0.0332
     24 C24        -9.9070  -81.3360  -82.9420 C.ar      1 X43        -0.0183
     25 S25        -6.8560  -81.7170  -80.3010 S.o2      1 X43         0.0654
     26 O26        -5.4890  -81.0910  -80.9540 O.2       1 X43        -0.1506
     27 O27        -6.5040  -83.0140  -79.6120 O.2       1 X43        -0.1506
     28 N28        -7.3820  -80.6060  -79.3420 N.am      1 X43        -0.2611
     29 H1        -14.3740  -80.7984  -88.4599 H         1 X43         0.2318
     30 H2        -13.1701  -82.0188  -88.9537 H         1 X43         0.2318
     31 H3        -15.1106  -80.3851  -85.6114 H         1 X43         0.1498
     32 H4        -16.9138  -79.3493  -84.7840 H         1 X43         0.0685
     33 H5        -15.7698  -76.4135  -81.7592 H         1 X43         0.0682
     34 H6        -13.4389  -76.4123  -82.6465 H         1 X43         0.0632
     35 H7        -12.8279  -77.8695  -84.5836 H         1 X43         0.0656
     36 H8        -15.1506  -78.5513  -87.4099 H         1 X43         0.2262
     37 H9        -10.0065  -83.3072  -85.7063 H         1 X43         0.2705
     38 H10        -8.2210  -83.9526  -84.4366 H         1 X43         0.0626
     39 H11        -6.7561  -83.5945  -82.4581 H         1 X43         0.0637
     40 H12        -9.3138  -80.3846  -81.0793 H         1 X43         0.0637
     41 H13       -10.7782  -80.7043  -83.0726 H         1 X43         0.0626
     42 H14        -6.8611  -80.3645  -78.5232 H         1 X43         0.1635
     43 H15        -8.2402  -80.1349  -79.5457 H         1 X43         0.1635
@<TRIPOS>BOND
     1    1    2 1  
     2    1   14 2  
     3    2    3 1  
     4    2    4 2  
     5    4    5 1  
     6    4   13 1  
     7    5    6 1  
     8    5   12 1  
     9    6    7 ar 
    10    6   11 ar 
    11    7    8 ar 
    12    8    9 ar 
    13    8   17 1  
    14    9   10 ar 
    15   10   11 ar 
    16   13   14 1  
    17   14   15 1  
    18   15   16 1  
    19   16   20 ar 
    20   16   24 ar 
    21   17   18 2  
    22   17   19 2  
    23   20   21 ar 
    24   21   22 ar 
    25   22   23 ar 
    26   22   25 1  
    27   23   24 ar 
    28   25   26 2  
    29   25   27 2  
    30   25   28 am 
    31    3   29 1  
    32    3   30 1  
    33    5   31 1  
    34    7   32 1  
    35    9   33 1  
    36   10   34 1  
    37   11   35 1  
    38   12   36 1  
    39   15   37 1  
    40   20   38 1  
    41   21   39 1  
    42   23   40 1  
    43   24   41 1  
    44   28   42 1  
    45   28   43 1  
@<TRIPOS>SUBSTRUCTURE
     1 X43         1

