### 
### Created by X-TOOL on Mon Sep 10 21:13:10 2018
### 

@<TRIPOS>MOLECULE
3qtz_ligand
   39    41     1     0     0
SMALL
GAST_HUCK


@<TRIPOS>ATOM
      1 N01       -65.0970   25.4400  -86.3070 N.2       1 X42        -0.2715
      2 N02       -63.8670   24.8820  -84.5120 N.pl3     1 X42        -0.2326
      3 N03       -66.6120   26.2710  -87.8390 N.pl3     1 X42        -0.3317
      4 N04       -61.1610   26.6900  -78.6330 N.am      1 X42        -0.2621
      5 C05       -66.7520   26.9710  -85.6020 C.2       1 X42         0.0923
      6 C06       -66.1790   26.2310  -86.6460 C.2       1 X42         0.0846
      7 C07       -64.8350   25.5600  -85.0270 C.2       1 X42         0.2037
      8 C08       -63.1480   25.1300  -83.4680 C.ar      1 X42         0.0701
      9 C09       -67.8490   27.8350  -85.7120 C.2       1 X42         0.1291
     10 C10       -68.2710   28.6270  -84.6410 C.ar      1 X42         0.0215
     11 C11       -67.3390   29.4390  -83.8940 C.ar      1 X42        -0.0490
     12 C12       -67.7900   30.2340  -82.8060 C.ar      1 X42        -0.0584
     13 C13       -69.1620   30.2390  -82.4450 C.ar      1 X42        -0.0241
     14 C14       -70.0920   29.4530  -83.1710 C.ar      1 X42         0.1374
     15 C15       -69.6560   28.6460  -84.2670 C.ar      1 X42        -0.0114
     16 C16       -62.1540   24.1610  -83.1280 C.ar      1 X42        -0.0354
     17 C17       -61.3110   24.3680  -82.0130 C.ar      1 X42        -0.0445
     18 C18       -61.4590   25.5490  -81.2280 C.ar      1 X42         0.0965
     19 C19       -62.4440   26.5120  -81.5470 C.ar      1 X42        -0.0445
     20 C20       -63.2860   26.3090  -82.6590 C.ar      1 X42        -0.0354
     21 O21       -68.4610   27.8970  -86.7780 O.2       1 X42        -0.4023
     22 O22       -59.2810   26.6190  -80.3400 O.2       1 X42        -0.1519
     23 O23       -59.8810   24.5570  -79.3690 O.2       1 X42        -0.1519
     24 F24       -71.3740   29.4670  -82.8240 F         1 X42        -0.1824
     25 S25       -65.8720   26.6380  -84.1570 S.3       1 X42         0.0099
     26 S26       -60.3810   25.8280  -79.8640 S.o2      1 X42         0.0609
     27 H1        -63.6313   24.0107  -85.0081 H         1 X42         0.2243
     28 H2        -67.4193   26.8658  -88.0742 H         1 X42         0.1746
     29 H3        -66.1559   25.7086  -88.5715 H         1 X42         0.1746
     30 H4        -60.6678   26.9206  -77.7942 H         1 X42         0.1633
     31 H5        -62.1149   26.9685  -78.7447 H         1 X42         0.1633
     32 H6        -66.2894   29.4420  -84.1649 H         1 X42         0.0630
     33 H7        -67.0831   30.8389  -82.2498 H         1 X42         0.0618
     34 H8        -69.4999   30.8451  -81.6122 H         1 X42         0.0637
     35 H9        -70.3731   28.0471  -84.8168 H         1 X42         0.0651
     36 H10       -62.0464   23.2643  -83.7275 H         1 X42         0.0540
     37 H11       -60.5564   23.6334  -81.7560 H         1 X42         0.0607
     38 H12       -62.5512   27.4029  -80.9388 H         1 X42         0.0607
     39 H13       -64.0416   27.0463  -82.9050 H         1 X42         0.0540
@<TRIPOS>BOND
     1    1    6 1  
     2    7    1 2  
     3    2    7 1  
     4    8    2 1  
     5    6    3 1  
     6   26    4 am 
     7    5    6 2  
     8    5    9 1  
     9   25    5 1  
    10    7   25 1  
    11   16    8 ar 
    12    8   20 ar 
    13    9   10 1  
    14    9   21 2  
    15   10   11 ar 
    16   10   15 ar 
    17   11   12 ar 
    18   12   13 ar 
    19   14   13 ar 
    20   15   14 ar 
    21   14   24 1  
    22   17   16 ar 
    23   18   17 ar 
    24   18   19 ar 
    25   18   26 1  
    26   19   20 ar 
    27   26   22 2  
    28   26   23 2  
    29    2   27 1  
    30    3   28 1  
    31    3   29 1  
    32    4   30 1  
    33    4   31 1  
    34   11   32 1  
    35   12   33 1  
    36   13   34 1  
    37   15   35 1  
    38   16   36 1  
    39   17   37 1  
    40   19   38 1  
    41   20   39 1  
@<TRIPOS>SUBSTRUCTURE
     1 X42         1

