### 
### Created by X-TOOL on Mon Sep 10 21:13:10 2018
### 

@<TRIPOS>MOLECULE
3qu0_ligand
   38    40     1     0     0
SMALL
GAST_HUCK


@<TRIPOS>ATOM
      1 N01       -38.6610  -81.9650  -50.6080 N.2       1 X40        -0.2714
      2 N02       -37.3580  -82.5350  -48.8450 N.pl3     1 X40        -0.2326
      3 N03       -43.4120  -77.5010  -47.6610 N.ar      1 X40        -0.2908
      4 N04       -40.1910  -81.1210  -52.1010 N.pl3     1 X40        -0.3316
      5 N05       -34.6580  -80.8710  -42.8680 N.am      1 X40        -0.2621
      6 C06       -40.2480  -80.3860  -49.8870 C.2       1 X40         0.0937
      7 C07       -39.7270  -81.1550  -50.9270 C.2       1 X40         0.0849
      8 C08       -38.3540  -81.8390  -49.3480 C.2       1 X40         0.2038
      9 C09       -36.6270  -82.2800  -47.7930 C.ar      1 X40         0.0701
     10 C10       -41.3170  -79.4950  -49.9960 C.2       1 X40         0.1378
     11 C11       -41.6580  -78.6140  -48.9690 C.ar      1 X40         0.0513
     12 C12       -40.6770  -77.9230  -48.1810 C.ar      1 X40        -0.0255
     13 C13       -41.0640  -77.0430  -47.1460 C.ar      1 X40        -0.0288
     14 C14       -42.4370  -76.8620  -46.9180 C.ar      1 X40         0.0152
     15 C15       -43.0090  -78.3590  -48.6610 C.ar      1 X40         0.0283
     16 C16       -36.6640  -81.0350  -47.0570 C.ar      1 X40        -0.0354
     17 C17       -35.8240  -80.8420  -45.9320 C.ar      1 X40        -0.0445
     18 C18       -34.9370  -81.8780  -45.5220 C.ar      1 X40         0.0966
     19 C19       -34.8900  -83.1110  -46.2330 C.ar      1 X40        -0.0445
     20 C20       -35.7300  -83.3080  -47.3580 C.ar      1 X40        -0.0354
     21 O21       -41.9690  -79.4700  -51.0430 O.2       1 X40        -0.3994
     22 O22       -32.7880  -80.7960  -44.5770 O.2       1 X40        -0.1519
     23 O23       -33.3470  -82.9200  -43.7010 O.2       1 X40        -0.1519
     24 S24       -39.3450  -80.7300  -48.4600 S.3       1 X40         0.0101
     25 S25       -33.8640  -81.6350  -44.1430 S.o2      1 X40         0.0609
     26 H1        -37.1217  -83.4008  -49.3504 H         1 X40         0.2243
     27 H2        -40.9894  -80.5088  -52.3217 H         1 X40         0.1746
     28 H3        -39.7711  -81.7055  -52.8379 H         1 X40         0.1746
     29 H4        -34.1661  -80.6711  -42.0206 H         1 X40         0.1633
     30 H5        -35.6211  -80.6175  -42.9588 H         1 X40         0.1633
     31 H6        -39.6235  -78.0788  -48.3832 H         1 X40         0.0785
     32 H7        -40.3243  -76.5242  -46.5471 H         1 X40         0.0721
     33 H8        -42.7465  -76.1916  -46.1244 H         1 X40         0.0856
     34 H9        -43.7720  -78.8647  -49.2416 H         1 X40         0.0874
     35 H10       -37.3382  -80.2451  -47.3679 H         1 X40         0.0540
     36 H11       -35.8566  -79.9071  -45.3843 H         1 X40         0.0607
     37 H12       -34.2140  -83.8965  -45.9150 H         1 X40         0.0607
     38 H13       -35.6928  -84.2486  -47.8956 H         1 X40         0.0540
@<TRIPOS>BOND
     1    1    7 1  
     2    8    1 2  
     3    2    8 1  
     4    9    2 1  
     5    3   14 ar 
     6   15    3 ar 
     7    7    4 1  
     8   25    5 am 
     9    6    7 2  
    10    6   10 1  
    11   24    6 1  
    12    8   24 1  
    13   16    9 ar 
    14    9   20 ar 
    15   10   11 1  
    16   10   21 2  
    17   11   12 ar 
    18   11   15 ar 
    19   12   13 ar 
    20   13   14 ar 
    21   17   16 ar 
    22   18   17 ar 
    23   18   19 ar 
    24   18   25 1  
    25   19   20 ar 
    26   25   22 2  
    27   25   23 2  
    28    2   26 1  
    29    4   27 1  
    30    4   28 1  
    31    5   29 1  
    32    5   30 1  
    33   12   31 1  
    34   13   32 1  
    35   14   33 1  
    36   15   34 1  
    37   16   35 1  
    38   17   36 1  
    39   19   37 1  
    40   20   38 1  
@<TRIPOS>SUBSTRUCTURE
     1 X40         1

