### 
### Created by X-TOOL on Mon Sep 10 21:13:11 2018
### 

@<TRIPOS>MOLECULE
3que_ligand
   52    55     1     0     0
SMALL
GAST_HUCK


@<TRIPOS>ATOM
      1 OAA         2.3180    3.9460   23.0190 O.2       1 3FF        -0.3821
      2 OAB         3.3050    5.6500   30.5640 O.3       1 3FF        -0.3924
      3 OAC         4.6640    3.4050   31.2010 O.3       1 3FF        -0.3869
      4 FAD         6.0590    0.6140   14.8610 F         1 3FF        -0.1945
      5 FAE         5.9520    0.0610   19.5230 F         1 3FF        -0.1920
      6 CAF         4.0940   -0.3520   15.8310 C.ar      1 3FF        -0.0423
      7 CAG         3.3890    1.1640   20.1500 C.ar      1 3FF        -0.0406
      8 CAH         1.4440    1.6660   27.3690 C.ar      1 3FF        -0.0348
      9 CAI         0.6650    0.9990   26.4070 C.ar      1 3FF        -0.0623
     10 CAJ         3.4130   -0.7550   16.9860 C.ar      1 3FF        -0.0423
     11 CAK         3.0750    2.0750   21.1380 C.ar      1 3FF        -0.0600
     12 CAL         5.9680    0.3020   17.2050 C.ar      1 3FF        -0.0046
     13 CAM         2.2090   -0.5560   21.3260 C.ar      1 3FF        -0.0329
     14 CAN         2.5350    2.9430   25.6320 C.ar      1 3FF        -0.0217
     15 CAO         4.3330    5.2260   29.6510 C.3       1 3FF         0.0727
     16 CAP        -0.0140    0.5610   24.1130 C.3       1 3FF        -0.0100
     17 CAQ         1.0080   -0.3340   23.4130 C.3       1 3FF        -0.0090
     18 CAR         3.4600    2.8090   29.1760 C.3       1 3FF         0.0970
     19 NAS         3.2840   -1.0430   19.2800 N.pl3     1 3FF        -0.2755
     20 OAT         3.1610    3.3180   27.8470 O.3       1 3FF        -0.3188
     21 CAU         2.0720    2.7620   23.2550 C.2       1 3FF         0.1392
     22 CAV         5.3730    0.1890   15.9490 C.ar      1 3FF         0.1177
     23 CAW         2.9730   -0.1550   20.2390 C.ar      1 3FF         0.0551
     24 CAX         5.2960   -0.1060   18.3420 C.ar      1 3FF         0.1521
     25 CAY         2.3780    2.6240   26.9720 C.ar      1 3FF         0.0895
     26 CAZ         0.8410    1.3450   25.0640 C.ar      1 3FF        -0.0327
     27 CBA         1.8730    0.3460   22.3270 C.ar      1 3FF        -0.0327
     28 CBB         3.9970   -0.6450   18.2300 C.ar      1 3FF         0.0900
     29 CBC         2.3070    1.6670   22.2200 C.ar      1 3FF         0.0214
     30 CBD         1.7610    2.3110   24.6830 C.ar      1 3FF         0.0237
     31 CBE         4.5640    3.7070   29.8120 C.3       1 3FF         0.1055
     32 H           3.5795    5.4597   31.4640 H         1 3FF         0.2095
     33 H           3.8505    3.6603   31.6422 H         1 3FF         0.2100
     34 H           3.6293   -0.4601   14.8510 H         1 3FF         0.0540
     35 H           3.9724    1.4864   19.2875 H         1 3FF         0.0489
     36 H           1.3182    1.4344   28.4267 H         1 3FF         0.0564
     37 H          -0.0549    0.2347   26.6998 H         1 3FF         0.0543
     38 H           2.4055   -1.1620   16.9003 H         1 3FF         0.0510
     39 H           3.4265    3.1045   21.0694 H         1 3FF         0.0621
     40 H           6.9726    0.7160   17.2911 H         1 3FF         0.0559
     41 H           1.8692   -1.5894   21.3947 H         1 3FF         0.0476
     42 H           3.2681    3.6911   25.3301 H         1 3FF         0.0572
     43 H           5.2575    5.7608   29.8686 H         1 3FF         0.0584
     44 H           4.0243    5.4418   28.6281 H         1 3FF         0.0584
     45 H          -0.8039   -0.0007   24.6117 H         1 3FF         0.0443
     46 H          -0.5744    1.1914   23.4226 H         1 3FF         0.0443
     47 H           0.4372   -1.1125   22.9067 H         1 3FF         0.0460
     48 H           1.6978   -0.6733   24.1857 H         1 3FF         0.0460
     49 H           3.8102    1.7789   29.1101 H         1 3FF         0.0637
     50 H           2.5619    2.8296   29.7933 H         1 3FF         0.0637
     51 H           2.9765   -2.0125   19.3563 H         1 3FF         0.2079
     52 H           5.4832    3.4792   29.2722 H         1 3FF         0.0643
@<TRIPOS>BOND
     1   21    1 2  
     2   15    2 1  
     3   31    3 1  
     4   22    4 1  
     5   24    5 1  
     6   10    6 ar 
     7    6   22 ar 
     8   11    7 ar 
     9    7   23 ar 
    10    9    8 ar 
    11    8   25 ar 
    12   26    9 ar 
    13   28   10 ar 
    14   29   11 ar 
    15   22   12 ar 
    16   12   24 ar 
    17   23   13 ar 
    18   13   27 ar 
    19   25   14 ar 
    20   14   30 ar 
    21   31   15 1  
    22   17   16 1  
    23   16   26 1  
    24   27   17 1  
    25   20   18 1  
    26   18   31 1  
    27   23   19 1  
    28   19   28 1  
    29   25   20 1  
    30   21   29 1  
    31   21   30 1  
    32   24   28 ar 
    33   26   30 ar 
    34   27   29 ar 
    35    2   32 1  
    36    3   33 1  
    37    6   34 1  
    38    7   35 1  
    39    8   36 1  
    40    9   37 1  
    41   10   38 1  
    42   11   39 1  
    43   12   40 1  
    44   13   41 1  
    45   14   42 1  
    46   15   43 1  
    47   15   44 1  
    48   16   45 1  
    49   16   46 1  
    50   17   47 1  
    51   17   48 1  
    52   18   49 1  
    53   18   50 1  
    54   19   51 1  
    55   31   52 1  
@<TRIPOS>SUBSTRUCTURE
     1 3FF         1

