### 
### Created by X-TOOL on Mon Sep 10 21:13:08 2018
### 

@<TRIPOS>MOLECULE
3qup_ligand
   60    65     1     0     0
SMALL
GAST_HUCK


@<TRIPOS>ATOM
      1 C1         10.4110   -7.6330   14.6510 C.3       1 LUN         0.0177
      2 C2          9.0600   -7.0270   14.8810 C.ar      1 LUN        -0.0237
      3 C3         10.1140   -9.1220   14.7860 C.3       1 LUN         0.0445
      4 C4         11.0310   -7.3660   13.2940 C.3       1 LUN        -0.0573
      5 C5         11.4010   -7.1810   15.6740 C.3       1 LUN        -0.0354
      6 C6          8.1400   -7.9940   15.2020 C.ar      1 LUN         0.1045
      7 C7          8.6740   -5.7040   14.8030 C.ar      1 LUN        -0.0530
      8 N8          8.7300   -9.2630   15.2120 N.am      1 LUN        -0.2015
      9 N9         12.4500   -6.9770   13.5480 N.4       1 LUN         0.2324
     10 C10        12.7510   -7.1270   14.9920 C.3       1 LUN        -0.0423
     11 C11         6.8250   -7.6850   15.4460 C.ar      1 LUN        -0.0063
     12 C12         7.3540   -5.3730   15.0490 C.ar      1 LUN        -0.0477
     13 C13         7.9510  -10.4290   15.1240 C.2       1 LUN         0.2740
     14 C14        13.4640   -7.6100   12.6550 C.3       1 LUN         0.0191
     15 C15         6.4340   -6.3650   15.3650 C.ar      1 LUN        -0.0464
     16 C16         8.5430  -11.6450   14.6620 C.2       1 LUN         0.1423
     17 O17         6.7560  -10.4270   15.4130 O.2       1 LUN        -0.3619
     18 C18        14.8460   -7.0420   12.9640 C.3       1 LUN         0.0001
     19 C19        13.1270   -7.2050   11.2400 C.3       1 LUN         0.0103
     20 C20         9.8320  -12.1490   14.6400 C.2       1 LUN        -0.0396
     21 N21         7.7680  -12.6110   14.0910 N.pl3     1 LUN        -0.2679
     22 C22        15.8630   -7.5510   11.9460 C.3       1 LUN        -0.0073
     23 N23        14.0820   -7.7900   10.2980 N.4       1 LUN         0.2309
     24 C24         9.8090  -13.4370   14.0360 C.ar      1 LUN        -0.0196
     25 C25         8.4950  -13.6980   13.6990 C.ar      1 LUN         0.0646
     26 C26        15.4130   -7.2160   10.5330 C.3       1 LUN        -0.0333
     27 C27        10.7790  -14.3920   13.7520 C.ar      1 LUN        -0.0385
     28 C28         8.0610  -14.8540   13.0850 C.ar      1 LUN        -0.0408
     29 C29        10.3600  -15.5620   13.1450 C.ar      1 LUN         0.1169
     30 C30         9.0420  -15.7820   12.8190 C.ar      1 LUN        -0.0395
     31 F31        11.2700  -16.5290   12.8460 F         1 LUN        -0.1932
     32 H1         10.7834   -9.5707   15.5347 H         1 LUN         0.0493
     33 H2         10.2600   -9.6220   13.8171 H         1 LUN         0.0493
     34 H3         10.4977   -6.5489   12.7862 H         1 LUN         0.0675
     35 H4         10.9906   -8.2725   12.6722 H         1 LUN         0.0675
     36 H5         11.4297   -7.8930   16.5120 H         1 LUN         0.0189
     37 H6         11.1275   -6.1838   16.0492 H         1 LUN         0.0189
     38 H7          9.3957   -4.9350   14.5523 H         1 LUN         0.0770
     39 H8         12.5054   -5.9904   13.3489 H         1 LUN         0.2027
     40 H9         13.3131   -8.0547   15.1747 H         1 LUN         0.0804
     41 H10        13.3333   -6.2677   15.3561 H         1 LUN         0.0804
     42 H11         6.1104   -8.4606   15.6966 H         1 LUN         0.0600
     43 H12         7.0366   -4.3379   14.9952 H         1 LUN         0.0600
     44 H13        13.4565   -8.7039   12.7702 H         1 LUN         0.0904
     45 H14         5.3995   -6.0990   15.5496 H         1 LUN         0.0798
     46 H15        15.1517   -7.3576   13.9724 H         1 LUN         0.0323
     47 H16        14.8059   -5.9436   12.9199 H         1 LUN         0.0323
     48 H17        13.1639   -6.1086   11.1588 H         1 LUN         0.0870
     49 H18        12.1143   -7.5571   10.9942 H         1 LUN         0.0870
     50 H19        10.7175  -11.6432   15.0220 H         1 LUN         0.0396
     51 H20         6.7485  -12.5296   13.9692 H         1 LUN         0.2253
     52 H21        15.9607   -8.6421   12.0459 H         1 LUN         0.0319
     53 H22        16.8366   -7.0765   12.1382 H         1 LUN         0.0319
     54 H23        13.7905   -7.5879    9.3545 H         1 LUN         0.2016
     55 H24        14.1180   -8.7884   10.4320 H         1 LUN         0.2016
     56 H25        16.1274   -7.6372    9.8104 H         1 LUN         0.0814
     57 H26        15.3687   -6.1237   10.4108 H         1 LUN         0.0814
     58 H27        11.8219  -14.2261   13.9966 H         1 LUN         0.0532
     59 H28         7.0206  -15.0201   12.8299 H         1 LUN         0.0545
     60 H29         8.7677  -16.7140   12.3382 H         1 LUN         0.0547
@<TRIPOS>BOND
     1    1    2 1  
     2    1    3 1  
     3    1    4 1  
     4    1    5 1  
     5    2    6 ar 
     6    2    7 ar 
     7    3    8 1  
     8    4    9 1  
     9    5   10 1  
    10    6    8 1  
    11    6   11 ar 
    12    7   12 ar 
    13    8   13 am 
    14    9   10 1  
    15    9   14 1  
    16   11   15 ar 
    17   12   15 ar 
    18   13   16 1  
    19   13   17 2  
    20   14   18 1  
    21   14   19 1  
    22   16   20 2  
    23   16   21 1  
    24   18   22 1  
    25   19   23 1  
    26   20   24 1  
    27   21   25 1  
    28   22   26 1  
    29   23   26 1  
    30   24   25 ar 
    31   24   27 ar 
    32   25   28 ar 
    33   27   29 ar 
    34   28   30 ar 
    35   29   30 ar 
    36   29   31 1  
    37    3   32 1  
    38    3   33 1  
    39    4   34 1  
    40    4   35 1  
    41    5   36 1  
    42    5   37 1  
    43    7   38 1  
    44    9   39 1  
    45   10   40 1  
    46   10   41 1  
    47   11   42 1  
    48   12   43 1  
    49   14   44 1  
    50   15   45 1  
    51   18   46 1  
    52   18   47 1  
    53   19   48 1  
    54   19   49 1  
    55   20   50 1  
    56   21   51 1  
    57   22   52 1  
    58   22   53 1  
    59   23   54 1  
    60   23   55 1  
    61   26   56 1  
    62   26   57 1  
    63   27   58 1  
    64   28   59 1  
    65   30   60 1  
@<TRIPOS>SUBSTRUCTURE
     1 LUN         1

