### 
### Created by X-TOOL on Mon Sep 10 21:13:07 2018
### 

@<TRIPOS>MOLECULE
3qvu_ligand
   15    15     1     0     0
SMALL
GAST_HUCK


@<TRIPOS>ATOM
      1 C1        -26.2640   -0.0260   -5.0270 C.ar      1 NPO         0.1882
      2 C2        -25.8850    1.2380   -4.5840 C.ar      1 NPO        -0.0271
      3 C3        -24.5370    1.5610   -4.4690 C.ar      1 NPO        -0.0243
      4 C4        -23.5670    0.6200   -4.7990 C.ar      1 NPO         0.0946
      5 C5        -23.9450   -0.6430   -5.2430 C.ar      1 NPO        -0.0243
      6 C6        -25.2930   -0.9650   -5.3560 C.ar      1 NPO        -0.0271
      7 OH        -22.2460    0.9340   -4.6880 O.3       1 NPO        -0.3286
      8 N1        -27.6210   -0.3590   -5.1420 N.2       1 NPO         0.3062
      9 O2        -28.4850    0.4690   -4.9050 O.2       1 NPO         0.1732
     10 O3        -27.9420   -1.4880   -5.4760 O.2       1 NPO         0.1732
     11 H         -26.6454    1.9755   -4.3270 H         1 NPO         0.0666
     12 H         -24.2409    2.5505   -4.1206 H         1 NPO         0.0561
     13 H         -23.1848   -1.3799   -5.5022 H         1 NPO         0.0561
     14 H         -25.5888   -1.9550   -5.7030 H         1 NPO         0.0666
     15 H         -21.8265    0.3333   -4.0677 H         1 NPO         0.2507
@<TRIPOS>BOND
     1    1    2 ar 
     2    1    6 ar 
     3    1    8 1  
     4    2    3 ar 
     5    3    4 ar 
     6    4    5 ar 
     7    4    7 1  
     8    5    6 ar 
     9    8    9 2  
    10    8   10 2  
    11    2   11 1  
    12    3   12 1  
    13    5   13 1  
    14    6   14 1  
    15    7   15 1  
@<TRIPOS>SUBSTRUCTURE
     1 NPO         1

