### 
### Created by X-TOOL on Mon Sep 10 21:13:07 2018
### 

@<TRIPOS>MOLECULE
3qvv_ligand
   19    20     1     0     0
SMALL
GAST_HUCK


@<TRIPOS>ATOM
      1 C1          2.1220   12.1180   12.7420 C.ar      1 3QV         0.0950
      2 N1          4.5130    5.1180   11.6260 N.1       1 3QV        -0.3612
      3 O1          1.5030   13.2900   13.0350 O.3       1 3QV        -0.3266
      4 C2          3.3610   12.1270   12.1130 C.ar      1 3QV        -0.0278
      5 O2          1.5850    6.3140   13.0970 O.2       1 3QV        -0.3739
      6 C3          3.9940   10.9270   11.8180 C.ar      1 3QV        -0.0503
      7 O3          1.5090    8.5480   13.1190 O.3       1 3QV        -0.2053
      8 C4          3.3840    9.7240   12.1510 C.ar      1 3QV         0.0383
      9 C5          4.0160    8.5300   11.8510 C.2       1 3QV        -0.0007
     10 C6          3.3770    7.3480   12.1840 C.2       1 3QV         0.1668
     11 C7          3.9950    6.0980   11.8810 C.1       1 3QV         0.0772
     12 C8          2.1360    7.3760   12.8100 C.2       1 3QV         0.2880
     13 C9          2.1410    9.7100   12.7780 C.ar      1 3QV         0.1453
     14 C10         1.5140   10.9140   13.0730 C.ar      1 3QV         0.0155
     15 H           1.3497   13.7810   12.2244 H         1 3QV         0.2532
     16 H           3.8346   13.0734   11.8519 H         1 3QV         0.0518
     17 H           4.9669   10.9287   11.3265 H         1 3QV         0.0665
     18 H           4.9917    8.5205   11.3651 H         1 3QV         0.0976
     19 H           0.5418   10.9138   13.5658 H         1 3QV         0.0506
@<TRIPOS>BOND
     1    1    3 1  
     2    4    1 ar 
     3    1   14 ar 
     4   11    2 3  
     5    6    4 ar 
     6   12    5 2  
     7    8    6 ar 
     8    7   12 1  
     9   13    7 1  
    10    9    8 1  
    11    8   13 ar 
    12   10    9 2  
    13   10   11 1  
    14   10   12 1  
    15   13   14 ar 
    16    3   15 1  
    17    4   16 1  
    18    6   17 1  
    19    9   18 1  
    20   14   19 1  
@<TRIPOS>SUBSTRUCTURE
     1 3QV         1

