### 
### Created by X-TOOL on Mon Sep 10 21:13:11 2018
### 

@<TRIPOS>MOLECULE
3qw5_ligand
   80    80     1     0     0
SMALL
GAST_HUCK


@<TRIPOS>ATOM
      1 N          27.6380   27.5060   52.9170 N.4       1 ARG         0.2379
      2 CA         27.5490   26.0210   52.9390 C.3       1 ARG         0.0651
      3 C          26.5170   25.5690   53.9700 C.2       1 ARG         0.2267
      4 O          26.3290   26.2110   55.0020 O.2       1 ARG        -0.3907
      5 CB         28.9140   25.4070   53.2840 C.3       1 ARG         0.0110
      6 CG         30.0330   25.7970   52.3260 C.3       1 ARG        -0.0125
      7 CD         31.2680   24.9320   52.5370 C.3       1 ARG         0.0629
      8 NE         32.3250   25.2120   51.5640 N.pl3     1 ARG        -0.2723
      9 CZ         33.1760   26.2320   51.6460 C.cat     1 ARG         0.2882
     10 NH1        33.1040   27.0800   52.6620 N.pl3     1 ARG        -0.2849
     11 NH2        34.1040   26.4020   50.7100 N.pl3     1 ARG        -0.2849
     12 N          25.8530   24.4590   53.6690 N.am      1 ARG        -0.2610
     13 CA         24.8320   23.8850   54.5350 C.3       1 ARG         0.1312
     14 C          25.3960   23.2960   55.8210 C.2       1 ARG         0.2037
     15 O          24.7730   23.3950   56.8750 O.2       1 ARG        -0.3944
     16 CB         24.0750   22.7970   53.7740 C.3       1 ARG        -0.0092
     17 CG         23.0340   23.2860   52.7890 C.3       1 ARG        -0.0156
     18 CD         21.7110   23.4860   53.4980 C.3       1 ARG         0.0627
     19 NE         21.4170   22.3480   54.3680 N.pl3     1 ARG        -0.2723
     20 CZ         20.2500   22.1310   54.9640 C.cat     1 ARG         0.2882
     21 NH1        19.2440   22.9740   54.7870 N.pl3     1 ARG        -0.2849
     22 NH2        20.0910   21.0670   55.7400 N.pl3     1 ARG        -0.2849
     23 N          26.5690   22.6800   55.7200 N.am      1 GLY        -0.2664
     24 CA         27.1840   22.0790   56.8910 C.3       1 GLY         0.1201
     25 C          26.6120   20.7000   57.2150 C.2       1 GLY         0.2009
     26 O          25.9370   20.0980   56.3480 O.2       1 GLY        -0.3947
     27 N          26.8590   20.2010   58.4350 N.am      1 PHE        -0.2622
     28 CA         26.3640   18.8770   58.8290 C.3       1 PHE         0.1401
     29 C          24.8540   18.8270   59.0820 C.2       1 PHE         0.2012
     30 O          24.2610   17.7440   58.8590 O.2       1 PHE        -0.3946
     31 CB         27.0990   18.3740   60.0640 C.3       1 PHE         0.0214
     32 CG         28.5820   18.2000   59.8580 C.ar      1 PHE        -0.0386
     33 CD1        29.4670   19.2160   60.1960 C.ar      1 PHE        -0.0601
     34 CD2        29.0880   17.0380   59.2880 C.ar      1 PHE        -0.0601
     35 CE1        30.8400   19.0790   59.9670 C.ar      1 PHE        -0.0686
     36 CE2        30.4510   16.8880   59.0530 C.ar      1 PHE        -0.0686
     37 CZ         31.3320   17.9130   59.3940 C.ar      1 PHE        -0.0687
     38 N          24.1870   19.9460   59.5490 N.am      1 NH2        -0.2988
     39 H1         28.3216   27.7915   52.2334 H         1 ARG         0.2015
     40 H2         27.9136   27.8396   53.8274 H         1 ARG         0.2015
     41 H3         26.7392   27.8930   52.6752 H         1 ARG         0.2015
     42 H4         27.2396   25.6694   51.9437 H         1 ARG         0.1098
     43 H5         28.8134   24.3117   53.2697 H         1 ARG         0.0347
     44 H6         29.1950   25.7362   54.2953 H         1 ARG         0.0347
     45 H7         30.2999   26.8504   52.4965 H         1 ARG         0.0302
     46 H8         29.6797   25.6710   51.2919 H         1 ARG         0.0302
     47 H9         30.9773   23.8750   52.4467 H         1 ARG         0.0689
     48 H10        31.6608   25.1193   53.5473 H         1 ARG         0.0689
     49 H11        32.4166   24.5752   50.7597 H         1 ARG         0.2642
     50 H12        33.7641   27.8684   52.7226 H         1 ARG         0.2615
     51 H13        32.3880   26.9506   53.3910 H         1 ARG         0.2615
     52 H14        34.1636   25.7454   49.9186 H         1 ARG         0.2615
     53 H15        34.7636   27.1903   50.7759 H         1 ARG         0.2615
     54 H16        26.0636   23.9958   52.8081 H         1 ARG         0.1884
     55 H17        24.1271   24.6846   54.8065 H         1 ARG         0.0800
     56 H18        23.5676   22.1590   54.5126 H         1 ARG         0.0313
     57 H19        24.8118   22.1991   53.2176 H         1 ARG         0.0313
     58 H20        22.9105   22.5416   51.9886 H         1 ARG         0.0301
     59 H21        23.3631   24.2412   52.3539 H         1 ARG         0.0301
     60 H22        20.9110   23.5852   52.7496 H         1 ARG         0.0689
     61 H23        21.7608   24.4019   54.1051 H         1 ARG         0.0689
     62 H24        22.1702   21.6645   54.5306 H         1 ARG         0.2642
     63 H25        18.3405   22.8023   55.2509 H         1 ARG         0.2615
     64 H26        19.3651   23.8013   54.1855 H         1 ARG         0.2615
     65 H27        20.8718   20.4099   55.8793 H         1 ARG         0.2615
     66 H28        19.1867   20.8980   56.2033 H         1 ARG         0.2615
     67 H29        27.0304   22.6299   54.8342 H         1 GLY         0.1881
     68 H30        27.0182   22.7404   57.7542 H         1 GLY         0.0763
     69 H31        28.2640   21.9780   56.7086 H         1 GLY         0.0763
     70 H32        27.3901   20.7409   59.0880 H         1 PHE         0.1885
     71 H33        26.5816   18.1890   57.9987 H         1 PHE         0.0823
     72 H34        26.6718   17.4016   60.3503 H         1 PHE         0.0474
     73 H35        26.9441   19.0967   60.8786 H         1 PHE         0.0474
     74 H36        29.0882   20.1278   60.6435 H         1 PHE         0.0557
     75 H37        28.4096   16.2354   59.0221 H         1 PHE         0.0557
     76 H38        31.5184   19.8806   60.2359 H         1 PHE         0.0599
     77 H39        30.8274   15.9753   58.6053 H         1 PHE         0.0599
     78 H40        32.3949   17.8009   59.2131 H         1 PHE         0.0559
     79 H41        23.2012   19.9085   59.7126 H         1 NH2         0.1815
     80 H42        24.6908   20.7921   59.7228 H         1 NH2         0.1815
@<TRIPOS>BOND
     1    1    2 1  
     2    2    3 1  
     3    2    5 1  
     4    3    4 2  
     5    3   12 am 
     6    5    6 1  
     7    6    7 1  
     8    7    8 1  
     9    8    9 ar 
    10    9   10 ar 
    11    9   11 ar 
    12   12   13 1  
    13   13   14 1  
    14   13   16 1  
    15   14   15 2  
    16   14   23 am 
    17   16   17 1  
    18   17   18 1  
    19   18   19 1  
    20   19   20 ar 
    21   20   21 ar 
    22   20   22 ar 
    23   23   24 1  
    24   24   25 1  
    25   25   26 2  
    26   25   27 am 
    27   27   28 1  
    28   28   29 1  
    29   28   31 1  
    30   29   30 2  
    31   29   38 am 
    32   31   32 1  
    33   32   33 ar 
    34   32   34 ar 
    35   33   35 ar 
    36   34   36 ar 
    37   35   37 ar 
    38   36   37 ar 
    39    1   39 1  
    40    1   40 1  
    41    1   41 1  
    42    2   42 1  
    43    5   43 1  
    44    5   44 1  
    45    6   45 1  
    46    6   46 1  
    47    7   47 1  
    48    7   48 1  
    49    8   49 1  
    50   10   50 1  
    51   10   51 1  
    52   11   52 1  
    53   11   53 1  
    54   12   54 1  
    55   13   55 1  
    56   16   56 1  
    57   16   57 1  
    58   17   58 1  
    59   17   59 1  
    60   18   60 1  
    61   18   61 1  
    62   19   62 1  
    63   21   63 1  
    64   21   64 1  
    65   22   65 1  
    66   22   66 1  
    67   23   67 1  
    68   24   68 1  
    69   24   69 1  
    70   27   70 1  
    71   28   71 1  
    72   31   72 1  
    73   31   73 1  
    74   33   74 1  
    75   34   75 1  
    76   35   76 1  
    77   36   77 1  
    78   37   78 1  
    79   38   79 1  
    80   38   80 1  
@<TRIPOS>SUBSTRUCTURE
     1 ARG         1

