### 
### Created by X-TOOL on Mon Sep 10 21:13:10 2018
### 

@<TRIPOS>MOLECULE
3qw6_ligand
   68    68     1     0     0
SMALL
GAST_HUCK


@<TRIPOS>ATOM
      1 N          27.5400   27.5300   53.0280 N.4       1 ARG         0.2379
      2 CA         27.3840   26.0480   53.0320 C.3       1 ARG         0.0651
      3 C          26.3670   25.6230   54.0870 C.2       1 ARG         0.2268
      4 O          26.3380   26.1680   55.1890 O.2       1 ARG        -0.3907
      5 CB         28.7250   25.3730   53.3220 C.3       1 ARG         0.0110
      6 CG         29.8350   25.7180   52.3420 C.3       1 ARG        -0.0125
      7 CD         31.0490   24.8350   52.5940 C.3       1 ARG         0.0629
      8 NE         32.1660   25.1390   51.7020 N.pl3     1 ARG        -0.2723
      9 CZ         32.9300   26.2230   51.7990 C.cat     1 ARG         0.2882
     10 NH1        32.7010   27.1150   52.7540 N.pl3     1 ARG        -0.2849
     11 NH2        33.9280   26.4140   50.9440 N.pl3     1 ARG        -0.2849
     12 N          25.5300   24.6520   53.7370 N.am      1 TYR        -0.2594
     13 CA         24.4960   24.1420   54.6360 C.3       1 TYR         0.1391
     14 C          25.1050   23.4880   55.8780 C.2       1 TYR         0.2055
     15 O          24.5560   23.5880   56.9780 O.2       1 TYR        -0.3942
     16 CB         23.6250   23.1190   53.8990 C.3       1 TYR         0.0164
     17 CG         22.3180   22.8110   54.5960 C.ar      1 TYR        -0.0493
     18 CD1        21.2630   23.7200   54.5650 C.ar      1 TYR        -0.0685
     19 CD2        22.1390   21.6190   55.3000 C.ar      1 TYR        -0.0685
     20 CE1        20.0550   23.4560   55.2170 C.ar      1 TYR        -0.0398
     21 CE2        20.9300   21.3410   55.9610 C.ar      1 TYR        -0.0398
     22 CZ         19.8950   22.2690   55.9120 C.ar      1 TYR         0.0805
     23 OH         18.7040   22.0210   56.5580 O.3       1 TYR        -0.3376
     24 N          26.2360   22.8120   55.6970 N.am      1 GLY        -0.2663
     25 CA         26.8900   22.1700   56.8240 C.3       1 GLY         0.1201
     26 C          26.3920   20.7740   57.1510 C.2       1 GLY         0.2008
     27 O          25.5630   20.2100   56.4320 O.2       1 GLY        -0.3947
     28 N          26.9020   20.2300   58.2550 N.am      1 CYS        -0.2632
     29 CA         26.5620   18.8880   58.7280 C.3       1 CYS         0.1393
     30 C          25.2020   18.8030   59.4110 C.2       1 CYS         0.2000
     31 O          24.6420   17.6850   59.4460 O.2       1 CYS        -0.3947
     32 CB         27.6390   18.3860   59.6970 C.3       1 CYS         0.0311
     33 SG         29.3090   18.3910   59.0130 S.3       1 CYS        -0.1735
     34 N          24.7140   19.9200   59.9720 N.am      1 NH2        -0.2989
     35 H1         28.2140   27.7950   52.3269 H         1 ARG         0.2015
     36 H2         27.8590   27.8368   53.9336 H         1 ARG         0.2015
     37 H3         26.6526   27.9607   52.8207 H         1 ARG         0.2015
     38 H4         27.0282   25.7267   52.0420 H         1 ARG         0.1098
     39 H5         28.5728   24.2839   53.2976 H         1 ARG         0.0347
     40 H6         29.0503   25.6754   54.3284 H         1 ARG         0.0347
     41 H7         30.1194   26.7727   52.4710 H         1 ARG         0.0302
     42 H8         29.4759   25.5581   51.3146 H         1 ARG         0.0302
     43 H9         30.7567   23.7850   52.4456 H         1 ARG         0.0689
     44 H10        31.3796   24.9803   53.6330 H         1 ARG         0.0689
     45 H11        32.3754   24.4691   50.9481 H         1 ARG         0.2642
     46 H12        33.2937   27.9541   52.8278 H         1 ARG         0.2615
     47 H13        31.9305   26.9684   53.4216 H         1 ARG         0.2615
     48 H14        34.1090   25.7238   50.2012 H         1 ARG         0.2615
     49 H15        34.5211   27.2524   51.0236 H         1 ARG         0.2615
     50 H16        25.6105   24.2546   52.8229 H         1 TYR         0.1886
     51 H17        23.8648   24.9840   54.9562 H         1 TYR         0.0821
     52 H18        24.1954   22.1833   53.8036 H         1 TYR         0.0453
     53 H19        23.3987   23.5142   52.8977 H         1 TYR         0.0453
     54 H20        21.3812   24.6518   54.0238 H         1 TYR         0.0530
     55 H21        22.9456   20.8958   55.3376 H         1 TYR         0.0530
     56 H22        19.2469   24.1775   55.1787 H         1 TYR         0.0525
     57 H23        20.8053   20.4113   56.5043 H         1 TYR         0.0525
     58 H24        18.8661   21.9116   57.4876 H         1 TYR         0.2458
     59 H25        26.6369   22.7456   54.7833 H         1 GLY         0.1881
     60 H26        26.7374   22.8021   57.7112 H         1 GLY         0.0763
     61 H27        27.9652   22.1041   56.6011 H         1 GLY         0.0763
     62 H28        27.5531   20.7686   58.7898 H         1 CYS         0.1884
     63 H29        26.5408   18.2222   57.8527 H         1 CYS         0.0808
     64 H30        27.3883   17.3552   59.9876 H         1 CYS         0.0422
     65 H31        27.6292   19.0309   60.5880 H         1 CYS         0.0422
     66 H32        29.5607   19.3313   58.7511 H         1 CYS         0.1019
     67 H33        23.8248   19.9026   60.4291 H         1 NH2         0.1815
     68 H34        25.2396   20.7699   59.9330 H         1 NH2         0.1815
@<TRIPOS>BOND
     1    1    2 1  
     2    2    3 1  
     3    2    5 1  
     4    3    4 2  
     5    3   12 am 
     6    5    6 1  
     7    6    7 1  
     8    7    8 1  
     9    8    9 ar 
    10    9   10 ar 
    11    9   11 ar 
    12   12   13 1  
    13   13   14 1  
    14   13   16 1  
    15   14   15 2  
    16   14   24 am 
    17   16   17 1  
    18   17   18 ar 
    19   17   19 ar 
    20   18   20 ar 
    21   19   21 ar 
    22   20   22 ar 
    23   21   22 ar 
    24   22   23 1  
    25   24   25 1  
    26   25   26 1  
    27   26   27 2  
    28   26   28 am 
    29   28   29 1  
    30   29   30 1  
    31   29   32 1  
    32   30   31 2  
    33   30   34 am 
    34   32   33 1  
    35    1   35 1  
    36    1   36 1  
    37    1   37 1  
    38    2   38 1  
    39    5   39 1  
    40    5   40 1  
    41    6   41 1  
    42    6   42 1  
    43    7   43 1  
    44    7   44 1  
    45    8   45 1  
    46   10   46 1  
    47   10   47 1  
    48   11   48 1  
    49   11   49 1  
    50   12   50 1  
    51   13   51 1  
    52   16   52 1  
    53   16   53 1  
    54   18   54 1  
    55   19   55 1  
    56   20   56 1  
    57   21   57 1  
    58   23   58 1  
    59   24   59 1  
    60   25   60 1  
    61   25   61 1  
    62   28   62 1  
    63   29   63 1  
    64   32   64 1  
    65   32   65 1  
    66   33   66 1  
    67   34   67 1  
    68   34   68 1  
@<TRIPOS>SUBSTRUCTURE
     1 ARG         1

