### 
### Created by X-TOOL on Mon Sep 10 21:13:10 2018
### 

@<TRIPOS>MOLECULE
3qw7_ligand
   84    84     1     0     0
SMALL
GAST_HUCK


@<TRIPOS>ATOM
      1 N          27.0900   27.7610   53.0240 N.4       1 ARG         0.2379
      2 CA         27.2360   26.2780   53.0750 C.3       1 ARG         0.0651
      3 C          26.5420   25.7710   54.3220 C.2       1 ARG         0.2267
      4 O          26.3240   26.5300   55.2690 O.2       1 ARG        -0.3907
      5 CB         28.7040   25.8620   53.1980 C.3       1 ARG         0.0110
      6 CG         29.6660   26.3660   52.1550 C.3       1 ARG        -0.0125
      7 CD         30.9650   25.5690   52.2780 C.3       1 ARG         0.0629
      8 NE         32.0310   26.0670   51.4170 N.pl3     1 ARG        -0.2723
      9 CZ         32.7520   27.1530   51.6680 C.cat     1 ARG         0.2882
     10 NH1        32.5270   27.8670   52.7640 N.pl3     1 ARG        -0.2849
     11 NH2        33.7050   27.5250   50.8240 N.pl3     1 ARG        -0.2849
     12 N          26.1890   24.4910   54.3250 N.am      1 ARG        -0.2610
     13 CA         25.5920   23.9100   55.5160 C.3       1 ARG         0.1312
     14 C          26.6830   22.9830   56.0530 C.2       1 ARG         0.2040
     15 O          27.6390   22.6750   55.3420 O.2       1 ARG        -0.3944
     16 CB         24.2840   23.1640   55.1890 C.3       1 ARG        -0.0092
     17 CG         24.3950   21.9530   54.2970 C.3       1 ARG        -0.0156
     18 CD         23.0250   21.5940   53.6910 C.3       1 ARG         0.0627
     19 NE         21.9400   21.4630   54.6720 N.pl3     1 ARG        -0.2723
     20 CZ         20.9670   22.3560   54.8550 C.cat     1 ARG         0.2882
     21 NH1        20.9240   23.4680   54.1300 N.pl3     1 ARG        -0.2849
     22 NH2        20.0200   22.1310   55.7560 N.pl3     1 ARG        -0.2849
     23 N          26.5670   22.5620   57.3040 N.am      1 PHE        -0.2619
     24 CA         27.5840   21.7120   57.9030 C.3       1 PHE         0.1404
     25 C          27.1110   20.2710   58.0250 C.2       1 PHE         0.2060
     26 O          27.5070   19.4090   57.2360 O.2       1 PHE        -0.3942
     27 CB         27.9630   22.2910   59.2710 C.3       1 PHE         0.0214
     28 CG         29.1650   21.6550   59.8990 C.ar      1 PHE        -0.0386
     29 CD1        30.3870   21.6200   59.2330 C.ar      1 PHE        -0.0601
     30 CD2        29.0780   21.1040   61.1700 C.ar      1 PHE        -0.0601
     31 CE1        31.5100   21.0510   59.8340 C.ar      1 PHE        -0.0686
     32 CE2        30.1920   20.5340   61.7820 C.ar      1 PHE        -0.0686
     33 CZ         31.4100   20.5040   61.1100 C.ar      1 PHE        -0.0687
     34 N          26.2640   20.0070   59.0140 N.am      1 CYS        -0.2628
     35 CA         25.7450   18.6580   59.2090 C.3       1 CYS         0.1393
     36 C          24.3760   18.5330   58.5520 C.2       1 CYS         0.2000
     37 O          23.4990   17.8480   59.1250 O.2       1 CYS        -0.3947
     38 CB         25.6240   18.3250   60.7000 C.3       1 CYS         0.0311
     39 SG         27.1990   18.3600   61.5950 S.3       1 CYS        -0.1735
     40 N          24.2830   19.0830   57.2860 N.am      1 NH2        -0.2989
     41 H1         27.5472   28.1154   52.1985 H         1 ARG         0.2015
     42 H2         27.5126   28.1686   53.8433 H         1 ARG         0.2015
     43 H3         26.1115   28.0015   52.9956 H         1 ARG         0.2015
     44 H4         26.7914   25.8310   52.1736 H         1 ARG         0.1098
     45 H5         28.7370   24.7628   53.1709 H         1 ARG         0.0347
     46 H6         29.0646   26.2157   54.1752 H         1 ARG         0.0347
     47 H7         29.8679   27.4346   52.3200 H         1 ARG         0.0302
     48 H8         29.2360   26.2246   51.1525 H         1 ARG         0.0302
     49 H9         30.7593   24.5224   52.0091 H         1 ARG         0.0689
     50 H10        31.3076   25.6188   53.3221 H         1 ARG         0.0689
     51 H11        32.2386   25.5409   50.5562 H         1 ARG         0.2642
     52 H12        33.0890   28.7089   52.9546 H         1 ARG         0.2615
     53 H13        31.7904   27.5792   53.4240 H         1 ARG         0.2615
     54 H14        33.8827   26.9736   49.9724 H         1 ARG         0.2615
     55 H15        34.2674   28.3653   51.0202 H         1 ARG         0.2615
     56 H16        26.3334   23.9287   53.5107 H         1 ARG         0.1884
     57 H17        25.3699   24.6961   56.2527 H         1 ARG         0.0800
     58 H18        23.6078   23.8785   54.6969 H         1 ARG         0.0313
     59 H19        23.8412   22.8362   56.1411 H         1 ARG         0.0313
     60 H20        24.7621   21.1014   54.8886 H         1 ARG         0.0301
     61 H21        25.1041   22.1675   53.4839 H         1 ARG         0.0301
     62 H22        23.1249   20.6361   53.1595 H         1 ARG         0.0689
     63 H23        22.7482   22.3829   52.9762 H         1 ARG         0.0689
     64 H24        21.9300   20.6189   55.2622 H         1 ARG         0.2642
     65 H25        20.1679   24.1513   54.2794 H         1 ARG         0.2615
     66 H26        21.6467   23.6471   53.4183 H         1 ARG         0.2615
     67 H27        20.0431   21.2721   56.3240 H         1 ARG         0.2615
     68 H28        19.2614   22.8152   55.8877 H         1 ARG         0.2615
     69 H29        25.7696   22.8323   57.8435 H         1 PHE         0.1885
     70 H30        28.4747   21.7243   57.2576 H         1 PHE         0.0823
     71 H31        27.1083   22.1572   59.9503 H         1 PHE         0.0474
     72 H32        28.1674   23.3646   59.1459 H         1 PHE         0.0474
     73 H33        30.4668   22.0394   58.2366 H         1 PHE         0.0557
     74 H34        28.1292   21.1174   61.6941 H         1 PHE         0.0557
     75 H35        32.4580   21.0349   59.3086 H         1 PHE         0.0599
     76 H36        30.1103   20.1152   62.7785 H         1 PHE         0.0599
     77 H37        32.2786   20.0559   61.5789 H         1 PHE         0.0559
     78 H38        25.9794   20.7407   59.6310 H         1 CYS         0.1884
     79 H39        26.4360   17.9420   58.7401 H         1 CYS         0.0808
     80 H40        25.1948   17.3167   60.7952 H         1 CYS         0.0422
     81 H41        24.9467   19.0572   61.1638 H         1 CYS         0.0422
     82 H42        27.8294   17.6859   61.1898 H         1 CYS         0.1019
     83 H43        23.4180   19.0430   56.7858 H         1 NH2         0.1815
     84 H44        25.0807   19.5206   56.8711 H         1 NH2         0.1815
@<TRIPOS>BOND
     1    1    2 1  
     2    2    3 1  
     3    2    5 1  
     4    3    4 2  
     5    3   12 am 
     6    5    6 1  
     7    6    7 1  
     8    7    8 1  
     9    8    9 ar 
    10    9   10 ar 
    11    9   11 ar 
    12   12   13 1  
    13   13   14 1  
    14   13   16 1  
    15   14   15 2  
    16   14   23 am 
    17   16   17 1  
    18   17   18 1  
    19   18   19 1  
    20   19   20 ar 
    21   20   21 ar 
    22   20   22 ar 
    23   23   24 1  
    24   24   25 1  
    25   24   27 1  
    26   25   26 2  
    27   25   34 am 
    28   27   28 1  
    29   28   29 ar 
    30   28   30 ar 
    31   29   31 ar 
    32   30   32 ar 
    33   31   33 ar 
    34   32   33 ar 
    35   34   35 1  
    36   35   36 1  
    37   35   38 1  
    38   36   37 2  
    39   36   40 am 
    40   38   39 1  
    41    1   41 1  
    42    1   42 1  
    43    1   43 1  
    44    2   44 1  
    45    5   45 1  
    46    5   46 1  
    47    6   47 1  
    48    6   48 1  
    49    7   49 1  
    50    7   50 1  
    51    8   51 1  
    52   10   52 1  
    53   10   53 1  
    54   11   54 1  
    55   11   55 1  
    56   12   56 1  
    57   13   57 1  
    58   16   58 1  
    59   16   59 1  
    60   17   60 1  
    61   17   61 1  
    62   18   62 1  
    63   18   63 1  
    64   19   64 1  
    65   21   65 1  
    66   21   66 1  
    67   22   67 1  
    68   22   68 1  
    69   23   69 1  
    70   24   70 1  
    71   27   71 1  
    72   27   72 1  
    73   29   73 1  
    74   30   74 1  
    75   31   75 1  
    76   32   76 1  
    77   33   77 1  
    78   34   78 1  
    79   35   79 1  
    80   38   80 1  
    81   38   81 1  
    82   39   82 1  
    83   40   83 1  
    84   40   84 1  
@<TRIPOS>SUBSTRUCTURE
     1 ARG         1

