### 
### Created by X-TOOL on Mon Sep 10 21:13:10 2018
### 

@<TRIPOS>MOLECULE
3qw8_ligand
   58    57     1     0     0
SMALL
GAST_HUCK


@<TRIPOS>ATOM
      1 N          27.5540   27.6480   53.0070 N.4       1 CYS         0.2385
      2 CA         27.5650   26.1600   53.1160 C.3       1 CYS         0.0739
      3 C          26.5280   25.7090   54.1300 C.2       1 CYS         0.2275
      4 O          26.3660   26.3350   55.1770 O.2       1 CYS        -0.3907
      5 CB         28.9410   25.6650   53.5570 C.3       1 CYS         0.0511
      6 SG         30.2080   25.7940   52.2910 S.3       1 CYS        -0.1701
      7 N          25.8440   24.6130   53.8130 N.am      1 ARG        -0.2610
      8 CA         24.7990   24.0540   54.6690 C.3       1 ARG         0.1312
      9 C          25.3140   23.4530   55.9740 C.2       1 ARG         0.2037
     10 O          24.6450   23.5280   57.0070 O.2       1 ARG        -0.3944
     11 CB         24.0240   22.9850   53.8950 C.3       1 ARG        -0.0092
     12 CG         22.8980   23.5200   53.0280 C.3       1 ARG        -0.0156
     13 CD         21.6540   23.7800   53.8680 C.3       1 ARG         0.0627
     14 NE         21.3340   22.6250   54.7040 N.pl3     1 ARG        -0.2723
     15 CZ         20.2310   22.5010   55.4400 C.cat     1 ARG         0.2882
     16 NH1        19.3140   23.4570   55.4600 N.pl3     1 ARG        -0.2849
     17 NH2        20.0470   21.4130   56.1730 N.pl3     1 ARG        -0.2849
     18 N          26.4990   22.8550   55.9280 N.am      1 GLY        -0.2664
     19 CA         27.0570   22.2410   57.1210 C.3       1 GLY         0.1201
     20 C          26.5250   20.8360   57.3400 C.2       1 GLY         0.2008
     21 O          25.8950   20.2650   56.4500 O.2       1 GLY        -0.3947
     22 N          26.7780   20.2840   58.5260 N.am      1 CYS        -0.2632
     23 CA         26.3330   18.9340   58.8840 C.3       1 CYS         0.1393
     24 C          24.8310   18.8810   59.1470 C.2       1 CYS         0.2000
     25 O          24.2370   17.7940   58.9640 O.2       1 CYS        -0.3947
     26 CB         27.0760   18.4310   60.1320 C.3       1 CYS         0.0311
     27 SG         28.8510   18.1220   59.9180 S.3       1 CYS        -0.1735
     28 N          24.1790   19.9700   59.6060 N.am      1 NH2        -0.2989
     29 H1         28.2440   27.9406   52.3329 H         1 CYS         0.2015
     30 H2         27.7690   28.0523   53.9050 H         1 CYS         0.2015
     31 H3         26.6417   27.9564   52.7094 H         1 CYS         0.2015
     32 H4         27.3242   25.7277   52.1336 H         1 CYS         0.1106
     33 H5         28.8507   24.6082   53.8486 H         1 CYS         0.0455
     34 H6         29.2596   26.2593   54.4261 H         1 CYS         0.0455
     35 H7         31.0823   25.4498   52.6560 H         1 CYS         0.1020
     36 H8         26.0539   24.1511   52.9512 H         1 ARG         0.1884
     37 H9         24.1084   24.8703   54.9272 H         1 ARG         0.0800
     38 H10        23.5919   22.2815   54.6219 H         1 ARG         0.0313
     39 H11        24.7329   22.4513   53.2449 H         1 ARG         0.0313
     40 H12        22.6600   22.7819   52.2479 H         1 ARG         0.0301
     41 H13        23.2196   24.4606   52.5570 H         1 ARG         0.0301
     42 H14        20.8052   23.9858   53.1992 H         1 ARG         0.0689
     43 H15        21.8321   24.6526   54.5136 H         1 ARG         0.0689
     44 H16        22.0115   21.8495   54.7256 H         1 ARG         0.2642
     45 H17        18.4664   23.3457   56.0345 H         1 ARG         0.2615
     46 H18        19.4487   24.3116   54.9010 H         1 ARG         0.2615
     47 H19        20.7522   20.6623   56.1665 H         1 ARG         0.2615
     48 H20        19.1987   21.3178   56.7495 H         1 ARG         0.2615
     49 H21        27.0095   22.8272   55.0686 H         1 GLY         0.1881
     50 H22        26.7971   22.8590   57.9931 H         1 GLY         0.0763
     51 H23        28.1511   22.1942   57.0177 H         1 GLY         0.0763
     52 H24        27.2932   20.8130   59.2003 H         1 CYS         0.1884
     53 H25        26.5630   18.2637   58.0427 H         1 CYS         0.0808
     54 H26        26.6047   17.4892   60.4496 H         1 CYS         0.0422
     55 H27        26.9572   19.1856   60.9235 H         1 CYS         0.0422
     56 H28        29.2417   17.7976   60.7887 H         1 CYS         0.1019
     57 H29        23.1945   19.9285   59.7763 H         1 NH2         0.1815
     58 H30        24.6805   20.8184   59.7758 H         1 NH2         0.1815
@<TRIPOS>BOND
     1    1    2 1  
     2    2    3 1  
     3    2    5 1  
     4    3    4 2  
     5    3    7 am 
     6    5    6 1  
     7    7    8 1  
     8    8    9 1  
     9    8   11 1  
    10    9   10 2  
    11    9   18 am 
    12   11   12 1  
    13   12   13 1  
    14   13   14 1  
    15   14   15 ar 
    16   15   16 ar 
    17   15   17 ar 
    18   18   19 1  
    19   19   20 1  
    20   20   21 2  
    21   20   22 am 
    22   22   23 1  
    23   23   24 1  
    24   23   26 1  
    25   24   25 2  
    26   24   28 am 
    27   26   27 1  
    28    1   29 1  
    29    1   30 1  
    30    1   31 1  
    31    2   32 1  
    32    5   33 1  
    33    5   34 1  
    34    6   35 1  
    35    7   36 1  
    36    8   37 1  
    37   11   38 1  
    38   11   39 1  
    39   12   40 1  
    40   12   41 1  
    41   13   42 1  
    42   13   43 1  
    43   14   44 1  
    44   16   45 1  
    45   16   46 1  
    46   17   47 1  
    47   17   48 1  
    48   18   49 1  
    49   19   50 1  
    50   19   51 1  
    51   22   52 1  
    52   23   53 1  
    53   26   54 1  
    54   26   55 1  
    55   27   56 1  
    56   28   57 1  
    57   28   58 1  
@<TRIPOS>SUBSTRUCTURE
     1 CYS         1

