### 
### Created by X-TOOL on Mon Sep 10 21:13:08 2018
### 

@<TRIPOS>MOLECULE
3qwc_ligand
   55    57     1     0     0
SMALL
GAST_HUCK


@<TRIPOS>ATOM
      1 N22        16.3970  -15.3470   23.1690 N.4       1 98P         0.2394
      2 C3         17.6100  -14.5520   23.2980 C.3       1 98P         0.0746
      3 C4         17.3580  -13.1950   22.6970 C.2       1 98P         0.2313
      4 O26        16.3610  -12.5520   23.0190 O.2       1 98P        -0.3903
      5 C2         18.0050  -14.4560   24.7780 C.3       1 98P         0.0416
      6 C1         19.4320  -13.9630   24.9000 C.ar      1 98P        -0.0353
      7 C5         20.4820  -14.7060   24.3680 C.ar      1 98P        -0.0600
      8 C9         19.6990  -12.7720   25.5610 C.ar      1 98P        -0.0600
      9 C6         21.7910  -14.2420   24.4870 C.ar      1 98P        -0.0686
     10 C8         21.0030  -12.3100   25.6770 C.ar      1 98P        -0.0686
     11 C7         22.0540  -13.0480   25.1400 C.ar      1 98P        -0.0687
     12 N23        18.2460  -12.7420   21.8050 N.am      1 98P        -0.2470
     13 C10        18.0340  -11.4370   21.1770 C.3       1 98P         0.1343
     14 C11        16.7110  -11.4310   20.4770 C.2       1 98P         0.2083
     15 O27        16.3900  -12.3850   19.7730 O.2       1 98P        -0.3940
     16 C14        19.1650  -11.2950   20.1670 C.3       1 98P        -0.0104
     17 C15        20.2070  -12.3360   20.5570 C.3       1 98P        -0.0281
     18 C16        19.4590  -13.4130   21.3270 C.3       1 98P         0.0371
     19 C12        14.5970  -10.2330   20.0690 C.3       1 98P         0.1313
     20 C13        13.6110  -11.0090   20.9210 C.ar      1 98P         0.1435
     21 C17        13.4330  -12.3730   20.7490 C.ar      1 98P         0.1049
     22 C18        12.3950  -14.4910   21.3050 C.3       1 98P         0.0177
     23 C19        11.8350  -12.4310   22.4530 C.ar      1 98P         0.0693
     24 C20        11.9720  -11.0690   22.6730 C.ar      1 98P         0.0544
     25 C21        12.8680  -10.3690   21.8820 C.ar      1 98P         0.1655
     26 N24        15.9190  -10.3750   20.6700 N.am      1 98P        -0.2468
     27 N25        12.5620  -13.0480   21.5090 N.ar      1 98P        -0.2963
     28 CL28       13.0960   -8.6210   22.1220 Cl        1 98P        -0.0062
     29 H1         16.5498  -16.2602   23.5675 H         1 98P         0.2017
     30 H2         16.1592  -15.4414   22.1940 H         1 98P         0.2017
     31 H3         15.6422  -14.8899   23.6562 H         1 98P         0.2017
     32 H4         18.4266  -15.0402   22.7459 H         1 98P         0.1123
     33 H5         17.9214  -15.4494   25.2430 H         1 98P         0.0507
     34 H6         17.3314  -13.7534   25.2904 H         1 98P         0.0507
     35 H7         20.2821  -15.6437   23.8621 H         1 98P         0.0557
     36 H8         18.8844  -12.1992   25.9892 H         1 98P         0.0557
     37 H9         22.6075  -14.8179   24.0667 H         1 98P         0.0599
     38 H10        21.2028  -11.3740   26.1860 H         1 98P         0.0599
     39 H11        23.0733  -12.6906   25.2321 H         1 98P         0.0559
     40 H12        18.0698  -10.6288   21.9224 H         1 98P         0.0802
     41 H13        19.5969  -10.2845   20.2159 H         1 98P         0.0313
     42 H14        18.7951  -11.4868   19.1490 H         1 98P         0.0313
     43 H15        20.9819  -11.8814   21.1917 H         1 98P         0.0287
     44 H16        20.6741  -12.7642   19.6579 H         1 98P         0.0287
     45 H17        19.2038  -14.2564   20.6685 H         1 98P         0.0524
     46 H18        20.0615  -13.7770   22.1722 H         1 98P         0.0524
     47 H19        14.3116   -9.1711   20.0408 H         1 98P         0.1090
     48 H20        14.6062  -10.6375   19.0461 H         1 98P         0.1090
     49 H21        14.0045  -12.8979   19.9920 H         1 98P         0.1322
     50 H22        11.6451  -14.8768   22.0113 H         1 98P         0.0432
     51 H23        13.3555  -14.9991   21.4762 H         1 98P         0.0432
     52 H24        12.0591  -14.6792   20.2746 H         1 98P         0.0432
     53 H25        11.1336  -13.0031   23.0495 H         1 98P         0.1451
     54 H26        11.3951  -10.5669   23.4412 H         1 98P         0.0967
     55 H27        16.2502   -9.6388   21.2602 H         1 98P         0.1947
@<TRIPOS>BOND
     1    2    1 1  
     2    3    2 1  
     3    2    5 1  
     4    3    4 2  
     5   12    3 am 
     6    5    6 1  
     7    6    7 ar 
     8    6    8 ar 
     9    7    9 ar 
    10    8   10 ar 
    11    9   11 ar 
    12   10   11 ar 
    13   13   12 1  
    14   12   18 1  
    15   14   13 1  
    16   13   16 1  
    17   14   15 2  
    18   26   14 am 
    19   16   17 1  
    20   17   18 1  
    21   20   19 1  
    22   19   26 1  
    23   21   20 ar 
    24   20   25 ar 
    25   27   21 ar 
    26   27   22 1  
    27   23   24 ar 
    28   23   27 ar 
    29   24   25 ar 
    30   25   28 1  
    31    1   29 1  
    32    1   30 1  
    33    1   31 1  
    34    2   32 1  
    35    5   33 1  
    36    5   34 1  
    37    7   35 1  
    38    8   36 1  
    39    9   37 1  
    40   10   38 1  
    41   11   39 1  
    42   13   40 1  
    43   16   41 1  
    44   16   42 1  
    45   17   43 1  
    46   17   44 1  
    47   18   45 1  
    48   18   46 1  
    49   19   47 1  
    50   19   48 1  
    51   21   49 1  
    52   22   50 1  
    53   22   51 1  
    54   22   52 1  
    55   23   53 1  
    56   24   54 1  
    57   26   55 1  
@<TRIPOS>SUBSTRUCTURE
     1 98P         1

