### 
### Created by X-TOOL on Mon Sep 10 21:13:08 2018
### 

@<TRIPOS>MOLECULE
3qx5_ligand
   55    57     1     0     0
SMALL
GAST_HUCK


@<TRIPOS>ATOM
      1 N10        16.4240  -15.5120   23.3060 N.4       1 02P         0.2394
      2 C8         17.6850  -14.7880   23.3080 C.3       1 02P         0.0746
      3 C9         17.4080  -13.4370   22.7140 C.2       1 02P         0.2313
      4 O12        16.4780  -12.7610   23.1340 O.2       1 02P        -0.3903
      5 C7         18.1720  -14.6910   24.7490 C.3       1 02P         0.0416
      6 C4         19.5740  -14.1400   24.8310 C.ar      1 02P        -0.0353
      7 C3         19.7810  -12.9810   25.5680 C.ar      1 02P        -0.0600
      8 C5         20.6460  -14.7660   24.1940 C.ar      1 02P        -0.0600
      9 C26        21.0550  -12.4410   25.6690 C.ar      1 02P        -0.0686
     10 C6         21.9240  -14.2220   24.2990 C.ar      1 02P        -0.0686
     11 C1         22.1300  -13.0620   25.0390 C.ar      1 02P        -0.0687
     12 N11        18.1760  -13.0170   21.7070 N.am      1 02P        -0.2470
     13 C13        17.8850  -11.7110   21.1120 C.3       1 02P         0.1343
     14 C17        16.4510  -11.6410   20.6420 C.2       1 02P         0.2079
     15 O28        15.9570  -12.5680   20.0060 O.2       1 02P        -0.3940
     16 C15        18.8570  -11.6130   19.9430 C.3       1 02P        -0.0104
     17 C16        19.9600  -12.6050   20.2520 C.3       1 02P        -0.0281
     18 C14        19.3160  -13.6980   21.0900 C.3       1 02P         0.0371
     19 CL2        12.2700   -7.5340   24.5420 Cl        1 02P        -0.0320
     20 N18        15.7480  -10.5500   20.9450 N.am      1 02P        -0.2486
     21 C19        14.3550  -10.3360   20.5670 C.3       1 02P         0.1320
     22 C20        13.4280  -10.2790   21.7690 C.ar      1 02P         0.1468
     23 N21        12.7200  -11.3620   22.1460 N.ar      1 02P        -0.2811
     24 C22        13.3000   -9.0870   22.4730 C.ar      1 02P         0.0815
     25 C23        12.4470   -9.0340   23.5760 C.ar      1 02P         0.1460
     26 C24        11.7230  -10.1610   23.9420 C.ar      1 02P         0.0710
     27 C25        11.8890  -11.3200   23.2010 C.ar      1 02P         0.0856
     28 C27        12.8480  -12.6260   21.4090 C.3       1 02P         0.0173
     29 H1         16.5630  -16.4300   23.6984 H         1 02P         0.2017
     30 H2         16.0877  -15.5986   22.3597 H         1 02P         0.2017
     31 H3         15.7471  -15.0094   23.8585 H         1 02P         0.2017
     32 H4         18.4355  -15.3153   22.7008 H         1 02P         0.1123
     33 H5         18.1573  -15.6950   25.1981 H         1 02P         0.0507
     34 H6         17.4959  -14.0286   25.3095 H         1 02P         0.0507
     35 H7         18.9469  -12.4983   26.0644 H         1 02P         0.0557
     36 H8         20.4850  -15.6714   23.6201 H         1 02P         0.0557
     37 H9         21.2138  -11.5333   26.2399 H         1 02P         0.0599
     38 H10        22.7594  -14.7032   23.8034 H         1 02P         0.0599
     39 H11        23.1258  -12.6424   25.1249 H         1 02P         0.0559
     40 H12        18.0688  -10.9041   21.8366 H         1 02P         0.0802
     41 H13        19.2657  -10.5946   19.8667 H         1 02P         0.0313
     42 H14        18.3541  -11.8778   19.0012 H         1 02P         0.0313
     43 H15        20.7673  -12.1157   20.8167 H         1 02P         0.0287
     44 H16        20.3670  -13.0266   19.3211 H         1 02P         0.0287
     45 H17        18.9816  -14.5341   20.4583 H         1 02P         0.0524
     46 H18        20.0133  -14.0718   21.8542 H         1 02P         0.0524
     47 H19        16.2059   -9.8298   21.4663 H         1 02P         0.1941
     48 H20        14.0358  -11.1619   19.9143 H         1 02P         0.1059
     49 H21        14.2803   -9.3853   20.0187 H         1 02P         0.1059
     50 H22        13.8568   -8.2083   22.1683 H         1 02P         0.1234
     51 H23        11.0444  -10.1347   24.7869 H         1 02P         0.1475
     52 H24        11.3372  -12.2110   23.4781 H         1 02P         0.1330
     53 H25        13.5600  -12.4969   20.5805 H         1 02P         0.0420
     54 H26        11.8664  -12.9170   21.0068 H         1 02P         0.0420
     55 H27        13.2135  -13.4108   22.0876 H         1 02P         0.0420
@<TRIPOS>BOND
     1    2    1 1  
     2    3    2 1  
     3    2    5 1  
     4    3    4 2  
     5   12    3 am 
     6    5    6 1  
     7    6    7 ar 
     8    6    8 ar 
     9    7    9 ar 
    10    8   10 ar 
    11    9   11 ar 
    12   10   11 ar 
    13   13   12 1  
    14   12   18 1  
    15   14   13 1  
    16   13   16 1  
    17   14   15 2  
    18   20   14 am 
    19   16   17 1  
    20   17   18 1  
    21   25   19 1  
    22   21   20 1  
    23   22   21 1  
    24   22   23 ar 
    25   24   22 ar 
    26   23   27 ar 
    27   23   28 1  
    28   24   25 ar 
    29   25   26 ar 
    30   26   27 ar 
    31    1   29 1  
    32    1   30 1  
    33    1   31 1  
    34    2   32 1  
    35    5   33 1  
    36    5   34 1  
    37    7   35 1  
    38    8   36 1  
    39    9   37 1  
    40   10   38 1  
    41   11   39 1  
    42   13   40 1  
    43   16   41 1  
    44   16   42 1  
    45   17   43 1  
    46   17   44 1  
    47   18   45 1  
    48   18   46 1  
    49   20   47 1  
    50   21   48 1  
    51   21   49 1  
    52   24   50 1  
    53   26   51 1  
    54   27   52 1  
    55   28   53 1  
    56   28   54 1  
    57   28   55 1  
@<TRIPOS>SUBSTRUCTURE
     1 02P         1

