### 
### Created by X-TOOL on Mon Sep 10 21:13:06 2018
### 

@<TRIPOS>MOLECULE
3qxm_ligand
   36    37     1     0     0
SMALL
GAST_HUCK


@<TRIPOS>ATOM
      1 O           4.0590  -12.0810   24.1730 O.co2     1 NDZ        -0.5643
      2 C           3.8900  -11.4610   25.2550 C.2       1 NDZ         0.0844
      3 OXT         4.5110  -11.7730   26.2800 O.co2     1 NDZ        -0.5643
      4 CA          2.8650  -10.3450   25.3810 C.3       1 NDZ         0.0305
      5 N           1.9520  -10.2980   24.2240 N.4       1 NDZ         0.2327
      6 CB          2.0630  -10.5450   26.6820 C.3       1 NDZ         0.0363
      7 CAJ         1.2870   -9.2440   27.0790 C.3       1 NDZ         0.1230
      8 CAD         2.2150   -8.1010   27.2120 C.2       1 NDZ         0.0769
      9 OAA         1.9770   -6.9820   26.6630 O.co2     1 NDZ        -0.5451
     10 OAE         3.2500   -8.2950   27.8880 O.co2     1 NDZ        -0.5451
     11 CAR         0.5810   -9.4310   28.4270 C.3       1 NDZ         0.0102
     12 OAI         0.2610   -8.9520   26.0980 O.3       1 NDZ        -0.3604
     13 CAH        -1.0220   -9.0320   26.6360 C.3       1 NDZ         0.1129
     14 CAQ        -0.8330   -8.8750   28.1530 C.3       1 NDZ         0.0894
     15 OAP        -0.7530   -7.4480   28.4480 O.3       1 NDZ        -0.3713
     16 CAO        -1.6920   -6.5620   27.8860 C.3       1 NDZ         0.0766
     17 CAF        -1.7130   -6.5460   26.3430 C.3       1 NDZ         0.1068
     18 OAB        -0.3840   -6.1290   25.9420 O.3       1 NDZ        -0.3869
     19 CAG        -1.9900   -8.0250   25.9610 C.3       1 NDZ         0.1115
     20 OAC        -1.8670   -8.1200   24.5330 O.3       1 NDZ        -0.3865
     21 H           3.3970   -9.3940   25.4078 H         1 NDZ         0.1024
     22 H           2.4938  -10.1655   23.3700 H         1 NDZ         0.2010
     23 H           1.4329  -11.1741   24.1662 H         1 NDZ         0.2010
     24 H           1.3000   -9.5220   24.3382 H         1 NDZ         0.2010
     25 H           2.7590  -10.7917   27.4838 H         1 NDZ         0.0359
     26 H           1.3400  -11.3452   26.5239 H         1 NDZ         0.0359
     27 H           1.0869   -8.9188   29.2454 H         1 NDZ         0.0311
     28 H           0.5714  -10.4687   28.7604 H         1 NDZ         0.0311
     29 H          -1.5160   -9.9838   26.4407 H         1 NDZ         0.0647
     30 H          -1.6272   -9.3580   28.7222 H         1 NDZ         0.0622
     31 H          -1.4184   -5.5584   28.2117 H         1 NDZ         0.0586
     32 H          -2.6777   -6.8910   28.2151 H         1 NDZ         0.0586
     33 H          -2.4464   -5.8874   25.8777 H         1 NDZ         0.0643
     34 H           0.2616   -6.7551   26.2779 H         1 NDZ         0.2100
     35 H          -2.9868   -8.2915   26.3123 H         1 NDZ         0.0647
     36 H          -0.9801   -7.8619   24.2715 H         1 NDZ         0.2100
@<TRIPOS>BOND
     1    1    2 ar 
     2    2    3 ar 
     3    2    4 1  
     4    4    5 1  
     5    4    6 1  
     6    6    7 1  
     7    7    8 1  
     8    7   11 1  
     9    7   12 1  
    10    8    9 ar 
    11    8   10 ar 
    12   11   14 1  
    13   12   13 1  
    14   13   14 1  
    15   13   19 1  
    16   14   15 1  
    17   15   16 1  
    18   16   17 1  
    19   17   18 1  
    20   17   19 1  
    21   19   20 1  
    22    4   21 1  
    23    5   22 1  
    24    5   23 1  
    25    5   24 1  
    26    6   25 1  
    27    6   26 1  
    28   11   27 1  
    29   11   28 1  
    30   13   29 1  
    31   14   30 1  
    32   16   31 1  
    33   16   32 1  
    34   17   33 1  
    35   18   34 1  
    36   19   35 1  
    37   20   36 1  
@<TRIPOS>SUBSTRUCTURE
     1 NDZ         1

