### 
### Created by X-TOOL on Mon Sep 10 21:13:11 2018
### 

@<TRIPOS>MOLECULE
3qxp_ligand
   41    43     1     0     0
SMALL
GAST_HUCK


@<TRIPOS>ATOM
      1 N01       -65.6110   82.3360   86.6820 N.2       1 X64        -0.0972
      2 N02       -64.3620   82.9200   84.8760 N.pl3     1 X64        -0.1630
      3 N03       -67.0930   81.4520   88.2430 N.pl3     1 X64        -0.2446
      4 N04       -61.5230   81.0200   79.0780 N.am      1 X64        -0.2601
      5 N05       -70.8140   79.7350   84.8620 N.2       1 X64        -0.2126
      6 C06       -67.1770   80.7140   86.0170 C.2       1 X64         0.3462
      7 C07       -66.6550   81.4990   87.0370 C.2       1 X64         0.3332
      8 C08       -65.3280   82.2110   85.4020 C.2       1 X64         0.3543
      9 C09       -63.5890   82.6490   83.8470 C.ar      1 X64         0.1300
     10 C10       -68.2060   79.7820   86.1420 C.2       1 X64         0.3246
     11 C11       -68.5410   78.9520   85.0580 C.ar      1 X64         0.1007
     12 C12       -69.8670   78.9620   84.4450 C.ar      1 X64         0.1046
     13 C13       -70.1340   78.0870   83.3390 C.ar      1 X64        -0.0228
     14 C14       -69.1310   77.2180   82.8400 C.ar      1 X64        -0.0498
     15 C15       -67.8350   77.2040   83.4390 C.ar      1 X64        -0.0510
     16 C16       -67.5430   78.0570   84.5330 C.ar      1 X64        -0.0333
     17 C17       -63.7050   81.4550   83.0520 C.ar      1 X64        -0.0054
     18 C18       -62.8280   81.2250   81.9640 C.ar      1 X64        -0.0232
     19 C19       -61.8290   82.1720   81.6510 C.ar      1 X64         0.1163
     20 C20       -61.7030   83.3650   82.4240 C.ar      1 X64        -0.0232
     21 C21       -62.5780   83.5980   83.5110 C.ar      1 X64        -0.0054
     22 O22       -68.7700   79.6170   87.2320 O.2       1 X64        -0.2724
     23 O23       -59.6680   81.0040   80.8160 O.2       1 X64        -0.1495
     24 O24       -60.1690   83.1090   79.7940 O.2       1 X64        -0.1495
     25 O25       -72.0370   79.2720   84.9330 O.2       1 X64        -0.4873
     26 O26       -70.5850   80.9830   85.1900 O.2       1 X64        -0.4873
     27 S27       -66.3220   81.0830   84.5530 S.3       1 X64         0.2459
     28 S28       -60.7120   81.8530   80.2990 S.o2      1 X64         0.0695
     29 H1        -64.1802   83.8236   85.3357 H         1 X64         0.2872
     30 H2        -67.8710   80.8215   88.4842 H         1 X64         0.2269
     31 H3        -66.6664   82.0448   88.9693 H         1 X64         0.2269
     32 H4        -61.0385   80.7612   78.2424 H         1 X64         0.1636
     33 H5        -62.4885   80.7847   79.1894 H         1 X64         0.1636
     34 H6        -71.1156   78.0906   82.8791 H         1 X64         0.0702
     35 H7        -69.3482   76.5639   82.0033 H         1 X64         0.0667
     36 H8        -67.0707   76.5379   83.0554 H         1 X64         0.0671
     37 H9        -66.5557   78.0351   84.9799 H         1 X64         0.0684
     38 H10       -64.4707   80.7249   83.2881 H         1 X64         0.0694
     39 H11       -62.9238   80.3221   81.3718 H         1 X64         0.0666
     40 H12       -60.9374   84.0921   82.1785 H         1 X64         0.0666
     41 H13       -62.4794   84.5064   84.0943 H         1 X64         0.0694
@<TRIPOS>BOND
     1    1    7 1  
     2    8    1 2  
     3    2    8 1  
     4    9    2 1  
     5    7    3 1  
     6   28    4 am 
     7   12    5 1  
     8    5   25 2  
     9    5   26 2  
    10    6    7 2  
    11    6   10 1  
    12   27    6 1  
    13    8   27 1  
    14   17    9 ar 
    15    9   21 ar 
    16   10   11 1  
    17   10   22 2  
    18   11   12 ar 
    19   11   16 ar 
    20   12   13 ar 
    21   13   14 ar 
    22   15   14 ar 
    23   16   15 ar 
    24   18   17 ar 
    25   19   18 ar 
    26   19   20 ar 
    27   19   28 1  
    28   20   21 ar 
    29   28   23 2  
    30   28   24 2  
    31    2   29 1  
    32    3   30 1  
    33    3   31 1  
    34    4   32 1  
    35    4   33 1  
    36   13   34 1  
    37   14   35 1  
    38   15   36 1  
    39   16   37 1  
    40   17   38 1  
    41   18   39 1  
    42   20   40 1  
    43   21   41 1  
@<TRIPOS>SUBSTRUCTURE
     1 X64         1

