### 
### Created by X-TOOL on Mon Sep 10 21:13:06 2018
### 

@<TRIPOS>MOLECULE
3qxt_ligand
   53    55     1     0     0
SMALL
GAST_HUCK


@<TRIPOS>ATOM
      1 N1         31.2490  -41.0080   -5.6500 N.ar      1 MTX        -0.2668
      2 C2         29.9400  -41.0300   -6.0210 C.ar      1 MTX         0.1670
      3 NA2        29.0880  -41.0690   -5.0580 N.pl3     1 MTX        -0.3051
      4 N3         29.5870  -41.0850   -7.3480 N.ar      1 MTX        -0.2298
      5 C4         30.5480  -41.0390   -8.2760 C.ar      1 MTX         0.1540
      6 NA4        30.1470  -41.0230   -9.6140 N.pl3     1 MTX        -0.3052
      7 C4A        31.8930  -41.0710   -7.9590 C.ar      1 MTX         0.1326
      8 N5         32.8760  -41.1230   -8.9680 N.ar      1 MTX        -0.2616
      9 C6         34.1960  -41.2030   -8.5680 C.ar      1 MTX         0.0826
     10 C7         34.5030  -41.1460   -7.1800 C.ar      1 MTX         0.0478
     11 N8         33.5360  -41.0230   -6.1650 N.ar      1 MTX        -0.2649
     12 C8A        32.2290  -41.0310   -6.6080 C.ar      1 MTX         0.1183
     13 C9         35.1910  -41.3710   -9.6690 C.3       1 MTX         0.0825
     14 N10        36.4790  -40.9060   -9.3520 N.pl3     1 MTX        -0.2945
     15 CM         36.5650  -39.4700   -9.2840 C.3       1 MTX         0.0191
     16 C11        39.9150  -43.2690   -8.9880 C.ar      1 MTX         0.0362
     17 C12        38.6770  -43.8960   -9.1290 C.ar      1 MTX        -0.0535
     18 C13        37.4870  -43.0790   -9.2530 C.ar      1 MTX        -0.0379
     19 C14        37.6680  -41.7150   -9.2070 C.ar      1 MTX         0.0476
     20 C15        38.8870  -41.0740   -9.1590 C.ar      1 MTX        -0.0379
     21 C16        40.0700  -41.8740   -9.0010 C.ar      1 MTX        -0.0535
     22 C          41.1870  -44.1140   -8.8370 C.2       1 MTX         0.1968
     23 O          42.3360  -43.4150   -9.0860 O.2       1 MTX        -0.3908
     24 N          41.1010  -45.3490   -8.4100 N.am      1 MTX        -0.2725
     25 CA         42.2510  -46.2710   -8.3730 C.3       1 MTX         0.0951
     26 CT         41.8480  -47.5650   -8.9870 C.2       1 MTX         0.0601
     27 O1         42.7520  -48.3190   -9.3680 O.co2     1 MTX        -0.5666
     28 O2         40.6430  -47.9000   -9.1860 O.co2     1 MTX        -0.5666
     29 CB         42.7700  -46.6010   -6.9710 C.3       1 MTX        -0.0064
     30 CG         43.2080  -45.3770   -6.2520 C.3       1 MTX         0.0038
     31 CD         41.9370  -44.8760   -5.5320 C.2       1 MTX         0.0350
     32 OE1        41.1480  -45.6700   -4.8640 O.co2     1 MTX        -0.5690
     33 OE2        41.7090  -43.6450   -5.6120 O.co2     1 MTX        -0.5690
     34 H1         29.4122  -41.0239   -4.0814 H         1 MTX         0.1844
     35 H2         28.0816  -41.1453   -5.2635 H         1 MTX         0.1844
     36 H3         30.8533  -40.9878  -10.3629 H         1 MTX         0.1886
     37 H4         29.1451  -41.0464   -9.8517 H         1 MTX         0.1886
     38 H5         35.5451  -41.2006   -6.8864 H         1 MTX         0.0952
     39 H6         34.8303  -40.8175  -10.5485 H         1 MTX         0.0719
     40 H7         35.2601  -42.4415   -9.9124 H         1 MTX         0.0719
     41 H8         37.5948  -39.1759   -9.0331 H         1 MTX         0.0482
     42 H9         35.8784  -39.0978   -8.5094 H         1 MTX         0.0482
     43 H10        36.2876  -39.0395  -10.2575 H         1 MTX         0.0482
     44 H11        38.6064  -44.9776   -9.1455 H         1 MTX         0.0636
     45 H12        36.5041  -43.5193   -9.3758 H         1 MTX         0.0530
     46 H13        38.9516  -39.9948   -9.2383 H         1 MTX         0.0530
     47 H14        41.0471  -41.4166   -8.8956 H         1 MTX         0.0636
     48 H15        40.2129  -45.6827   -8.0939 H         1 MTX         0.1864
     49 H16        43.0698  -45.8208   -8.9533 H         1 MTX         0.0726
     50 H17        43.6236  -47.2892   -7.0584 H         1 MTX         0.0323
     51 H18        41.9662  -47.0848   -6.3967 H         1 MTX         0.0323
     52 H19        43.5770  -44.6209   -6.9606 H         1 MTX         0.0432
     53 H20        43.9984  -45.6150   -5.5250 H         1 MTX         0.0432
@<TRIPOS>BOND
     1    1    2 ar 
     2   12    1 ar 
     3    2    3 1  
     4    4    2 ar 
     5    5    4 ar 
     6    5    6 1  
     7    7    5 ar 
     8    8    7 ar 
     9    7   12 ar 
    10    9    8 ar 
    11    9   10 ar 
    12   13    9 1  
    13   10   11 ar 
    14   11   12 ar 
    15   14   13 1  
    16   14   15 1  
    17   19   14 1  
    18   17   16 ar 
    19   16   21 ar 
    20   16   22 1  
    21   18   17 ar 
    22   18   19 ar 
    23   19   20 ar 
    24   20   21 ar 
    25   22   23 2  
    26   22   24 am 
    27   24   25 1  
    28   25   26 1  
    29   25   29 1  
    30   26   27 ar 
    31   26   28 ar 
    32   29   30 1  
    33   30   31 1  
    34   31   32 ar 
    35   31   33 ar 
    36    3   34 1  
    37    3   35 1  
    38    6   36 1  
    39    6   37 1  
    40   10   38 1  
    41   13   39 1  
    42   13   40 1  
    43   15   41 1  
    44   15   42 1  
    45   15   43 1  
    46   17   44 1  
    47   18   45 1  
    48   20   46 1  
    49   21   47 1  
    50   24   48 1  
    51   25   49 1  
    52   29   50 1  
    53   29   51 1  
    54   30   52 1  
    55   30   53 1  
@<TRIPOS>SUBSTRUCTURE
     1 MTX         1

