### 
### Created by X-TOOL on Mon Sep 10 21:13:07 2018
### 

@<TRIPOS>MOLECULE
3qxv_ligand
   53    55     1     0     0
SMALL
GAST_HUCK


@<TRIPOS>ATOM
      1 N1        -15.6020   15.5650  -27.8170 N.ar      1 MTX        -0.2668
      2 C2        -15.5690   16.7660  -27.1480 C.ar      1 MTX         0.1670
      3 NA2       -14.4450   17.1250  -26.5150 N.pl3     1 MTX        -0.3051
      4 N3        -16.6700   17.6050  -27.1880 N.ar      1 MTX        -0.2298
      5 C4        -17.8300   17.2030  -27.8580 C.ar      1 MTX         0.1540
      6 NA4       -18.8800   18.0280  -27.8940 N.pl3     1 MTX        -0.3052
      7 C4A       -17.8650   15.9670  -28.5200 C.ar      1 MTX         0.1326
      8 N5        -18.9970   15.5370  -29.1990 N.ar      1 MTX        -0.2616
      9 C6        -19.0150   14.3040  -29.8070 C.ar      1 MTX         0.0826
     10 C7        -17.8700   13.5030  -29.7700 C.ar      1 MTX         0.0478
     11 N8        -16.7380   13.9310  -29.1010 N.ar      1 MTX        -0.2649
     12 C8A       -16.7440   15.1490  -28.4670 C.ar      1 MTX         0.1183
     13 C9        -20.2580   13.8380  -30.5450 C.3       1 MTX         0.0825
     14 N10       -19.9840   12.6620  -31.3510 N.pl3     1 MTX        -0.2945
     15 CM        -19.4140   12.8830  -32.6860 C.3       1 MTX         0.0191
     16 C11       -22.6070    9.3810  -31.2990 C.ar      1 MTX         0.0362
     17 C12       -21.7120    9.5530  -32.3510 C.ar      1 MTX        -0.0535
     18 C13       -20.8540   10.6420  -32.3520 C.ar      1 MTX        -0.0379
     19 C14       -20.8760   11.5550  -31.2860 C.ar      1 MTX         0.0476
     20 C15       -21.7790   11.3650  -30.2290 C.ar      1 MTX        -0.0379
     21 C16       -22.4450   10.1400  -30.1380 C.ar      1 MTX        -0.0535
     22 C         -23.5350    8.1990  -31.3430 C.2       1 MTX         0.1968
     23 O         -24.3890    7.9850  -32.4520 O.2       1 MTX        -0.3908
     24 N         -23.5030    7.3440  -30.3470 N.am      1 MTX        -0.2725
     25 CA        -22.8890    6.0590  -30.5930 C.3       1 MTX         0.0951
     26 CT        -22.2780    5.5640  -29.3200 C.2       1 MTX         0.0601
     27 O1        -21.5410    6.3200  -28.6410 O.co2     1 MTX        -0.5666
     28 O2        -22.5350    4.4010  -28.9330 O.co2     1 MTX        -0.5666
     29 CB        -21.9280    6.1180  -31.7980 C.3       1 MTX        -0.0064
     30 CG        -20.4240    6.0680  -31.5290 C.3       1 MTX         0.0038
     31 CD        -19.9930    4.7450  -30.9260 C.2       1 MTX         0.0350
     32 OE1       -19.3270    4.7340  -29.8630 O.co2     1 MTX        -0.5690
     33 OE2       -20.3010    3.6470  -31.4540 O.co2     1 MTX        -0.5690
     34 H1        -13.6374   16.4859  -26.4972 H         1 MTX         0.1844
     35 H2        -14.3880   18.0402  -26.0459 H         1 MTX         0.1844
     36 H3        -19.7407   17.7450  -28.3838 H         1 MTX         0.1886
     37 H4        -18.8289   18.9471  -27.4319 H         1 MTX         0.1886
     38 H5        -17.8695   12.5405  -30.2687 H         1 MTX         0.0952
     39 H6        -20.6098   14.6478  -31.2011 H         1 MTX         0.0719
     40 H7        -21.0403   13.5948  -29.8110 H         1 MTX         0.0719
     41 H8        -19.2581   11.9142  -33.1831 H         1 MTX         0.0482
     42 H9        -18.4508   13.4058  -32.5915 H         1 MTX         0.0482
     43 H10       -20.1061   13.4945  -33.2836 H         1 MTX         0.0482
     44 H11       -21.6859    8.8386  -33.1659 H         1 MTX         0.0636
     45 H12       -20.1657   10.7885  -33.1765 H         1 MTX         0.0530
     46 H13       -21.9555   12.1488  -29.5013 H         1 MTX         0.0530
     47 H14       -22.8275    9.7866  -29.1872 H         1 MTX         0.0636
     48 H15       -23.8884    7.5730  -29.4531 H         1 MTX         0.1864
     49 H16       -23.6871    5.3520  -30.8633 H         1 MTX         0.0726
     50 H17       -22.1322    7.0579  -32.3317 H         1 MTX         0.0323
     51 H18       -22.1706    5.2660  -32.4500 H         1 MTX         0.0323
     52 H19       -20.1619    6.8772  -30.8315 H         1 MTX         0.0432
     53 H20       -19.8892    6.2151  -32.4789 H         1 MTX         0.0432
@<TRIPOS>BOND
     1    1    2 ar 
     2   12    1 ar 
     3    2    3 1  
     4    4    2 ar 
     5    5    4 ar 
     6    5    6 1  
     7    7    5 ar 
     8    8    7 ar 
     9    7   12 ar 
    10    9    8 ar 
    11    9   10 ar 
    12   13    9 1  
    13   10   11 ar 
    14   11   12 ar 
    15   14   13 1  
    16   14   15 1  
    17   19   14 1  
    18   17   16 ar 
    19   16   21 ar 
    20   16   22 1  
    21   18   17 ar 
    22   18   19 ar 
    23   19   20 ar 
    24   20   21 ar 
    25   22   23 2  
    26   22   24 am 
    27   24   25 1  
    28   25   26 1  
    29   25   29 1  
    30   26   27 ar 
    31   26   28 ar 
    32   29   30 1  
    33   30   31 1  
    34   31   32 ar 
    35   31   33 ar 
    36    3   34 1  
    37    3   35 1  
    38    6   36 1  
    39    6   37 1  
    40   10   38 1  
    41   13   39 1  
    42   13   40 1  
    43   15   41 1  
    44   15   42 1  
    45   15   43 1  
    46   17   44 1  
    47   18   45 1  
    48   20   46 1  
    49   21   47 1  
    50   24   48 1  
    51   25   49 1  
    52   29   50 1  
    53   29   51 1  
    54   30   52 1  
    55   30   53 1  
@<TRIPOS>SUBSTRUCTURE
     1 MTX         1

