### 
### Created by X-TOOL on Mon Sep 10 21:13:07 2018
### 

@<TRIPOS>MOLECULE
3qzq_ligand
   84    86     1     0     0
SMALL
GAST_HUCK


@<TRIPOS>ATOM
      1 C01        36.3760   15.3040    7.1090 C.2       1 AG7         0.1331
      2 C02        36.4750   16.0010    5.7470 C.3       1 AG7         0.0448
      3 O03        37.3510   14.7080    7.5520 O.2       1 AG7        -0.3890
      4 C04        37.7570   16.8590    5.6370 C.3       1 AG7         0.0733
      5 C05        37.9380   17.7590    4.4210 C.3       1 AG7         0.0009
      6 C06        37.3330   17.1230    3.1760 C.ar      1 AG7        -0.0442
      7 C07        37.9690   16.0490    2.5710 C.ar      1 AG7        -0.0618
      8 C08        37.4330   15.4930    1.4010 C.ar      1 AG7        -0.0349
      9 C09        36.2630   16.0250    0.8520 C.ar      1 AG7         0.1248
     10 C10        35.6250   17.1040    1.4530 C.ar      1 AG7        -0.0349
     11 C11        36.1630   17.6650    2.6220 C.ar      1 AG7        -0.0618
     12 N12        39.9660   16.7210    6.9490 N.am      1 AG7        -0.2831
     13 C13        40.9980   17.2270    7.8950 C.3       1 AG7         0.0465
     14 C14        41.2570   16.5000    9.2180 C.3       1 AG7        -0.0099
     15 C15        39.9930   15.9540    9.8350 C.3       1 AG7         0.0525
     16 C16        40.3310   14.9910   10.9210 C.2       1 AG7         0.1792
     17 N17        39.4560   15.2300   12.0110 N.am      1 AG7        -0.2866
     18 O18        41.2340   14.1690   10.9270 O.2       1 AG7        -0.3968
     19 C19        42.1460   18.1120    7.3800 C.3       1 AG7        -0.0115
     20 C20        41.7220   19.1080    6.3250 C.3       1 AG7         0.0508
     21 C21        41.1620   20.3240    7.0480 C.2       1 AG7         0.2338
     22 O22        40.2870   21.0650    6.4830 O.3       1 AG7        -0.2771
     23 O23        41.5270   20.5720    8.2190 O.2       1 AG7        -0.3704
     24 C47        38.6090   17.2630    6.8440 C.2       1 AG7         0.1835
     25 O48        38.2500   18.2090    7.5130 O.2       1 AG7        -0.3964
     26 C50        39.6360   22.0550    7.2180 C.3       1 AG7         0.0740
     27 C53        38.6270   22.7280    6.3240 C.3       1 AG7        -0.0371
     28 C57        34.9560   14.8700    7.5630 C.3       1 AG7         0.1169
     29 N58        35.0210   13.5470    8.1840 N.am      1 AG7        -0.2658
     30 C59        34.2280   12.4470    7.6590 C.2       1 AG7         0.2113
     31 O60        33.4720   12.5990    6.7210 O.2       1 AG7        -0.3853
     32 C78        34.2720   15.8860    8.4780 C.3       1 AG7        -0.0074
     33 C81        32.9110   15.3810    8.8780 C.3       1 AG7        -0.0584
     34 F1         35.7740   15.4970   -0.2720 F         1 AG7        -0.1893
     35 C82        35.1110   16.1080    9.6910 C.3       1 AG7        -0.0584
     36 C83        38.5220   16.2650   11.6190 C.3       1 AG7         0.0332
     37 C84        39.1780   17.0240   10.4860 C.3       1 AG7        -0.0129
     38 C1         34.4140   11.0770    8.2640 C.2       1 AG7         0.1131
     39 C2         33.7060    9.8510    7.8800 C.2       1 AG7        -0.0165
     40 C3         34.2570    8.8540    8.7610 C.2       1 AG7         0.1392
     41 O4         35.1600    9.4660    9.5190 O.3       1 AG7        -0.1606
     42 N5         35.2610   10.7520    9.2370 N.2       1 AG7        -0.1328
     43 C4         33.8850    7.3980    8.7970 C.3       1 AG7         0.0097
     44 H          35.6116   16.6564    5.6325 H         1 AG7         0.0524
     45 H          36.5052   15.2364    4.9707 H         1 AG7         0.0524
     46 H          38.2469   15.9049    5.4426 H         1 AG7         0.0585
     47 H          39.0044   17.9100    4.2534 H         1 AG7         0.0447
     48 H          37.4340   18.7069    4.6095 H         1 AG7         0.0447
     49 H          38.8817   15.6390    3.0035 H         1 AG7         0.0547
     50 H          37.9272   14.6484    0.9209 H         1 AG7         0.0587
     51 H          34.7122   17.5121    1.0190 H         1 AG7         0.0587
     52 H          35.6750   18.5164    3.0965 H         1 AG7         0.0547
     53 H          40.2199   15.9474    6.3346 H         1 AG7         0.1854
     54 H          40.2930   17.9864    8.2330 H         1 AG7         0.0559
     55 H          41.6894   17.2166    9.9162 H         1 AG7         0.0315
     56 H          41.9220   15.6604    9.0156 H         1 AG7         0.0315
     57 H          39.4345   15.4895    9.0223 H         1 AG7         0.0539
     58 H          39.4802   14.7557   12.9137 H         1 AG7         0.1851
     59 H          42.8862   17.4530    6.9262 H         1 AG7         0.0313
     60 H          42.5250   18.6799    8.2297 H         1 AG7         0.0313
     61 H          40.9684   18.6726    5.6688 H         1 AG7         0.0519
     62 H          42.5710   19.3905    5.7025 H         1 AG7         0.0519
     63 H          40.3590   22.7861    7.5797 H         1 AG7         0.0610
     64 H          39.1340   21.6109    8.0776 H         1 AG7         0.0610
     65 H          39.1391   23.1731    5.4709 H         1 AG7         0.0255
     66 H          37.9060   21.9902    5.9721 H         1 AG7         0.0255
     67 H          38.1086   23.5059    6.8845 H         1 AG7         0.0255
     68 H          34.3314   14.8215    6.6710 H         1 AG7         0.0794
     69 H          35.6266   13.3952    8.9906 H         1 AG7         0.1878
     70 H          34.1544   16.8297    7.9453 H         1 AG7         0.0343
     71 H          32.3029   15.2335    7.9855 H         1 AG7         0.0235
     72 H          33.0173   14.4341    9.4073 H         1 AG7         0.0235
     73 H          32.4311   16.1111    9.5297 H         1 AG7         0.0235
     74 H          35.2347   15.1648   10.2232 H         1 AG7         0.0235
     75 H          36.0875   16.4883    9.3912 H         1 AG7         0.0235
     76 H          34.6217   16.8325   10.3420 H         1 AG7         0.0235
     77 H          38.2974   16.9269   12.4554 H         1 AG7         0.0521
     78 H          37.5712   15.8354   11.3037 H         1 AG7         0.0521
     79 H          38.4653   17.4980    9.8111 H         1 AG7         0.0312
     80 H          39.7687   17.8771   10.8197 H         1 AG7         0.0312
     81 H          32.9441    9.7247    7.1108 H         1 AG7         0.0312
     82 H          32.8231    7.3011    9.0229 H         1 AG7         0.0449
     83 H          34.0941    6.9468    7.8270 H         1 AG7         0.0449
     84 H          34.4691    6.8940    9.5671 H         1 AG7         0.0449
@<TRIPOS>BOND
     1    2    1 1  
     2    1    3 2  
     3    1   28 1  
     4    4    2 1  
     5    4    5 1  
     6   24    4 1  
     7    5    6 1  
     8    6    7 ar 
     9    6   11 ar 
    10    7    8 ar 
    11    8    9 ar 
    12   10    9 ar 
    13    9   34 1  
    14   11   10 ar 
    15   12   13 1  
    16   12   24 am 
    17   13   14 1  
    18   13   19 1  
    19   14   15 1  
    20   15   16 1  
    21   15   37 1  
    22   16   17 am 
    23   16   18 2  
    24   17   36 1  
    25   19   20 1  
    26   20   21 1  
    27   21   22 1  
    28   21   23 2  
    29   22   26 1  
    30   24   25 2  
    31   26   27 1  
    32   28   29 1  
    33   28   32 1  
    34   29   30 am 
    35   30   31 2  
    36   30   38 1  
    37   32   33 1  
    38   32   35 1  
    39   36   37 1  
    40   38   39 1  
    41   38   42 2  
    42   39   40 2  
    43   40   41 1  
    44   40   43 1  
    45   41   42 1  
    46    2   44 1  
    47    2   45 1  
    48    4   46 1  
    49    5   47 1  
    50    5   48 1  
    51    7   49 1  
    52    8   50 1  
    53   10   51 1  
    54   11   52 1  
    55   12   53 1  
    56   13   54 1  
    57   14   55 1  
    58   14   56 1  
    59   15   57 1  
    60   17   58 1  
    61   19   59 1  
    62   19   60 1  
    63   20   61 1  
    64   20   62 1  
    65   26   63 1  
    66   26   64 1  
    67   27   65 1  
    68   27   66 1  
    69   27   67 1  
    70   28   68 1  
    71   29   69 1  
    72   32   70 1  
    73   33   71 1  
    74   33   72 1  
    75   33   73 1  
    76   35   74 1  
    77   35   75 1  
    78   35   76 1  
    79   36   77 1  
    80   36   78 1  
    81   37   79 1  
    82   37   80 1  
    83   39   81 1  
    84   43   82 1  
    85   43   83 1  
    86   43   84 1  
@<TRIPOS>SUBSTRUCTURE
     1 AG7         1

