### 
### Created by X-TOOL on Mon Sep 10 21:13:05 2018
### 

@<TRIPOS>MOLECULE
3r00_ligand
   17    18     1     0     0
SMALL
GAST_HUCK


@<TRIPOS>ATOM
      1 C1        -17.5840  -36.0970   -2.0010 C.2       1 UNJ         0.1538
      2 O2        -18.0610  -37.0230   -2.8850 O.3       1 UNJ        -0.2442
      3 C3        -18.1790  -36.2230   -0.7680 C.2       1 UNJ        -0.0287
      4 C4        -19.0600  -37.2370   -0.9150 C.ar      1 UNJ        -0.0016
      5 C5        -16.4610  -35.2650   -2.5470 C.2       1 UNJ         0.0989
      6 C6        -18.9970  -37.6990   -2.2290 C.ar      1 UNJ         0.1295
      7 C7        -20.0010  -37.8490   -0.0470 C.ar      1 UNJ        -0.0584
      8 O8        -16.0130  -34.3270   -1.8490 O.co2     1 UNJ        -0.5578
      9 C9        -19.7900  -38.6930   -2.7730 C.ar      1 UNJ        -0.0272
     10 C10       -20.7560  -38.8660   -0.6170 C.ar      1 UNJ        -0.0005
     11 O11       -15.9800  -35.6460   -3.6970 O.co2     1 UNJ        -0.5578
     12 C12       -20.6520  -39.3020   -1.9080 C.ar      1 UNJ        -0.0628
     13 BR13      -22.0690  -39.8880    0.3510 Br        1 UNJ        -0.0589
     14 H1        -17.9837  -35.6359    0.1282 H         1 UNJ         0.0418
     15 H2        -20.1219  -37.5448    0.9864 H         1 UNJ         0.0594
     16 H3        -19.7306  -38.9705   -3.8192 H         1 UNJ         0.0570
     17 H4        -21.2570  -40.1354   -2.2464 H         1 UNJ         0.0575
@<TRIPOS>BOND
     1    1    2 1  
     2    1    3 2  
     3    1    5 1  
     4    2    6 1  
     5    3    4 1  
     6    4    6 ar 
     7    4    7 ar 
     8    5    8 ar 
     9    5   11 ar 
    10    6    9 ar 
    11    7   10 ar 
    12    9   12 ar 
    13   10   12 ar 
    14   10   13 1  
    15    3   14 1  
    16    7   15 1  
    17    9   16 1  
    18   12   17 1  
@<TRIPOS>SUBSTRUCTURE
     1 UNJ         1

