### 
### Created by X-TOOL on Mon Sep 10 21:13:07 2018
### 

@<TRIPOS>MOLECULE
3r01_ligand
   21    22     1     0     0
SMALL
GAST_HUCK


@<TRIPOS>ATOM
      1 O01        22.2000   33.4440    0.6570 O.3       1 UNE        -0.2459
      2 C02        22.6210   33.1260    1.9110 C.2       1 UNE         0.1517
      3 C03        23.1870   34.2310    2.5160 C.2       1 UNE        -0.0319
      4 C04        23.1240   35.2700    1.5600 C.ar      1 UNE        -0.0098
      5 C05        22.5240   34.7710    0.4300 C.ar      1 UNE         0.1600
      6 C06        22.2890   35.5080   -0.7240 C.ar      1 UNE         0.1263
      7 C07        22.6670   36.8490   -0.7020 C.ar      1 UNE        -0.0349
      8 C08        23.2910   37.3540    0.4540 C.ar      1 UNE        -0.0110
      9 C09        23.5590   36.6820    1.6080 C.ar      1 UNE        -0.0710
     10 BR10       23.7680   39.1750    0.1570 Br        1 UNE        -0.0621
     11 O11        21.6800   34.9840   -1.8390 O.3       1 UNE        -0.3224
     12 C12        21.6890   35.7180   -3.0250 C.3       1 UNE         0.0579
     13 C13        22.4320   31.7800    2.4330 C.2       1 UNE         0.0986
     14 O14        21.8660   30.9710    1.6980 O.co2     1 UNE        -0.5578
     15 O15        22.8940   31.5170    3.6890 O.co2     1 UNE        -0.5578
     16 H          23.5979   34.2897    3.5239 H         1 UNE         0.0411
     17 H          22.4833   37.4932   -1.5619 H         1 UNE         0.0480
     18 H          24.0419   37.1362    2.4732 H         1 UNE         0.0486
     19 H          21.1884   36.6727   -2.8637 H         1 UNE         0.0575
     20 H          22.7193   35.8941   -3.3340 H         1 UNE         0.0575
     21 H          21.1662   35.1587   -3.8009 H         1 UNE         0.0575
@<TRIPOS>BOND
     1    1    2 1  
     2    1    5 1  
     3    2    3 2  
     4    2   13 1  
     5    3    4 1  
     6    4    5 ar 
     7    4    9 ar 
     8    5    6 ar 
     9    6    7 ar 
    10    6   11 1  
    11    7    8 ar 
    12    8    9 ar 
    13    8   10 1  
    14   11   12 1  
    15   13   14 ar 
    16   13   15 ar 
    17    3   16 1  
    18    7   17 1  
    19    9   18 1  
    20   12   19 1  
    21   12   20 1  
    22   12   21 1  
@<TRIPOS>SUBSTRUCTURE
     1 UNE         1

