### 
### Created by X-TOOL on Mon Sep 10 21:13:05 2018
### 

@<TRIPOS>MOLECULE
3r02_ligand
   38    40     1     0     0
SMALL
GAST_HUCK


@<TRIPOS>ATOM
      1 C01        20.7180  -38.6020    0.8390 C.ar      1 UNM        -0.0144
      2 C02        19.0230  -37.5340    2.0420 C.ar      1 UNM        -0.0128
      3 C03        20.0680  -38.4750    2.0560 C.ar      1 UNM        -0.0735
      4 C04        18.7520  -36.7700    0.9030 C.ar      1 UNM         0.1494
      5 C05        20.4420  -37.9490   -0.3510 C.ar      1 UNM        -0.0464
      6 C06        19.4000  -36.9570   -0.3280 C.ar      1 UNM         0.0751
      7 O07        17.7960  -35.8540    1.0860 O.3       1 UNM        -0.2476
      8 C08        18.1690  -37.0070    3.0720 C.2       1 UNM        -0.0327
      9 C09        17.4610  -36.0250    2.3810 C.2       1 UNM         0.1512
     10 C10        16.3790  -35.2020    2.8340 C.2       1 UNM         0.0985
     11 O11        15.8860  -34.3610    2.0210 O.co2     1 UNM        -0.5578
     12 O12        15.8820  -35.4370    4.0440 O.co2     1 UNM        -0.5578
     13 BR13       22.1270  -39.9960    0.6740 Br        1 UNM        -0.0628
     14 C14        19.7050  -36.5090   -2.8550 C.3       1 UNM         0.0345
     15 C15        19.2250  -37.9060   -3.4430 C.3       1 UNM        -0.0257
     16 C16        17.6750  -37.9430   -3.6260 C.3       1 UNM        -0.0078
     17 C17        17.1310  -36.8660   -4.6520 C.3       1 UNM        -0.0242
     18 C18        17.6660  -35.4520   -4.1710 C.3       1 UNM        -0.0078
     19 C19        19.1850  -35.4500   -3.8400 C.3       1 UNM        -0.0257
     20 N20        15.6810  -36.9290   -4.9170 N.4       1 UNM         0.2207
     21 N21        19.1320  -36.2350   -1.4740 N.pl3     1 UNM        -0.3210
     22 H1         20.3394  -39.0470    2.9359 H         1 UNM         0.0465
     23 H2         20.9873  -38.1755   -1.2601 H         1 UNM         0.0449
     24 H3         18.0948  -37.2989    4.1185 H         1 UNM         0.0410
     25 H4         20.8034  -36.4816   -2.8024 H         1 UNM         0.0546
     26 H5         19.5231  -38.7074   -2.7509 H         1 UNM         0.0289
     27 H6         19.7048  -38.0675   -4.4195 H         1 UNM         0.0289
     28 H7         17.2051  -37.7602   -2.6484 H         1 UNM         0.0320
     29 H8         17.3914  -38.9422   -3.9880 H         1 UNM         0.0320
     30 H9         17.6116  -37.0763   -5.6188 H         1 UNM         0.0850
     31 H10        17.1114  -35.1575   -3.2678 H         1 UNM         0.0320
     32 H11        17.4817  -34.7186   -4.9699 H         1 UNM         0.0320
     33 H12        19.7273  -35.5883   -4.7870 H         1 UNM         0.0289
     34 H13        19.4278  -34.4631   -3.4191 H         1 UNM         0.0289
     35 H14        15.4342  -37.8596   -5.2156 H         1 UNM         0.1997
     36 H15        15.4428  -36.2695   -5.6412 H         1 UNM         0.1997
     37 H16        15.1754  -36.7010   -4.0753 H         1 UNM         0.1997
     38 H17        18.4851  -35.4384   -1.3850 H         1 UNM         0.1741
@<TRIPOS>BOND
     1    1    3 ar 
     2    5    1 ar 
     3    1   13 1  
     4    2    3 ar 
     5    4    2 ar 
     6    2    8 1  
     7    6    4 ar 
     8    4    7 1  
     9    6    5 ar 
    10   21    6 1  
    11    7    9 1  
    12    9    8 2  
    13    9   10 1  
    14   10   11 ar 
    15   10   12 ar 
    16   14   15 1  
    17   14   19 1  
    18   14   21 1  
    19   15   16 1  
    20   16   17 1  
    21   17   18 1  
    22   17   20 1  
    23   18   19 1  
    24    3   22 1  
    25    5   23 1  
    26    8   24 1  
    27   14   25 1  
    28   15   26 1  
    29   15   27 1  
    30   16   28 1  
    31   16   29 1  
    32   17   30 1  
    33   18   31 1  
    34   18   32 1  
    35   19   33 1  
    36   19   34 1  
    37   20   35 1  
    38   20   36 1  
    39   20   37 1  
    40   21   38 1  
@<TRIPOS>SUBSTRUCTURE
     1 UNM         1

