### 
### Created by X-TOOL on Mon Sep 10 21:13:06 2018
### 

@<TRIPOS>MOLECULE
3r04_ligand
   46    49     1     0     0
SMALL
GAST_HUCK


@<TRIPOS>ATOM
      1 C01        23.3010  -37.3150   -0.5070 C.ar      1 UNQ        -0.0093
      2 C02        22.7950  -35.0800   -1.0660 C.ar      1 UNQ        -0.0001
      3 C03        22.8000  -36.0590   -0.1130 C.ar      1 UNQ        -0.0546
      4 C04        23.2570  -35.3100   -2.3790 C.ar      1 UNQ         0.1304
      5 C05        23.7470  -37.5340   -1.8440 C.ar      1 UNQ        -0.0589
      6 C06        23.6990  -36.5730   -2.8450 C.ar      1 UNQ        -0.0256
      7 O07        23.1030  -34.1690   -3.1370 O.3       1 UNQ        -0.2436
      8 C08        22.3450  -33.6730   -0.9800 C.2       1 UNQ        -0.0284
      9 C09        22.5470  -33.2420   -2.2520 C.2       1 UNQ         0.1542
     10 C10        22.3520  -31.8240   -2.7510 C.2       1 UNQ         0.0990
     11 O11        21.8430  -30.9210   -2.0610 O.co2     1 UNQ        -0.5578
     12 O12        23.0210  -31.6630   -3.8860 O.co2     1 UNQ        -0.5578
     13 C13        23.4160  -38.3400    0.5610 C.ar      1 UNQ         0.0592
     14 C14        23.6140  -39.1170    2.8010 C.ar      1 UNQ         0.1378
     15 N15        23.4420  -38.0560    1.9100 N.ar      1 UNQ        -0.2607
     16 C16        23.7700  -40.4450    2.3330 C.ar      1 UNQ         0.0564
     17 C17        23.6450  -39.6670    0.1400 C.ar      1 UNQ         0.0307
     18 N18        23.7900  -40.7110    1.0140 N.ar      1 UNQ        -0.2877
     19 N19        23.6030  -38.8180    4.1710 N.pl3     1 UNQ        -0.2991
     20 C20        23.1970  -37.4220    4.5770 C.3       1 UNQ         0.0398
     21 C21        22.7150  -37.4300    6.0660 C.3       1 UNQ        -0.0248
     22 C22        22.4650  -35.9830    6.5920 C.3       1 UNQ        -0.0077
     23 C23        23.6900  -35.0520    6.3890 C.3       1 UNQ        -0.0242
     24 C24        24.1110  -35.0680    4.9040 C.3       1 UNQ        -0.0077
     25 C25        24.4530  -36.4870    4.4470 C.3       1 UNQ        -0.0248
     26 N26        23.5430  -33.7360    6.9350 N.4       1 UNQ         0.2207
     27 H1         22.4377  -35.8787    0.8926 H         1 UNQ         0.0602
     28 H2         24.1477  -38.5098   -2.0937 H         1 UNQ         0.0583
     29 H3         23.9714  -36.7686   -3.8758 H         1 UNQ         0.0575
     30 H4         21.9546  -33.1269   -0.1225 H         1 UNQ         0.0418
     31 H5         23.8744  -41.2556    3.0451 H         1 UNQ         0.0808
     32 H6         23.7090  -39.8691   -0.9231 H         1 UNQ         0.0795
     33 H7         23.8623  -39.5247    4.8741 H         1 UNQ         0.1829
     34 H8         22.3882  -37.0607    3.9249 H         1 UNQ         0.0556
     35 H9         23.4850  -37.9089    6.6887 H         1 UNQ         0.0289
     36 H10        21.7785  -38.0027    6.1358 H         1 UNQ         0.0289
     37 H11        22.2360  -36.0339    7.6667 H         1 UNQ         0.0320
     38 H12        21.6058  -35.5564    6.0537 H         1 UNQ         0.0320
     39 H13        24.5181  -35.5089    6.9507 H         1 UNQ         0.0850
     40 H14        24.9941  -34.4253    4.7734 H         1 UNQ         0.0320
     41 H15        23.2830  -34.6824    4.2911 H         1 UNQ         0.0320
     42 H16        24.7783  -36.4609    3.3965 H         1 UNQ         0.0289
     43 H17        25.2662  -36.8832    5.0729 H         1 UNQ         0.0289
     44 H18        23.2682  -33.8025    7.9026 H         1 UNQ         0.1997
     45 H19        22.8368  -33.2350    6.4189 H         1 UNQ         0.1997
     46 H20        24.4204  -33.2444    6.8679 H         1 UNQ         0.1997
@<TRIPOS>BOND
     1    1    3 ar 
     2    1    5 ar 
     3    1   13 1  
     4    3    2 ar 
     5    2    4 ar 
     6    2    8 1  
     7    4    6 ar 
     8    4    7 1  
     9    5    6 ar 
    10    7    9 1  
    11    8    9 2  
    12    9   10 1  
    13   10   11 ar 
    14   10   12 ar 
    15   13   15 ar 
    16   13   17 ar 
    17   15   14 ar 
    18   14   16 ar 
    19   14   19 1  
    20   16   18 ar 
    21   17   18 ar 
    22   19   20 1  
    23   20   21 1  
    24   20   25 1  
    25   21   22 1  
    26   22   23 1  
    27   23   24 1  
    28   23   26 1  
    29   24   25 1  
    30    3   27 1  
    31    5   28 1  
    32    6   29 1  
    33    8   30 1  
    34   16   31 1  
    35   17   32 1  
    36   19   33 1  
    37   20   34 1  
    38   21   35 1  
    39   21   36 1  
    40   22   37 1  
    41   22   38 1  
    42   23   39 1  
    43   24   40 1  
    44   24   41 1  
    45   25   42 1  
    46   25   43 1  
    47   26   44 1  
    48   26   45 1  
    49   26   46 1  
@<TRIPOS>SUBSTRUCTURE
     1 UNQ         1

