### 
### Created by X-TOOL on Mon Sep 10 21:13:05 2018
### 

@<TRIPOS>MOLECULE
3r0t_ligand
   47    51     1     0     0
SMALL
GAST_HUCK


@<TRIPOS>ATOM
      1 N1         23.4210  -29.4780   10.4200 N.ar      1 FU9        -0.2413
      2 C2         23.4340  -28.4880   11.3390 C.ar      1 FU9         0.1956
      3 N3         23.3100  -28.7500   12.6490 N.ar      1 FU9        -0.2469
      4 C4         23.1850  -30.0060   13.0720 C.ar      1 FU9         0.1078
      5 C5         23.1470  -31.0450   12.1510 C.ar      1 FU9         0.0391
      6 C6         23.2870  -30.7440   10.7970 C.ar      1 FU9         0.0341
      7 OAA        22.4640  -36.5470   15.3420 O.co2     1 FU9        -0.5605
      8 OAB        22.0860  -37.2140   13.2680 O.co2     1 FU9        -0.5605
      9 FAC        24.1160  -31.1230   20.2890 F         1 FU9        -0.2206
     10 FAD        22.0090  -30.9500   20.6960 F         1 FU9        -0.2206
     11 FAE        22.7140  -32.2580   19.1280 F         1 FU9        -0.2206
     12 CAF        22.5940  -27.5560   18.4090 C.ar      1 FU9        -0.0395
     13 CAG        22.7770  -27.7610   17.0490 C.ar      1 FU9        -0.0078
     14 CAH        22.6580  -28.6430   19.2690 C.ar      1 FU9        -0.0414
     15 CAI        22.8000  -34.7250   12.2020 C.ar      1 FU9        -0.0487
     16 CAJ        22.9680  -33.4330   11.7210 C.ar      1 FU9        -0.0507
     17 CAL        22.9730  -30.1300   17.4000 C.ar      1 FU9        -0.0080
     18 CAM        22.7080  -33.8700   14.4480 C.ar      1 FU9        -0.0342
     19 CAN        23.5000  -24.7620   11.5310 C.3       1 FU9        -0.0274
     20 CAO        24.8340  -25.3070   12.0630 C.3       1 FU9        -0.0274
     21 NAQ        22.8850  -31.5200   14.8490 N.ar      1 FU9        -0.2798
     22 NAS        22.9850  -29.1540   15.1960 N.pl3     1 FU9        -0.2446
     23 NAT        23.5800  -27.2160   10.9800 N.pl3     1 FU9        -0.2851
     24 CAU        22.4860  -36.3650   14.1010 C.2       1 FU9         0.0629
     25 CAV        22.8770  -29.0440   16.5270 C.ar      1 FU9         0.0958
     26 CAW        22.7080  -34.9500   13.5740 C.ar      1 FU9         0.0096
     27 CAX        22.8430  -29.9250   18.7710 C.ar      1 FU9         0.0383
     28 CAZ        23.0930  -30.2470   14.4320 C.ar      1 FU9         0.1629
     29 CBA        22.8740  -32.5680   13.9780 C.ar      1 FU9         0.0325
     30 CBB        22.9960  -32.3520   12.6090 C.ar      1 FU9         0.0059
     31 CBE        23.5980  -26.1970   12.0400 C.3       1 FU9         0.0423
     32 CBF        22.9140  -31.1030   19.7470 C.3       1 FU9         0.3739
     33 H1         23.2865  -31.5371   10.0580 H         1 FU9         0.0970
     34 H2         22.4037  -26.5608   18.7942 H         1 FU9         0.0674
     35 H3         22.8429  -26.9073   16.3843 H         1 FU9         0.0792
     36 H4         22.5628  -28.4896   20.3379 H         1 FU9         0.0771
     37 H5         22.7405  -35.5577   11.5106 H         1 FU9         0.0633
     38 H6         23.0776  -33.2618   10.6562 H         1 FU9         0.0627
     39 H7         23.1478  -31.1271   17.0123 H         1 FU9         0.0756
     40 H8         22.5771  -34.0421   15.5102 H         1 FU9         0.0646
     41 H9         23.3744  -24.5662   10.4559 H         1 FU9         0.0289
     42 H10        22.9428  -24.0096   12.1083 H         1 FU9         0.0289
     43 H11        25.2336  -24.9446   13.0216 H         1 FU9         0.0289
     44 H12        25.6652  -25.5013   11.3692 H         1 FU9         0.0289
     45 H13        22.9849  -28.2610   14.6828 H         1 FU9         0.2198
     46 H14        23.6776  -26.9524    9.9891 H         1 FU9         0.1869
     47 H15        23.0996  -26.5352   12.9605 H         1 FU9         0.0560
@<TRIPOS>BOND
     1    2    1 ar 
     2    6    1 ar 
     3    3    2 ar 
     4    2   23 1  
     5    4    3 ar 
     6    4    5 ar 
     7   28    4 ar 
     8    5    6 ar 
     9    5   30 ar 
    10   24    7 ar 
    11   24    8 ar 
    12   32    9 1  
    13   32   10 1  
    14   32   11 1  
    15   12   13 ar 
    16   14   12 ar 
    17   25   13 ar 
    18   27   14 ar 
    19   16   15 ar 
    20   26   15 ar 
    21   30   16 ar 
    22   17   25 ar 
    23   27   17 ar 
    24   18   26 ar 
    25   29   18 ar 
    26   20   19 1  
    27   31   19 1  
    28   31   20 1  
    29   28   21 ar 
    30   21   29 ar 
    31   25   22 1  
    32   22   28 1  
    33   23   31 1  
    34   26   24 1  
    35   27   32 1  
    36   29   30 ar 
    37    6   33 1  
    38   12   34 1  
    39   13   35 1  
    40   14   36 1  
    41   15   37 1  
    42   16   38 1  
    43   17   39 1  
    44   18   40 1  
    45   19   41 1  
    46   19   42 1  
    47   20   43 1  
    48   20   44 1  
    49   22   45 1  
    50   23   46 1  
    51   31   47 1  
@<TRIPOS>SUBSTRUCTURE
     1 FU9         1

