### 
### Created by X-TOOL on Mon Sep 10 21:13:10 2018
### 

@<TRIPOS>MOLECULE
3r0w_ligand
   87    88     1     0     0
SMALL
GAST_HUCK


@<TRIPOS>ATOM
      1 C39        15.4600   10.1450    4.6730 C.ar      1 RSY         0.1226
      2 C43        16.7870    8.5970    5.8550 C.ar      1 RSY         0.0170
      3 C42        15.8250    8.4860    6.8500 C.ar      1 RSY        -0.0295
      4 C37        15.2490   11.0550    3.4850 C.2       1 RSY         0.2262
      5 C41        14.6540    9.2260    6.7540 C.ar      1 RSY        -0.0365
      6 C40        14.4730   10.0590    5.6580 C.ar      1 RSY        -0.0138
      7 O38        14.2050   11.6880    3.4350 O.2       1 RSY        -0.3787
      8 N44        16.5910    9.4070    4.8040 N.ar      1 RSY        -0.2760
      9 N36        16.1390   11.1990    2.4920 N.am      1 RSY        -0.2626
     10 C32        17.4360   10.5370    2.3770 C.3       1 RSY         0.1329
     11 C33        18.4210   11.6450    1.9560 C.3       1 RSY        -0.0063
     12 C34        18.3010   12.0810    0.4930 C.3       1 RSY        -0.0584
     13 C35        19.8690   11.2920    2.2920 C.3       1 RSY        -0.0584
     14 C30        17.4180    9.3620    1.4320 C.2       1 RSY         0.2024
     15 O31        18.1540    8.4200    1.6520 O.2       1 RSY        -0.3945
     16 N29        16.5640    9.4180    0.4030 N.am      1 RSY        -0.2774
     17 C21        16.3480    8.4350   -0.6710 C.3       1 RSY         0.0795
     18 C22        17.5520    8.5580   -1.6100 C.3       1 RSY         0.0065
     19 C23        17.1130    9.3090   -2.8430 C.ar      1 RSY        -0.0408
     20 C28        16.2120    8.7310   -3.7390 C.ar      1 RSY        -0.0603
     21 C24        17.6020   10.5910   -3.0780 C.ar      1 RSY        -0.0603
     22 C27        15.8050    9.4360   -4.8670 C.ar      1 RSY        -0.0686
     23 C25        17.1930   11.2940   -4.2050 C.ar      1 RSY        -0.0686
     24 C26        16.2990   10.7160   -5.1020 C.ar      1 RSY        -0.0687
     25 C19        16.1570    7.0020   -0.1470 C.3       1 RSY         0.0965
     26 O20        17.3840    6.4040    0.2980 O.3       1 RSY        -0.3870
     27 C18        15.1010    6.9100    0.9500 C.3       1 RSY         0.0657
     28 C16        14.2400    5.7020    0.6830 C.2       1 RSY         0.1808
     29 O17        14.6890    4.5790    0.8520 O.2       1 RSY        -0.3968
     30 C10        11.2690    5.2220   -1.2660 C.2       1 RSY         0.2051
     31 N15        12.9950    5.9500    0.2790 N.am      1 RSY        -0.2644
     32 O11        11.3460    4.4880   -2.2360 O.2       1 RSY        -0.3943
     33 CL14        9.6140    3.9050    0.7990 Cl        1 RSY        -0.1204
     34 C12        12.0380    4.8930   -0.0220 C.3       1 RSY         0.1442
     35 C13        11.1040    4.8230    1.1860 C.3       1 RSY         0.0629
     36 N09        10.5390    6.3390   -1.2230 N.am      1 RSY        -0.2637
     37 C05         9.7040    6.8380   -2.3110 C.3       1 RSY         0.1309
     38 C06        10.3740    6.8140   -3.6600 C.2       1 RSY         0.1992
     39 O07        11.5570    7.0930   -3.7860 O.2       1 RSY        -0.3947
     40 C04         9.3750    8.2790   -1.9120 C.3       1 RSY        -0.0101
     41 C02         8.3720    8.4680   -0.7570 C.3       1 RSY        -0.0425
     42 C01         7.5280    7.2260   -0.4270 C.3       1 RSY        -0.0625
     43 C03         9.0990    8.9760    0.5020 C.3       1 RSY        -0.0625
     44 N08         9.6060    6.4630   -4.6890 N.am      1 RSY        -0.2990
     45 H1         17.7043    8.0241    5.9282 H         1 RSY         0.0842
     46 H2         15.9868    7.8268    7.6952 H         1 RSY         0.0744
     47 H3         13.8930    9.1545    7.5227 H         1 RSY         0.0749
     48 H4         13.5646   10.6434    5.5665 H         1 RSY         0.0764
     49 H5         15.8885   11.8248    1.7533 H         1 RSY         0.1880
     50 H6         17.7308   10.1569    3.3662 H         1 RSY         0.0802
     51 H7         18.1614   12.5255    2.5621 H         1 RSY         0.0343
     52 H8         19.0382   12.8702    0.2840 H         1 RSY         0.0234
     53 H9         17.2879   12.4671    0.3074 H         1 RSY         0.0234
     54 H10        18.4908   11.2189   -0.1633 H         1 RSY         0.0234
     55 H11        19.9358   10.9816    3.3452 H         1 RSY         0.0234
     56 H12        20.5085   12.1718    2.1278 H         1 RSY         0.0234
     57 H13        20.2052   10.4684    1.6450 H         1 RSY         0.0234
     58 H14        15.9954   10.2394    0.3577 H         1 RSY         0.1857
     59 H15        15.4370    8.7095   -1.2230 H         1 RSY         0.0606
     60 H16        17.9087    7.5562   -1.8914 H         1 RSY         0.0449
     61 H17        18.3615    9.1078   -1.1076 H         1 RSY         0.0449
     62 H18        15.8297    7.7333   -3.5559 H         1 RSY         0.0557
     63 H19        18.3013   11.0407   -2.3824 H         1 RSY         0.0557
     64 H20        15.1038    8.9890   -5.5624 H         1 RSY         0.0599
     65 H21        17.5707   12.2939   -4.3858 H         1 RSY         0.0599
     66 H22        15.9873   11.2632   -5.9843 H         1 RSY         0.0559
     67 H23        15.7947    6.4033   -0.9957 H         1 RSY         0.0643
     68 H24        17.7514    6.9246    1.0026 H         1 RSY         0.2101
     69 H25        14.4794    7.8175    0.9441 H         1 RSY         0.0529
     70 H26        15.5910    6.8075    1.9295 H         1 RSY         0.0529
     71 H27        12.7049    6.9017    0.1780 H         1 RSY         0.1883
     72 H28        12.5584    3.9335   -0.1579 H         1 RSY         0.0812
     73 H29        11.6271    4.3253    2.0158 H         1 RSY         0.0478
     74 H30        10.8284    5.8447    1.4864 H         1 RSY         0.0478
     75 H31        10.5665    6.8756   -0.3796 H         1 RSY         0.1883
     76 H32         8.7831    6.2393   -2.3705 H         1 RSY         0.0800
     77 H33         8.9616    8.7836   -2.7977 H         1 RSY         0.0315
     78 H34        10.3164    8.7663   -1.6184 H         1 RSY         0.0315
     79 H35         7.6688    9.2524   -1.0736 H         1 RSY         0.0298
     80 H36         6.8462    7.4565    0.4049 H         1 RSY         0.0232
     81 H37         8.1918    6.3977   -0.1383 H         1 RSY         0.0232
     82 H38         6.9421    6.9352   -1.3114 H         1 RSY         0.0232
     83 H39         9.6969    9.8635    0.2471 H         1 RSY         0.0232
     84 H40         9.7609    8.1863    0.8870 H         1 RSY         0.0232
     85 H41         8.3586    9.2412    1.2711 H         1 RSY         0.0232
     86 H42         9.9911    6.4276   -5.6112 H         1 RSY         0.1815
     87 H43         8.6439    6.2347   -4.5399 H         1 RSY         0.1815
@<TRIPOS>BOND
     1    4    1 1  
     2    1    6 ar 
     3    1    8 ar 
     4    2    3 ar 
     5    8    2 ar 
     6    5    3 ar 
     7    4    7 2  
     8    9    4 am 
     9    6    5 ar 
    10   10    9 1  
    11   10   11 1  
    12   14   10 1  
    13   11   12 1  
    14   11   13 1  
    15   14   15 2  
    16   16   14 am 
    17   17   16 1  
    18   17   18 1  
    19   25   17 1  
    20   18   19 1  
    21   19   20 ar 
    22   19   21 ar 
    23   20   22 ar 
    24   21   23 ar 
    25   22   24 ar 
    26   23   24 ar 
    27   25   26 1  
    28   27   25 1  
    29   28   27 1  
    30   28   29 2  
    31   31   28 am 
    32   30   32 2  
    33   34   30 1  
    34   30   36 am 
    35   34   31 1  
    36   35   33 1  
    37   34   35 1  
    38   36   37 1  
    39   37   38 1  
    40   37   40 1  
    41   38   39 2  
    42   38   44 am 
    43   40   41 1  
    44   41   42 1  
    45   41   43 1  
    46    2   45 1  
    47    3   46 1  
    48    5   47 1  
    49    6   48 1  
    50    9   49 1  
    51   10   50 1  
    52   11   51 1  
    53   12   52 1  
    54   12   53 1  
    55   12   54 1  
    56   13   55 1  
    57   13   56 1  
    58   13   57 1  
    59   16   58 1  
    60   17   59 1  
    61   18   60 1  
    62   18   61 1  
    63   20   62 1  
    64   21   63 1  
    65   22   64 1  
    66   23   65 1  
    67   24   66 1  
    68   25   67 1  
    69   26   68 1  
    70   27   69 1  
    71   27   70 1  
    72   31   71 1  
    73   34   72 1  
    74   35   73 1  
    75   35   74 1  
    76   36   75 1  
    77   37   76 1  
    78   40   77 1  
    79   40   78 1  
    80   41   79 1  
    81   42   80 1  
    82   42   81 1  
    83   42   82 1  
    84   43   83 1  
    85   43   84 1  
    86   43   85 1  
    87   44   86 1  
    88   44   87 1  
@<TRIPOS>SUBSTRUCTURE
     1 RSY         1

