### 
### Created by X-TOOL on Fri Sep 26 17:34:56 2014
### 

@<TRIPOS>MOLECULE
3r0y_ligand
   87    89     1     0     0
SMALL
GAST_HUCK


@<TRIPOS>ATOM
      1 C10        13.5230   12.9340   -0.5410 C.ar      1 RSZ         0.1226
      2 C06        11.9100   11.5890    0.5610 C.ar      1 RSZ         0.0170
      3 C07        11.9370   12.4400    1.6820 C.ar      1 RSZ        -0.0295
      4 C12        14.3920   13.2680   -1.7320 C.2       1 RSZ         0.2262
      5 C08        12.7780   13.5640    1.6890 C.ar      1 RSZ        -0.0365
      6 C09        13.5690   13.8150    0.5610 C.ar      1 RSZ        -0.0138
      7 O40        14.5380   14.4550   -1.9670 O.2       1 RSZ        -0.3787
      8 N05        12.6820   11.8510   -0.5200 N.ar      1 RSZ        -0.2760
      9 N01        15.0270   12.4460   -2.5680 N.am      1 RSZ        -0.2626
     10 C15        15.2160   11.0030   -2.7530 C.3       1 RSZ         0.1329
     11 C16        15.4660   10.1860   -1.4900 C.2       1 RSZ         0.2024
     12 O41        14.6490   10.2550   -0.5780 O.2       1 RSZ        -0.3945
     13 C17        16.3560   11.2320   -3.7760 C.3       1 RSZ        -0.0063
     14 C18        15.9090   10.8330   -5.2220 C.3       1 RSZ        -0.0584
     15 C19        17.7600   10.6070   -3.4790 C.3       1 RSZ        -0.0584
     16 N02        16.5480    9.3840   -1.4220 N.am      1 RSZ        -0.2774
     17 C22        17.0350    8.4880   -0.3460 C.3       1 RSZ         0.0795
     18 C24        17.3010    9.1920    1.0090 C.3       1 RSZ         0.0065
     19 C25        17.2970   10.7190    0.9940 C.ar      1 RSZ        -0.0408
     20 C11        16.3830   11.3950    1.8250 C.ar      1 RSZ        -0.0603
     21 C21        18.1900   11.4540    0.1850 C.ar      1 RSZ        -0.0603
     22 C13        16.3540   12.8020    1.8410 C.ar      1 RSZ        -0.0686
     23 C20        18.1550   12.8620    0.2000 C.ar      1 RSZ        -0.0686
     24 C14        17.2380   13.5360    1.0290 C.ar      1 RSZ        -0.0687
     25 C23        16.0800    7.2870   -0.2480 C.3       1 RSZ         0.0965
     26 O42        16.8790    6.1400    0.0950 O.3       1 RSZ        -0.3870
     27 C26        14.8910    7.4340    0.7230 C.3       1 RSZ         0.0657
     28 C28        14.1370    6.1230    0.8960 C.2       1 RSZ         0.1809
     29 O43        14.7610    5.1190    1.1970 O.2       1 RSZ        -0.3968
     30 N04        12.8080    6.0380    0.7210 N.am      1 RSZ        -0.2638
     31 C31        11.8410    7.0870    0.3770 C.3       1 RSZ         0.1402
     32 C32        11.2680    6.8260   -0.9880 C.2       1 RSZ         0.2037
     33 O44        10.0860    6.5570   -1.1350 O.2       1 RSZ        -0.3943
     34 C33        10.7640    6.9810    1.4700 C.3       1 RSZ         0.0214
     35 C34        11.4320    6.7480    2.8140 C.ar      1 RSZ        -0.0386
     36 C27        11.8420    5.4320    3.1790 C.ar      1 RSZ        -0.0601
     37 C36        11.6550    7.8420    3.6730 C.ar      1 RSZ        -0.0601
     38 C29        12.4790    5.2110    4.3970 C.ar      1 RSZ        -0.0686
     39 C35        12.2860    7.6190    4.8990 C.ar      1 RSZ        -0.0686
     40 C30        12.6920    6.3080    5.2600 C.ar      1 RSZ        -0.0687
     41 N03        12.2000    6.9170   -1.9400 N.am      1 RSZ        -0.2849
     42 C37        12.3390    6.7750   -3.4130 C.3       1 RSZ         0.0307
     43 C38        10.9900    6.0690   -4.2770 C.3       1 RSZ        -0.0356
     44 C39         9.8030    5.4480   -5.0370 C.3       1 RSZ        -0.0635
     45 H1         11.2660   10.7170    0.5632 H         1 RSZ         0.0842
     46 H2         11.3087   12.2275    2.5394 H         1 RSZ         0.0744
     47 H3         12.8143   14.2232    2.5488 H         1 RSZ         0.0749
     48 H4         14.2157   14.6846    0.5341 H         1 RSZ         0.0764
     49 H5         15.5152   12.9619   -3.2719 H         1 RSZ         0.1880
     50 H6         14.3451   10.5437   -3.2435 H         1 RSZ         0.0802
     51 H7         16.5174   12.3201   -3.7825 H         1 RSZ         0.0343
     52 H8         16.7385   11.0068   -5.9232 H         1 RSZ         0.0234
     53 H9         15.0434   11.4429   -5.5196 H         1 RSZ         0.0234
     54 H10        15.6311    9.7688   -5.2394 H         1 RSZ         0.0234
     55 H11        18.0777   10.8852   -2.4633 H         1 RSZ         0.0234
     56 H12        18.4914   10.9851   -4.2084 H         1 RSZ         0.0234
     57 H13        17.6975    9.5115   -3.5564 H         1 RSZ         0.0234
     58 H14        17.1223    9.3957   -2.2406 H         1 RSZ         0.1857
     59 H15        18.0091    8.0967   -0.6747 H         1 RSZ         0.0606
     60 H16        18.2873    8.8636    1.3686 H         1 RSZ         0.0449
     61 H17        16.5248    8.8624    1.7153 H         1 RSZ         0.0449
     62 H18        15.7017   10.8317    2.4524 H         1 RSZ         0.0557
     63 H19        18.9019   10.9355   -0.4471 H         1 RSZ         0.0557
     64 H20        15.6491   13.3212    2.4802 H         1 RSZ         0.0599
     65 H21        18.8347   13.4272   -0.4273 H         1 RSZ         0.0599
     66 H22        17.2131   14.6196    1.0416 H         1 RSZ         0.0559
     67 H23        15.6514    7.1268   -1.2483 H         1 RSZ         0.0643
     68 H24        16.3197    5.3752    0.1645 H         1 RSZ         0.2101
     69 H25        14.1998    8.1927    0.3273 H         1 RSZ         0.0529
     70 H26        15.2699    7.7588    1.7033 H         1 RSZ         0.0529
     71 H27        12.4199    5.1245    0.8432 H         1 RSZ         0.1884
     72 H28        12.3141    8.0799    0.3937 H         1 RSZ         0.0823
     73 H29        10.0922    6.1400    1.2432 H         1 RSZ         0.0474
     74 H30        10.1836    7.9147    1.5054 H         1 RSZ         0.0474
     75 H31        11.6573    4.6019    2.5067 H         1 RSZ         0.0557
     76 H32        11.3422    8.8398    3.3874 H         1 RSZ         0.0557
     77 H33        12.8051    4.2160    4.6774 H         1 RSZ         0.0599
     78 H34        12.4656    8.4474    5.5747 H         1 RSZ         0.0599
     79 H35        13.1750    6.1457    6.2168 H         1 RSZ         0.0559
     80 H36        13.0821    7.1559   -1.5341 H         1 RSZ         0.1851
     81 H37        13.2205    6.1452   -3.6035 H         1 RSZ         0.0520
     82 H38        12.5092    7.7793   -3.8281 H         1 RSZ         0.0520
     83 H39        10.3549    6.0690   -3.3788 H         1 RSZ         0.0282
     84 H40        10.3549    6.0690   -5.1752 H         1 RSZ         0.0282
     85 H41         9.8941    5.6766   -6.1091 H         1 RSZ         0.0230
     86 H42         8.8615    5.8665   -4.6517 H         1 RSZ         0.0230
     87 H43         9.8056    4.3575   -4.8931 H         1 RSZ         0.0230
@<TRIPOS>BOND
     1    1    4 1  
     2    1    6 ar 
     3    8    1 ar 
     4    2    3 ar 
     5    2    8 ar 
     6    3    5 ar 
     7    4    7 2  
     8    4    9 am 
     9    5    6 ar 
    10    9   10 1  
    11   10   11 1  
    12   10   13 1  
    13   11   12 2  
    14   11   16 am 
    15   13   14 1  
    16   13   15 1  
    17   16   17 1  
    18   17   18 1  
    19   17   25 1  
    20   18   19 1  
    21   19   20 ar 
    22   19   21 ar 
    23   20   22 ar 
    24   21   23 ar 
    25   22   24 ar 
    26   23   24 ar 
    27   25   26 1  
    28   25   27 1  
    29   27   28 1  
    30   28   29 2  
    31   28   30 am 
    32   30   31 1  
    33   31   32 1  
    34   31   34 1  
    35   32   33 2  
    36   32   41 am 
    37   34   35 1  
    38   35   36 ar 
    39   35   37 ar 
    40   36   38 ar 
    41   37   39 ar 
    42   38   40 ar 
    43   39   40 ar 
    44   41   42 1  
    45   42   43 1  
    46   43   44 1  
    47    2   45 1  
    48    3   46 1  
    49    5   47 1  
    50    6   48 1  
    51    9   49 1  
    52   10   50 1  
    53   13   51 1  
    54   14   52 1  
    55   14   53 1  
    56   14   54 1  
    57   15   55 1  
    58   15   56 1  
    59   15   57 1  
    60   16   58 1  
    61   17   59 1  
    62   18   60 1  
    63   18   61 1  
    64   20   62 1  
    65   21   63 1  
    66   22   64 1  
    67   23   65 1  
    68   24   66 1  
    69   25   67 1  
    70   26   68 1  
    71   27   69 1  
    72   27   70 1  
    73   30   71 1  
    74   31   72 1  
    75   34   73 1  
    76   34   74 1  
    77   36   75 1  
    78   37   76 1  
    79   38   77 1  
    80   39   78 1  
    81   40   79 1  
    82   41   80 1  
    83   42   81 1  
    84   42   82 1  
    85   43   83 1  
    86   43   84 1  
    87   44   85 1  
    88   44   86 1  
    89   44   87 1  
@<TRIPOS>SUBSTRUCTURE
     1 RSZ         1

