### 
### Created by X-TOOL on Mon Sep 10 21:13:05 2018
### 

@<TRIPOS>MOLECULE
3r16_ligand
   31    32     1     0     0
SMALL
GAST_HUCK


@<TRIPOS>ATOM
      1 C01        16.1720    1.8950   15.7370 C.ar      1 5UN         0.0924
      2 N01        15.9350   -0.8040   16.0720 N.am      1 5UN        -0.2626
      3 O01        15.8710    0.7630   18.0610 O.2       1 5UN        -0.1524
      4 S01        15.4390    0.6100   16.6920 S.o2      1 5UN         0.0591
      5 C02        17.5360    1.8430   15.5210 C.ar      1 5UN        -0.0490
      6 O02        14.0130    0.7630   16.6330 O.2       1 5UN        -0.1524
      7 C03        18.1560    2.8290   14.7850 C.ar      1 5UN        -0.0394
      8 C04        17.4200    3.8790   14.2680 C.ar      1 5UN         0.0665
      9 C05        16.0450    3.9430   14.4860 C.ar      1 5UN        -0.0394
     10 C06        15.4150    2.9450   15.2240 C.ar      1 5UN        -0.0490
     11 N07        18.1730    4.8440   13.5260 N.am      1 5UN        -0.2321
     12 C08        17.6640    6.0070   12.8750 C.2       1 5UN         0.2171
     13 O08        16.4860    6.3110   12.9030 O.2       1 5UN        -0.3815
     14 C09        18.6490    6.8720   12.1620 C.3       1 5UN         0.0876
     15 C10        19.2120    7.9640   13.0000 C.2       1 5UN         0.0312
     16 C11        19.2110    9.3260   12.7200 C.2       1 5UN        -0.0791
     17 C12        19.7880   10.1280   13.6920 C.2       1 5UN        -0.0924
     18 C13        20.2930    9.4580   14.7980 C.2       1 5UN        -0.0189
     19 S14        19.9730    7.7930   14.5320 S.3       1 5UN        -0.0419
     20 H1         15.6260   -1.6639   16.4782 H         1 5UN         0.1633
     21 H2         16.5499   -0.8160   15.2834 H         1 5UN         0.1633
     22 H3         18.1185    1.0259   15.9309 H         1 5UN         0.0596
     23 H4         19.2248    2.7813   14.6106 H         1 5UN         0.0503
     24 H5         15.4681    4.7671   14.0822 H         1 5UN         0.0503
     25 H6         14.3457    2.9849   15.3976 H         1 5UN         0.0596
     26 H7         19.1581    4.6867   13.4567 H         1 5UN         0.2258
     27 H8         18.1472    7.3253   11.2944 H         1 5UN         0.0690
     28 H9         19.4790    6.2385   11.8159 H         1 5UN         0.0690
     29 H10        18.7874    9.7332   11.8031 H         1 5UN         0.0284
     30 H11        19.8416   11.2113   13.5946 H         1 5UN         0.0373
     31 H12        20.7913    9.8995   15.6598 H         1 5UN         0.0603
@<TRIPOS>BOND
     1    1    4 1  
     2    1    5 ar 
     3    1   10 ar 
     4    4    2 am 
     5    4    3 2  
     6    4    6 2  
     7    5    7 ar 
     8    7    8 ar 
     9    8    9 ar 
    10    8   11 1  
    11    9   10 ar 
    12   11   12 am 
    13   12   13 2  
    14   12   14 1  
    15   14   15 1  
    16   15   16 2  
    17   15   19 1  
    18   16   17 1  
    19   17   18 2  
    20   18   19 1  
    21    2   20 1  
    22    2   21 1  
    23    5   22 1  
    24    7   23 1  
    25    9   24 1  
    26   10   25 1  
    27   11   26 1  
    28   14   27 1  
    29   14   28 1  
    30   16   29 1  
    31   17   30 1  
    32   18   31 1  
@<TRIPOS>SUBSTRUCTURE
     1 5UN         1

