### 
### Created by X-TOOL on Mon Sep 10 21:13:05 2018
### 

@<TRIPOS>MOLECULE
3r17_ligand
   31    32     1     0     0
SMALL
GAST_HUCK


@<TRIPOS>ATOM
      1 C01        16.0140    2.0450   15.7920 C.ar      1 5UM         0.0907
      2 F01        14.8980    5.1530   14.3660 F         1 5UM        -0.1937
      3 N01        15.8390   -0.7040   16.1370 N.am      1 5UM        -0.2626
      4 O01        15.7850    0.8270   18.0890 O.2       1 5UM        -0.1525
      5 S01        15.3160    0.7160   16.7340 S.o2      1 5UM         0.0582
      6 C02        15.1790    3.0880   15.4280 C.ar      1 5UM        -0.0152
      7 O02        13.8810    0.8000   16.7290 O.2       1 5UM        -0.1525
      8 C03        15.6950    4.1430   14.7010 C.ar      1 5UM         0.1533
      9 C04        17.0250    4.1580   14.3310 C.ar      1 5UM         0.1004
     10 C05        17.8670    3.1140   14.6870 C.ar      1 5UM        -0.0408
     11 C06        17.3550    2.0610   15.4310 C.ar      1 5UM        -0.0530
     12 N07        17.4860    5.2730   13.5690 N.am      1 5UM        -0.2314
     13 C08        18.8510    5.6800   13.4880 C.2       1 5UM         0.2162
     14 O08        19.7380    5.0880   14.0770 O.2       1 5UM        -0.3819
     15 C09        19.1620    6.8700   12.6580 C.3       1 5UM         0.0875
     16 C10        20.0610    7.8250   13.3260 C.2       1 5UM         0.0312
     17 C11        21.2760    8.3030   12.8710 C.2       1 5UM        -0.0791
     18 C12        21.9110    9.1880   13.7300 C.2       1 5UM        -0.0924
     19 C13        21.2460    9.4630   14.9120 C.2       1 5UM        -0.0189
     20 S14        19.8070    8.5390   14.8600 S.3       1 5UM        -0.0419
     21 H1         15.5397   -1.5623   16.5539 H         1 5UM         0.1633
     22 H2         16.4598   -0.7186   15.3531 H         1 5UM         0.1633
     23 H3         14.1325    3.0766   15.7104 H         1 5UM         0.0581
     24 H4         18.9090    3.1212   14.3883 H         1 5UM         0.0490
     25 H5         18.0045    1.2470   15.7320 H         1 5UM         0.0563
     26 H6         16.8087    5.8032   13.0590 H         1 5UM         0.2247
     27 H7         18.2200    7.3853   12.4191 H         1 5UM         0.0690
     28 H8         19.6410    6.5315   11.7274 H         1 5UM         0.0690
     29 H9         21.7013    8.0077   11.9130 H         1 5UM         0.0284
     30 H10        22.8729    9.6383   13.4892 H         1 5UM         0.0373
     31 H11        21.5711   10.1293   15.7097 H         1 5UM         0.0603
@<TRIPOS>BOND
     1    1    5 1  
     2    6    1 ar 
     3    1   11 ar 
     4    8    2 1  
     5    5    3 am 
     6    5    4 2  
     7    5    7 2  
     8    6    8 ar 
     9    8    9 ar 
    10    9   10 ar 
    11    9   12 1  
    12   10   11 ar 
    13   12   13 am 
    14   13   14 2  
    15   13   15 1  
    16   15   16 1  
    17   16   17 2  
    18   16   20 1  
    19   17   18 1  
    20   18   19 2  
    21   19   20 1  
    22    3   21 1  
    23    3   22 1  
    24    6   23 1  
    25   10   24 1  
    26   11   25 1  
    27   12   26 1  
    28   15   27 1  
    29   15   28 1  
    30   17   29 1  
    31   18   30 1  
    32   19   31 1  
@<TRIPOS>SUBSTRUCTURE
     1 5UM         1

