### 
### Created by X-TOOL on Mon Sep 10 21:13:08 2018
### 

@<TRIPOS>MOLECULE
3r1v_ligand
   34    35     1     0     0
SMALL
GAST_HUCK


@<TRIPOS>ATOM
      1 C1          0.9940   -5.4080   13.8280 C.3       1 AZB        -0.0520
      2 N1          6.5190   -4.8930   17.2430 N.2       1 AZB        -0.1870
      3 O1         11.8140   -4.7130   20.9100 O.3       1 AZB        -0.3284
      4 N2          6.7490   -4.2830   18.3640 N.2       1 AZB        -0.1874
      5 C3          2.3440   -3.6600   12.5510 C.3       1 AZB        -0.0520
      6 C4          8.9690   -5.4980   18.7280 C.ar      1 AZB        -0.0398
      7 C5         10.2540   -5.5820   19.4070 C.ar      1 AZB        -0.0252
      8 C6         10.6400   -4.6420   20.3010 C.ar      1 AZB         0.0948
      9 C7          9.7500   -3.6380   20.5270 C.ar      1 AZB        -0.0252
     10 C8          8.4340   -3.5640   19.8270 C.ar      1 AZB        -0.0398
     11 C9          8.0430   -4.4920   18.9390 C.ar      1 AZB         0.0669
     12 C11         3.2380   -3.6980   15.9130 C.ar      1 AZB        -0.0534
     13 C12         4.3510   -3.8290   16.7840 C.ar      1 AZB        -0.0393
     14 C13         5.4400   -4.7520   16.4410 C.ar      1 AZB         0.0684
     15 C14         5.3690   -5.5310   15.2300 C.ar      1 AZB        -0.0393
     16 C15         4.1980   -5.3760   14.3300 C.ar      1 AZB        -0.0534
     17 C16         3.1530   -4.4530   14.7080 C.ar      1 AZB        -0.0355
     18 C17         1.9400   -4.2390   13.8600 C.3       1 AZB        -0.0107
     19 H1          0.1347   -5.1668   13.1850 H         1 AZB         0.0256
     20 H2          0.6405   -5.6217   14.8475 H         1 AZB         0.0256
     21 H3          1.5149   -6.2904   13.4280 H         1 AZB         0.0256
     22 H4         11.9101   -3.9725   21.4973 H         1 AZB         0.2510
     23 H5          3.0321   -2.8184   12.7191 H         1 AZB         0.0256
     24 H6          1.4513   -3.3026   12.0169 H         1 AZB         0.0256
     25 H7          2.8475   -4.4307   11.9489 H         1 AZB         0.0256
     26 H8          8.7220   -6.2730   18.0115 H         1 AZB         0.0648
     27 H9         10.9149   -6.4140   19.1923 H         1 AZB         0.0563
     28 H10        10.0060   -2.8639   21.2413 H         1 AZB         0.0563
     29 H11         7.7718   -2.7333   20.0427 H         1 AZB         0.0648
     30 H12         2.4390   -3.0117   16.1691 H         1 AZB         0.0572
     31 H13         4.3968   -3.2497   17.6991 H         1 AZB         0.0652
     32 H14         6.1637   -6.2240   14.9785 H         1 AZB         0.0652
     33 H15         4.1288   -5.9434   13.4090 H         1 AZB         0.0572
     34 H16         1.3672   -3.4436   14.3591 H         1 AZB         0.0468
@<TRIPOS>BOND
     1   18    1 1  
     2    2    4 2  
     3   14    2 1  
     4    8    3 1  
     5    4   11 1  
     6   18    5 1  
     7    6    7 ar 
     8   11    6 ar 
     9    7    8 ar 
    10    9    8 ar 
    11   10    9 ar 
    12   11   10 ar 
    13   12   13 ar 
    14   17   12 ar 
    15   13   14 ar 
    16   15   14 ar 
    17   16   15 ar 
    18   17   16 ar 
    19   17   18 1  
    20    1   19 1  
    21    1   20 1  
    22    1   21 1  
    23    3   22 1  
    24    5   23 1  
    25    5   24 1  
    26    5   25 1  
    27    6   26 1  
    28    7   27 1  
    29    9   28 1  
    30   10   29 1  
    31   12   30 1  
    32   13   31 1  
    33   15   32 1  
    34   16   33 1  
    35   18   34 1  
@<TRIPOS>SUBSTRUCTURE
     1 AZB         1

