### 
### Created by X-TOOL on Mon Sep 10 21:13:08 2018
### 

@<TRIPOS>MOLECULE
3r21_ligand
   60    63     1     0     0
SMALL
GAST_HUCK


@<TRIPOS>ATOM
      1 S           3.8050   34.6550    0.4860 S.o2      1 D36         0.0609
      2 C1          3.1210   35.8630   -0.4390 C.3       1 D36         0.0792
      3 N1          2.7750   33.7570    1.1990 N.am      1 D36        -0.1618
      4 O1          4.7240   35.3070    1.4110 O.2       1 D36        -0.1497
      5 C2          1.6330   33.1370    0.4900 C.3       1 D36         0.0967
      6 N2          1.5950   31.3110   -1.2840 N.4       1 D36         0.2201
      7 O2          4.6400   33.8240   -0.3130 O.2       1 D36        -0.1497
      8 C3          2.0710   31.7210    0.0600 C.3       1 D36        -0.0115
      9 N3          3.2960   32.9040    6.6580 N.pl3     1 D36        -0.2468
     10 C4          2.9740   33.4980    2.5600 C.ar      1 D36         0.1255
     11 N4          4.7670   31.0750    6.8340 N.ar      1 D36        -0.2366
     12 C5          3.9980   32.6040    3.0260 C.ar      1 D36        -0.0249
     13 N5          6.2870   29.1630    7.2700 N.pl3     1 D36        -0.1805
     14 C6          4.1550   32.3740    4.4130 C.ar      1 D36        -0.0327
     15 N6          6.7390   28.5080    8.4310 N.2       1 D36        -0.1999
     16 C7          3.2720   33.0160    5.3020 C.ar      1 D36         0.0756
     17 N7          3.8090   31.9770    8.7910 N.ar      1 D36        -0.2577
     18 C8          3.9570   31.9880    7.4270 C.ar      1 D36         0.1974
     19 N8          2.1660   34.1140    3.4460 N.ar      1 D36        -0.3005
     20 C9          5.4310   30.1550    7.5460 C.ar      1 D36         0.1602
     21 C10         6.8790   28.6170    6.0170 C.3       1 D36         0.0804
     22 C11         7.9140   29.6720    5.5530 C.3       1 D36        -0.0218
     23 C12         7.7600   30.2560    4.1360 C.3       1 D36        -0.0503
     24 C13         8.0730   29.2710    3.0030 C.3       1 D36        -0.0530
     25 C14         6.7480   28.5410    2.6890 C.3       1 D36        -0.0530
     26 C15         6.3550   27.5440    3.8110 C.3       1 D36        -0.0503
     27 C16         5.7660   28.2610    5.0200 C.3       1 D36        -0.0218
     28 C17         6.1200   29.0930    9.4840 C.2       1 D36         0.0283
     29 C18         5.3090   30.1340    8.9000 C.ar      1 D36         0.0494
     30 C19         4.4690   31.0760    9.5290 C.ar      1 D36         0.0176
     31 C20         2.2920   33.8700    4.7730 C.ar      1 D36         0.0138
     32 H           2.5903   36.5595    0.2101 H         1 D36         0.0488
     33 H           3.9052   36.3934   -0.9792 H         1 D36         0.0488
     34 H           2.4221   35.4227   -1.1502 H         1 D36         0.0488
     35 H           1.3549   33.7317   -0.3801 H         1 D36         0.0611
     36 H           0.7608   33.0858    1.1417 H         1 D36         0.0611
     37 H           1.9272   30.3684   -1.4881 H         1 D36         0.1995
     38 H           0.5752   31.3245   -1.3010 H         1 D36         0.1995
     39 H           1.9565   31.9591   -1.9837 H         1 D36         0.1995
     40 H           1.6406   31.0224    0.7775 H         1 D36         0.0835
     41 H           3.1605   31.7207    0.0262 H         1 D36         0.0835
     42 H           2.7475   33.5961    7.1684 H         1 D36         0.2155
     43 H           4.6526   32.1040    2.3121 H         1 D36         0.0556
     44 H           4.9405   31.7158    4.7844 H         1 D36         0.0618
     45 H           7.4054   27.6707    6.1415 H         1 D36         0.0656
     46 H           8.8742   29.1561    5.5518 H         1 D36         0.0295
     47 H           7.7911   30.5170    6.2304 H         1 D36         0.0295
     48 H           8.4725   31.0765    4.0506 H         1 D36         0.0266
     49 H           6.7161   30.5489    4.0240 H         1 D36         0.0266
     50 H           8.8499   28.5659    3.2985 H         1 D36         0.0265
     51 H           8.4533   29.7910    2.1238 H         1 D36         0.0265
     52 H           6.8787   27.9795    1.7639 H         1 D36         0.0265
     53 H           5.9587   29.2879    2.6043 H         1 D36         0.0265
     54 H           7.2524   27.0136    4.1294 H         1 D36         0.0266
     55 H           5.6027   26.8612    3.4161 H         1 D36         0.0266
     56 H           5.2761   29.1767    4.6890 H         1 D36         0.0295
     57 H           5.0449   27.6055    5.5082 H         1 D36         0.0295
     58 H           6.2136   28.8348   10.5388 H         1 D36         0.0735
     59 H           4.3574   31.0705   10.6133 H         1 D36         0.0923
     60 H           1.6014   34.3588    5.4602 H         1 D36         0.0683
@<TRIPOS>BOND
     1    1    2 1  
     2    3    1 am 
     3    1    4 2  
     4    1    7 2  
     5    3    5 1  
     6   10    3 1  
     7    5    8 1  
     8    8    6 1  
     9   16    9 1  
    10    9   18 1  
    11   12   10 ar 
    12   10   19 ar 
    13   18   11 ar 
    14   11   20 ar 
    15   14   12 ar 
    16   13   15 1  
    17   20   13 1  
    18   13   21 1  
    19   14   16 ar 
    20   15   28 2  
    21   16   31 ar 
    22   18   17 ar 
    23   17   30 ar 
    24   19   31 ar 
    25   20   29 ar 
    26   21   22 1  
    27   21   27 1  
    28   22   23 1  
    29   23   24 1  
    30   24   25 1  
    31   25   26 1  
    32   26   27 1  
    33   28   29 1  
    34   29   30 ar 
    35    2   32 1  
    36    2   33 1  
    37    2   34 1  
    38    5   35 1  
    39    5   36 1  
    40    6   37 1  
    41    6   38 1  
    42    6   39 1  
    43    8   40 1  
    44    8   41 1  
    45    9   42 1  
    46   12   43 1  
    47   14   44 1  
    48   21   45 1  
    49   22   46 1  
    50   22   47 1  
    51   23   48 1  
    52   23   49 1  
    53   24   50 1  
    54   24   51 1  
    55   25   52 1  
    56   25   53 1  
    57   26   54 1  
    58   26   55 1  
    59   27   56 1  
    60   27   57 1  
    61   28   58 1  
    62   30   59 1  
    63   31   60 1  
@<TRIPOS>SUBSTRUCTURE
     1 D36         1

