### 
### Created by X-TOOL on Mon Sep 10 21:13:08 2018
### 

@<TRIPOS>MOLECULE
3r22_ligand
   51    54     1     0     0
SMALL
GAST_HUCK


@<TRIPOS>ATOM
      1 N1         -2.4140  -34.0080    1.9930 N.am      1 D37        -0.1804
      2 N3         -4.3690  -30.5460    7.0330 N.ar      1 D37        -0.2366
      3 C4         -3.9010  -32.5380    5.0170 C.ar      1 D37        -0.0327
      4 C5         -2.8240  -32.6810    5.8740 C.ar      1 D37         0.0756
      5 C6         -3.6650  -31.4120    7.7730 C.ar      1 D37         0.1974
      6 C7         -5.1870  -29.6610    7.6480 C.ar      1 D37         0.1602
      7 C8         -6.3870  -28.1910    5.8860 C.3       1 D37         0.0804
      8 C10        -7.2240  -29.5730    3.8440 C.3       1 D37        -0.0503
      9 C13        -5.4090  -27.0920    3.8490 C.3       1 D37        -0.0503
     10 C15        -6.2030  -28.6230    9.4640 C.2       1 D37         0.0283
     11 C17        -4.5590  -30.5200    9.7840 C.ar      1 D37         0.0176
     12 O2         -4.7290  -33.4170    1.1380 O.2       1 D37        -0.1499
     13 S          -3.3540  -33.6170    0.7430 S.o2      1 D37         0.0584
     14 O1         -3.3450  -34.7190   -0.1920 O.2       1 D37        -0.1499
     15 C1         -2.7430  -32.2310    0.0410 C.3       1 D37         0.0790
     16 C2         -2.5780  -33.5600    3.2580 C.ar      1 D37         0.1224
     17 N7         -1.5530  -33.7020    4.1200 N.ar      1 D37        -0.3007
     18 C18        -1.6610  -33.2780    5.3870 C.ar      1 D37         0.0138
     19 C3         -3.7730  -32.9770    3.7000 C.ar      1 D37        -0.0252
     20 N2         -2.8470  -32.2980    7.1730 N.pl3     1 D37        -0.2468
     21 N6         -3.7640  -31.3850    9.1310 N.ar      1 D37        -0.2577
     22 C16        -5.2950  -29.6280    9.0220 C.ar      1 D37         0.0494
     23 N5         -6.6400  -28.0590    8.3030 N.2       1 D37        -0.1999
     24 N4         -6.0070  -28.7000    7.2240 N.pl3     1 D37        -0.1805
     25 C14        -5.1390  -28.0140    5.0280 C.3       1 D37        -0.0218
     26 C12        -5.9150  -27.8630    2.6370 C.3       1 D37        -0.0530
     27 C11        -7.3140  -28.3950    2.8950 C.3       1 D37        -0.0530
     28 C9         -7.4120  -29.1740    5.3100 C.3       1 D37        -0.0218
     29 H          -1.6353  -34.6425    1.8158 H         1 D37         0.2182
     30 H          -4.8320  -32.0905    5.3651 H         1 D37         0.0618
     31 H          -6.8483  -27.2042    5.9259 H         1 D37         0.0656
     32 H          -6.2292  -30.0067    3.7423 H         1 D37         0.0266
     33 H          -8.0202  -30.2707    3.5845 H         1 D37         0.0266
     34 H          -4.4758  -26.5985    3.5776 H         1 D37         0.0266
     35 H          -6.1736  -26.3729    4.1429 H         1 D37         0.0266
     36 H          -6.4815  -28.3666   10.4862 H         1 D37         0.0735
     37 H          -4.6220  -30.5206   10.8722 H         1 D37         0.0923
     38 H          -3.3335  -31.9810   -0.8404 H         1 D37         0.0488
     39 H          -2.7916  -31.4107    0.7572 H         1 D37         0.0488
     40 H          -1.7063  -32.3995   -0.2505 H         1 D37         0.0488
     41 H          -0.8121  -33.4038    6.0590 H         1 D37         0.0683
     42 H          -4.6087  -32.8659    3.0091 H         1 D37         0.0556
     43 H          -2.1530  -32.7389    7.7767 H         1 D37         0.2155
     44 H          -4.8384  -28.9894    4.6454 H         1 D37         0.0295
     45 H          -4.3540  -27.5729    5.6422 H         1 D37         0.0295
     46 H          -5.2459  -28.7017    2.4448 H         1 D37         0.0265
     47 H          -5.9423  -27.1943    1.7766 H         1 D37         0.0265
     48 H          -7.9302  -27.6120    3.3370 H         1 D37         0.0265
     49 H          -7.7665  -28.7124    1.9556 H         1 D37         0.0265
     50 H          -8.3775  -28.6712    5.3652 H         1 D37         0.0295
     51 H          -7.3093  -30.0919    5.8889 H         1 D37         0.0295
@<TRIPOS>BOND
     1    1   13 am 
     2   16    1 1  
     3    5    2 ar 
     4    2    6 ar 
     5    3    4 ar 
     6   19    3 ar 
     7    4   18 ar 
     8    4   20 1  
     9   20    5 1  
    10    5   21 ar 
    11    6   22 ar 
    12    6   24 1  
    13   24    7 1  
    14    7   25 1  
    15    7   28 1  
    16    8   27 1  
    17   28    8 1  
    18   25    9 1  
    19    9   26 1  
    20   22   10 1  
    21   10   23 2  
    22   21   11 ar 
    23   11   22 ar 
    24   13   12 2  
    25   13   14 2  
    26   13   15 1  
    27   16   17 ar 
    28   16   19 ar 
    29   17   18 ar 
    30   23   24 1  
    31   26   27 1  
    32    1   29 1  
    33    3   30 1  
    34    7   31 1  
    35    8   32 1  
    36    8   33 1  
    37    9   34 1  
    38    9   35 1  
    39   10   36 1  
    40   11   37 1  
    41   15   38 1  
    42   15   39 1  
    43   15   40 1  
    44   18   41 1  
    45   19   42 1  
    46   20   43 1  
    47   25   44 1  
    48   25   45 1  
    49   26   46 1  
    50   26   47 1  
    51   27   48 1  
    52   27   49 1  
    53   28   50 1  
    54   28   51 1  
@<TRIPOS>SUBSTRUCTURE
     1 D37         1

