### 
### Created by X-TOOL on Mon Sep 10 21:13:06 2018
### 

@<TRIPOS>MOLECULE
3r24_ligand
   50    52     1     0     0
SMALL
GAST_HUCK


@<TRIPOS>ATOM
      1 N          60.5760   61.6140   68.5260 N.4       1 SAM         0.2328
      2 CA         60.2890   60.3340   67.8830 C.3       1 SAM         0.0327
      3 C          61.4520   59.3590   68.0280 C.2       1 SAM         0.0846
      4 O          61.6820   58.5050   67.1670 O.co2     1 SAM        -0.5643
      5 OXT        62.1820   59.4090   69.0250 O.co2     1 SAM        -0.5643
      6 CB         59.8590   60.5350   66.4260 C.3       1 SAM         0.0473
      7 CG         58.8950   61.7100   66.2740 C.3       1 SAM         0.1163
      8 SD         57.9890   61.7250   64.7020 S.3       1 SAM        -0.0103
      9 CE         59.1970   62.5990   63.6870 C.3       1 SAM         0.0995
     10 C5'        56.7340   63.0110   64.9610 C.3       1 SAM         0.1381
     11 C4'        55.6910   62.6000   65.9960 C.3       1 SAM         0.1350
     12 O4'        54.8970   63.7130   66.3820 O.3       1 SAM        -0.3344
     13 C3'        54.7360   61.5410   65.4540 C.3       1 SAM         0.1168
     14 O3'        54.7940   60.3900   66.2710 O.3       1 SAM        -0.3863
     15 C2'        53.3630   62.1850   65.5400 C.3       1 SAM         0.1386
     16 O2'        52.3590   61.2840   65.9370 O.3       1 SAM        -0.3836
     17 C1'        53.5700   63.2630   66.5890 C.3       1 SAM         0.2011
     18 N9         52.5390   64.3300   66.5250 N.pl3     1 SAM        -0.1919
     19 C8         52.2120   65.1520   65.4740 C.2       1 SAM         0.1123
     20 N7         51.2100   65.9840   65.8680 N.2       1 SAM        -0.2958
     21 C5         50.8870   65.6990   67.1490 C.ar      1 SAM         0.1045
     22 C6         49.9490   66.2240   68.0330 C.ar      1 SAM         0.1298
     23 N6         49.1320   67.2080   67.6680 N.pl3     1 SAM        -0.3152
     24 N1         49.8630   65.7120   69.3060 N.ar      1 SAM        -0.2698
     25 C2         50.6940   64.6940   69.7070 C.ar      1 SAM         0.0533
     26 N3         51.6210   64.1760   68.8250 N.ar      1 SAM        -0.2714
     27 C4         51.7190   64.6680   67.5710 C.ar      1 SAM         0.1613
     28 H1         59.7881   62.2320   68.4108 H         1 SAM         0.2010
     29 H2         61.3919   62.0274   68.1024 H         1 SAM         0.2010
     30 H3         60.7459   61.4659   69.5085 H         1 SAM         0.2010
     31 H4         59.4329   59.8894   68.4115 H         1 SAM         0.1026
     32 H5         59.3624   59.6195   66.0721 H         1 SAM         0.0385
     33 H6         60.7530   60.7270   65.8145 H         1 SAM         0.0385
     34 H7         59.4728   62.6430   66.3487 H         1 SAM         0.0843
     35 H8         58.1633   61.6651   67.0941 H         1 SAM         0.0843
     36 H9         58.8077   62.7054   62.6637 H         1 SAM         0.0803
     37 H10        60.1376   62.0291   63.6640 H         1 SAM         0.0803
     38 H11        59.3824   63.5956   64.1142 H         1 SAM         0.0803
     39 H12        56.2260   63.2076   64.0053 H         1 SAM         0.0867
     40 H13        57.2331   63.9283   65.3064 H         1 SAM         0.0867
     41 H14        56.2137   62.1995   66.8771 H         1 SAM         0.0671
     42 H15        54.9830   61.2776   64.4150 H         1 SAM         0.0649
     43 H16        54.5422   60.6195   67.1578 H         1 SAM         0.2100
     44 H17        53.0828   62.6266   64.5723 H         1 SAM         0.0676
     45 H18        52.5695   60.9350   66.7952 H         1 SAM         0.2101
     46 H19        53.5041   62.8088   67.5887 H         1 SAM         0.0996
     47 H20        52.6772   65.1398   64.4895 H         1 SAM         0.1349
     48 H21        48.4449   67.5821   68.3380 H         1 SAM         0.1820
     49 H22        49.1864   67.5959   66.7154 H         1 SAM         0.1820
     50 H23        50.6219   64.2985   70.7137 H         1 SAM         0.0996
@<TRIPOS>BOND
     1    1    2 1  
     2    2    3 1  
     3    2    6 1  
     4    3    4 ar 
     5    3    5 ar 
     6    6    7 1  
     7    7    8 1  
     8    8    9 1  
     9    8   10 1  
    10   10   11 1  
    11   11   12 1  
    12   11   13 1  
    13   12   17 1  
    14   13   14 1  
    15   13   15 1  
    16   15   16 1  
    17   15   17 1  
    18   17   18 1  
    19   18   19 1  
    20   18   27 1  
    21   19   20 2  
    22   20   21 1  
    23   21   22 ar 
    24   21   27 ar 
    25   22   23 1  
    26   22   24 ar 
    27   24   25 ar 
    28   25   26 ar 
    29   26   27 ar 
    30    1   28 1  
    31    1   29 1  
    32    1   30 1  
    33    2   31 1  
    34    6   32 1  
    35    6   33 1  
    36    7   34 1  
    37    7   35 1  
    38    9   36 1  
    39    9   37 1  
    40    9   38 1  
    41   10   39 1  
    42   10   40 1  
    43   11   41 1  
    44   13   42 1  
    45   14   43 1  
    46   15   44 1  
    47   16   45 1  
    48   17   46 1  
    49   19   47 1  
    50   23   48 1  
    51   23   49 1  
    52   25   50 1  
@<TRIPOS>SUBSTRUCTURE
     1 SAM         1

