### 
### Created by X-TOOL on Mon Sep 10 21:13:08 2018
### 

@<TRIPOS>MOLECULE
3r2a_ligand
   28    30     1     0     0
SMALL
GAST_HUCK


@<TRIPOS>ATOM
      1 OAA       -47.3650  -14.7690    1.6270 O.co2     1 RHN        -0.5596
      2 OAB       -49.6860   -9.3020    1.4710 O.2       1 RHN        -0.3616
      3 OAC       -52.0480  -11.7870   -2.5350 O.2       1 RHN        -0.3744
      4 OAD       -48.6020  -14.0650    3.2540 O.co2     1 RHN        -0.5596
      5 OAE       -53.0210   -9.7760   -3.3390 O.3       1 RHN        -0.3264
      6 OAF       -51.1450  -13.9260   -1.8660 O.3       1 RHN        -0.3260
      7 CAG       -51.9810   -7.0610   -1.1180 C.ar      1 RHN        -0.0602
      8 CAH       -52.6030   -7.7150   -2.1770 C.ar      1 RHN        -0.0224
      9 CAI       -51.1970   -7.7890   -0.2240 C.ar      1 RHN        -0.0491
     10 CAJ       -49.7430  -14.0350    0.0740 C.ar      1 RHN        -0.0087
     11 CAK       -49.2920  -11.9970    1.2700 C.ar      1 RHN        -0.0351
     12 CAL       -48.3360  -14.0920    2.0330 C.2       1 RHN         0.0641
     13 CAM       -49.1210  -13.3760    1.1290 C.ar      1 RHN         0.0117
     14 CAN       -52.4340   -9.0900   -2.3240 C.ar      1 RHN         0.1125
     15 CAO       -50.5250  -13.3110   -0.8230 C.ar      1 RHN         0.1156
     16 CAP       -50.2370   -9.8850    0.5350 C.2       1 RHN         0.1640
     17 CAQ       -51.4940  -11.2110   -1.5960 C.2       1 RHN         0.1581
     18 CAR       -51.0260   -9.1690   -0.3710 C.ar      1 RHN         0.0433
     19 CAS       -50.0800  -11.2670    0.3710 C.ar      1 RHN         0.0466
     20 CAT       -51.6520   -9.8310   -1.4330 C.ar      1 RHN         0.0781
     21 CAU       -50.7060  -11.9290   -0.6900 C.ar      1 RHN         0.0801
     22 H         -52.7885  -10.7050   -3.2724 H         1 RHN         0.2511
     23 H         -51.6355  -13.2755   -2.3739 H         1 RHN         0.2511
     24 H         -52.1059   -5.9860   -0.9881 H         1 RHN         0.0637
     25 H         -53.2164   -7.1571   -2.8845 H         1 RHN         0.0592
     26 H         -50.7092   -7.2737    0.6034 H         1 RHN         0.0592
     27 H         -49.6194  -15.1108   -0.0501 H         1 RHN         0.0623
     28 H         -48.8031  -11.4791    2.0951 H         1 RHN         0.0626
@<TRIPOS>BOND
     1   12    1 ar 
     2   16    2 2  
     3   17    3 2  
     4   12    4 ar 
     5   14    5 1  
     6   15    6 1  
     7    8    7 ar 
     8    7    9 ar 
     9   14    8 ar 
    10    9   18 ar 
    11   13   10 ar 
    12   10   15 ar 
    13   11   13 ar 
    14   19   11 ar 
    15   13   12 1  
    16   20   14 ar 
    17   15   21 ar 
    18   18   16 1  
    19   16   19 1  
    20   17   20 1  
    21   17   21 1  
    22   18   20 ar 
    23   19   21 ar 
    24    5   22 1  
    25    6   23 1  
    26    7   24 1  
    27    8   25 1  
    28    9   26 1  
    29   10   27 1  
    30   11   28 1  
@<TRIPOS>SUBSTRUCTURE
     1 RHN         1

