### 
### Created by X-TOOL on Mon Sep 10 21:13:08 2018
### 

@<TRIPOS>MOLECULE
3r2b_ligand
   52    57     1     0     0
SMALL
GAST_HUCK


@<TRIPOS>ATOM
      1 C1         -8.9360  -52.4700   10.6670 C.3       1 05B        -0.0177
      2 C2         -9.3090  -51.0310   11.0750 C.3       1 05B        -0.0062
      3 N3         -8.3650  -50.2770   11.8930 N.am      1 05B        -0.2976
      4 C4         -7.2270  -50.7600   12.4420 C.2       1 05B         0.2187
      5 N5        -11.0800  -53.3390    8.9350 N.4       1 05B         0.2251
      6 C6        -10.0180  -53.4570   11.1420 C.3       1 05B        -0.0492
      7 C7         -8.7610  -52.5810    9.1400 C.3       1 05B        -0.0492
      8 C8        -10.0850  -52.4310    8.3730 C.3       1 05B        -0.0465
      9 C9        -11.3340  -53.2930   10.3720 C.3       1 05B        -0.0465
     10 O10        -6.5510  -50.0820   13.1920 O.2       1 05B        -0.3750
     11 C11        -7.6380  -52.9320   11.2880 C.2       1 05B         0.0409
     12 C12        -6.8460  -52.1400   12.1170 C.2       1 05B         0.0837
     13 C13        -5.7300  -52.8980   12.4970 C.2       1 05B         0.0188
     14 C14        -5.8700  -54.1160   11.9040 C.2       1 05B         0.1418
     15 N15        -7.0360  -54.1140   11.1750 N.pl3     1 05B        -0.2514
     16 C16        -4.9530  -55.2660   12.0010 C.ar      1 05B         0.1195
     17 C17        -4.1060  -55.4410   13.1020 C.ar      1 05B         0.0076
     18 C18        -3.2780  -56.5520   13.1140 C.ar      1 05B         0.0323
     19 N19        -3.3040  -57.4130   12.1000 N.ar      1 05B        -0.2574
     20 C20        -4.1220  -57.2230   11.0640 C.ar      1 05B         0.1228
     21 N21        -4.9290  -56.1690   11.0170 N.ar      1 05B        -0.2459
     22 C22        -4.1550  -58.1840    9.9320 C.ar      1 05B         0.0036
     23 C23        -2.9940  -58.8460    9.5110 C.ar      1 05B        -0.0646
     24 C24        -3.0470  -59.7360    8.4530 C.ar      1 05B        -0.0346
     25 C25        -5.3630  -58.4280    9.2680 C.ar      1 05B        -0.0251
     26 C26        -5.4110  -59.3190    8.2110 C.ar      1 05B         0.1288
     27 C27        -4.2490  -59.9770    7.8000 C.ar      1 05B         0.1294
     28 O28        -4.5640  -60.7860    6.7460 O.3       1 05B        -0.2867
     29 C29        -5.8120  -60.2760    6.2370 C.3       1 05B         0.1883
     30 O30        -6.4440  -59.7240    7.4120 O.3       1 05B        -0.2895
     31 H         -10.2044  -51.1301   11.6886 H         1 05B         0.0351
     32 H          -9.3826  -50.4777   10.1388 H         1 05B         0.0351
     33 H          -8.5831  -49.2959   12.0668 H         1 05B         0.1832
     34 H         -10.7156  -54.2753    8.7589 H         1 05B         0.2012
     35 H         -11.9623  -53.0694    8.4999 H         1 05B         0.2012
     36 H         -10.2160  -53.2603   12.1957 H         1 05B         0.0151
     37 H          -9.6506  -54.4690   10.9719 H         1 05B         0.0151
     38 H          -8.3606  -53.5711    8.9221 H         1 05B         0.0151
     39 H          -8.0990  -51.7758    8.8216 H         1 05B         0.0151
     40 H         -10.4405  -51.4043    8.4602 H         1 05B         0.0800
     41 H          -9.9251  -52.6733    7.3224 H         1 05B         0.0800
     42 H         -12.0115  -54.1028   10.6428 H         1 05B         0.0800
     43 H         -11.7815  -52.3323   10.6268 H         1 05B         0.0800
     44 H          -4.9112  -52.5760   13.1405 H         1 05B         0.0657
     45 H          -7.3872  -54.9008   10.6291 H         1 05B         0.2458
     46 H          -4.0982  -54.7255   13.9242 H         1 05B         0.0826
     47 H          -2.6050  -56.7207   13.9546 H         1 05B         0.0941
     48 H          -2.0473  -58.6595   10.0180 H         1 05B         0.0546
     49 H          -2.1416  -60.2502    8.1306 H         1 05B         0.0527
     50 H          -6.2700  -57.9135    9.5854 H         1 05B         0.0547
     51 H          -6.4163  -61.0448    5.7554 H         1 05B         0.0976
     52 H          -5.6746  -59.5382    5.4465 H         1 05B         0.0976
@<TRIPOS>BOND
     1    1    2 1  
     2    6    1 1  
     3    1    7 1  
     4    1   11 1  
     5    2    3 1  
     6    3    4 am 
     7    4   10 2  
     8    4   12 1  
     9    5    8 1  
    10    9    5 1  
    11    6    9 1  
    12    7    8 1  
    13   11   12 2  
    14   11   15 1  
    15   12   13 1  
    16   13   14 2  
    17   14   15 1  
    18   14   16 1  
    19   16   17 ar 
    20   16   21 ar 
    21   17   18 ar 
    22   18   19 ar 
    23   19   20 ar 
    24   20   21 ar 
    25   20   22 1  
    26   22   23 ar 
    27   22   25 ar 
    28   23   24 ar 
    29   24   27 ar 
    30   25   26 ar 
    31   26   27 ar 
    32   26   30 1  
    33   27   28 1  
    34   28   29 1  
    35   29   30 1  
    36    2   31 1  
    37    2   32 1  
    38    3   33 1  
    39    5   34 1  
    40    5   35 1  
    41    6   36 1  
    42    6   37 1  
    43    7   38 1  
    44    7   39 1  
    45    8   40 1  
    46    8   41 1  
    47    9   42 1  
    48    9   43 1  
    49   13   44 1  
    50   15   45 1  
    51   17   46 1  
    52   18   47 1  
    53   23   48 1  
    54   24   49 1  
    55   25   50 1  
    56   29   51 1  
    57   29   52 1  
@<TRIPOS>SUBSTRUCTURE
     1 05B         1

