### 
### Created by X-TOOL on Mon Sep 10 21:13:08 2018
### 

@<TRIPOS>MOLECULE
3r2f_ligand
   98   101     1     0     0
SMALL
GAST_HUCK


@<TRIPOS>ATOM
      1 C1         -1.7920   16.8700   23.2250 C.ar      1 PB0        -0.0687
      2 C2         -2.3480   17.8930   23.9940 C.ar      1 PB0        -0.0686
      3 C3         -1.0820   15.8250   23.8450 C.ar      1 PB0        -0.0686
      4 C4         -2.1880   17.8570   25.3810 C.ar      1 PB0        -0.0603
      5 C5         -0.9200   15.7950   25.2350 C.ar      1 PB0        -0.0603
      6 C6         -3.7950   11.9610   31.9070 C.ar      1 PB0        -0.0310
      7 C7         -1.8750   12.0170   33.3160 C.ar      1 PB0        -0.0310
      8 C8         -2.0710   10.2990   31.6070 C.ar      1 PB0        -0.0019
      9 C9         -1.4800   16.8200   25.9940 C.ar      1 PB0        -0.0428
     10 C10        -3.1020   12.5650   32.9520 C.ar      1 PB0        -0.0445
     11 C11        -3.2870   10.8510   31.2450 C.ar      1 PB0         0.1242
     12 C12        -1.3580   10.8950   32.6460 C.ar      1 PB0         0.1242
     13 C13         0.2400   15.2190   30.2150 C.2       1 PB0         0.2292
     14 C14         2.7730   14.4240   28.6010 C.2       1 PB0         0.1722
     15 C15        -3.2670   15.4180   30.5080 C.2       1 PB0         0.2026
     16 C16         0.2650   12.8850   29.6180 C.3       1 PB0         0.0009
     17 C17        -6.4190   16.8730   31.7920 C.3       1 PB0         0.0240
     18 C18        -1.1540   13.4480   29.7390 C.3       1 PB0         0.0383
     19 C19        -6.7200   19.0660   32.6350 C.3       1 PB0        -0.0062
     20 C20        -7.4850   17.9630   31.9120 C.3       1 PB0         0.1034
     21 C21        -5.2630   17.2690   32.7340 C.3       1 PB0         0.0089
     22 C22         1.0450   13.9600   30.3850 C.3       1 PB0         0.1352
     23 C23         4.2390   14.4280   28.2350 C.3       1 PB0         0.0255
     24 C24       -10.8650   16.3310   34.3490 C.3       1 PB0        -0.0632
     25 C25         1.6100   13.0330   34.1350 C.3       1 PB0        -0.0627
     26 C26         2.8280   11.9770   32.2710 C.3       1 PB0        -0.0627
     27 C27        -1.3250   16.8250   27.4930 C.3       1 PB0        -0.0149
     28 C28        -3.6760   13.7790   33.6670 C.3       1 PB0         0.0048
     29 C29         0.9070   13.5280   31.8510 C.3       1 PB0        -0.0174
     30 C30       -10.2990   15.9020   32.9890 C.3       1 PB0        -0.0323
     31 C31        -2.4400   16.0320   28.1820 C.3       1 PB0        -0.0023
     32 C32        -9.7550   17.0940   32.1840 C.3       1 PB0         0.0480
     33 C33        -2.1010   15.8590   29.6590 C.3       1 PB0         0.1355
     34 C34        -4.6920   16.1000   33.5630 C.3       1 PB0         0.1221
     35 C35         2.1350   13.2600   32.7120 C.3       1 PB0        -0.0452
     36 C36        -4.1870   14.8960   32.7320 C.3       1 PB0         0.0825
     37 N37        -5.8810   18.3070   33.6160 N.4       1 PB0         0.2330
     38 N38        -1.0140   14.9080   29.8650 N.am      1 PB0        -0.2489
     39 N39         2.4150   14.0410   29.8450 N.am      1 PB0        -0.2760
     40 N40        -3.1040   15.3290   31.8450 N.am      1 PB0        -0.2773
     41 O41         0.6510   16.3400   30.4160 O.2       1 PB0        -0.3417
     42 O42         1.9920   14.7770   27.7310 O.2       1 PB0        -0.3975
     43 O43        -4.3410   15.1440   30.0030 O.2       1 PB0        -0.3945
     44 O44        -5.6910   15.6880   34.5010 O.3       1 PB0        -0.3837
     45 O45        -8.5240   17.5260   32.7910 O.3       1 PB0        -0.3711
     46 F46        -3.9870   10.2990   30.2530 F         1 PB0        -0.1863
     47 F47        -0.1650   10.3730   32.9950 F         1 PB0        -0.1863
     48 H          -1.9079   16.8803   22.1412 H         1 PB0         0.0559
     49 H          -2.8978   18.7063   23.5204 H         1 PB0         0.0599
     50 H          -0.6531   15.0295   23.2355 H         1 PB0         0.0599
     51 H          -2.6210   18.6481   25.9932 H         1 PB0         0.0557
     52 H          -0.3672   14.9865   25.7135 H         1 PB0         0.0557
     53 H          -4.7586   12.3686   31.6012 H         1 PB0         0.0508
     54 H          -1.3075   12.4644   34.1320 H         1 PB0         0.0508
     55 H          -1.6806    9.4207   31.0929 H         1 PB0         0.0532
     56 H           0.6018   12.7297   28.5930 H         1 PB0         0.0297
     57 H           0.3839   11.8756   30.0117 H         1 PB0         0.0297
     58 H          -6.0675   16.7882   30.7637 H         1 PB0         0.0348
     59 H          -6.8274   15.9012   32.0692 H         1 PB0         0.0348
     60 H          -1.6681   13.0288   30.6039 H         1 PB0         0.0525
     61 H          -1.7535   13.1869   28.8669 H         1 PB0         0.0525
     62 H          -7.3773   19.7917   33.1140 H         1 PB0         0.0839
     63 H          -6.1265   19.6813   31.9588 H         1 PB0         0.0839
     64 H          -7.9308   18.2417   30.9572 H         1 PB0         0.0651
     65 H          -4.3982   17.6188   32.1702 H         1 PB0         0.0878
     66 H           4.4042   13.7536   27.3948 H         1 PB0         0.0467
     67 H           4.5399   15.4380   27.9565 H         1 PB0         0.0467
     68 H           4.8267   14.0954   29.0906 H         1 PB0         0.0467
     69 H         -10.0781   16.8054   34.9353 H         1 PB0         0.0230
     70 H         -11.6810   17.0371   34.1951 H         1 PB0         0.0230
     71 H         -11.2366   15.4542   34.8794 H         1 PB0         0.0230
     72 H           0.9066   12.2003   34.1329 H         1 PB0         0.0232
     73 H           2.4451   12.8032   34.7967 H         1 PB0         0.0232
     74 H           1.1064   13.9348   34.4833 H         1 PB0         0.0232
     75 H           3.6510   11.7578   32.9513 H         1 PB0         0.0232
     76 H           2.1124   11.1549   32.2875 H         1 PB0         0.0232
     77 H           3.2147   12.1035   31.2598 H         1 PB0         0.0232
     78 H          -1.3740   17.8573   27.8394 H         1 PB0         0.0428
     79 H          -0.3705   16.3605   27.7406 H         1 PB0         0.0428
     80 H          -2.8696   14.2075   34.2622 H         1 PB0         0.0448
     81 H          -4.5328   13.4316   34.2443 H         1 PB0         0.0448
     82 H           0.4088   12.5602   31.7945 H         1 PB0         0.0280
     83 H           0.4286   14.3807   32.3328 H         1 PB0         0.0280
     84 H         -11.1051   15.4449   32.4151 H         1 PB0         0.0285
     85 H          -9.4764   15.2095   33.1672 H         1 PB0         0.0285
     86 H          -2.5330   15.0525   27.7129 H         1 PB0         0.0335
     87 H          -3.3826   16.5709   28.0858 H         1 PB0         0.0335
     88 H         -10.4792   17.9087   32.1873 H         1 PB0         0.0560
     89 H          -9.5777   16.7970   31.1503 H         1 PB0         0.0560
     90 H          -1.8003   16.8574   29.9766 H         1 PB0         0.0805
     91 H          -3.7993   16.4707   34.0669 H         1 PB0         0.0675
     92 H           2.8401   14.0879   32.6375 H         1 PB0         0.0295
     93 H          -5.0126   14.5077   32.1356 H         1 PB0         0.0606
     94 H          -6.4124   17.9187   34.3952 H         1 PB0         0.2018
     95 H          -5.1995   18.8862   34.1065 H         1 PB0         0.2018
     96 H           3.1713   13.7803   30.4778 H         1 PB0         0.1838
     97 H          -2.1996   15.5705   32.2501 H         1 PB0         0.1857
     98 H          -5.3183   15.0346   35.0974 H         1 PB0         0.2102
@<TRIPOS>BOND
     1    2    1 ar 
     2    3    1 ar 
     3    4    2 ar 
     4    5    3 ar 
     5    9    4 ar 
     6    9    5 ar 
     7   10    6 ar 
     8    6   11 ar 
     9   10    7 ar 
    10    7   12 ar 
    11   11    8 ar 
    12   12    8 ar 
    13   27    9 1  
    14   28   10 1  
    15   11   46 1  
    16   12   47 1  
    17   13   22 1  
    18   38   13 am 
    19   13   41 2  
    20   14   23 1  
    21   39   14 am 
    22   14   42 2  
    23   15   33 1  
    24   40   15 am 
    25   15   43 2  
    26   18   16 1  
    27   16   22 1  
    28   17   20 1  
    29   21   17 1  
    30   38   18 1  
    31   19   20 1  
    32   37   19 1  
    33   20   45 1  
    34   34   21 1  
    35   21   37 1  
    36   22   29 1  
    37   22   39 1  
    38   30   24 1  
    39   35   25 1  
    40   35   26 1  
    41   31   27 1  
    42   36   28 1  
    43   29   35 1  
    44   32   30 1  
    45   33   31 1  
    46   45   32 1  
    47   33   38 1  
    48   36   34 1  
    49   34   44 1  
    50   36   40 1  
    51    1   48 1  
    52    2   49 1  
    53    3   50 1  
    54    4   51 1  
    55    5   52 1  
    56    6   53 1  
    57    7   54 1  
    58    8   55 1  
    59   16   56 1  
    60   16   57 1  
    61   17   58 1  
    62   17   59 1  
    63   18   60 1  
    64   18   61 1  
    65   19   62 1  
    66   19   63 1  
    67   20   64 1  
    68   21   65 1  
    69   23   66 1  
    70   23   67 1  
    71   23   68 1  
    72   24   69 1  
    73   24   70 1  
    74   24   71 1  
    75   25   72 1  
    76   25   73 1  
    77   25   74 1  
    78   26   75 1  
    79   26   76 1  
    80   26   77 1  
    81   27   78 1  
    82   27   79 1  
    83   28   80 1  
    84   28   81 1  
    85   29   82 1  
    86   29   83 1  
    87   30   84 1  
    88   30   85 1  
    89   31   86 1  
    90   31   87 1  
    91   32   88 1  
    92   32   89 1  
    93   33   90 1  
    94   34   91 1  
    95   35   92 1  
    96   36   93 1  
    97   37   94 1  
    98   37   95 1  
    99   39   96 1  
   100   40   97 1  
   101   44   98 1  
@<TRIPOS>SUBSTRUCTURE
     1 PB0         1

