### 
### Created by X-TOOL on Mon Sep 10 21:13:08 2018
### 

@<TRIPOS>MOLECULE
3r2y_ligand
   42    46     1     0     0
SMALL
GAST_HUCK


@<TRIPOS>ATOM
      1 C19         6.1940   18.9140   48.3120 C.ar      1 P4O        -0.0238
      2 C20         6.0800   18.8820   49.7030 C.ar      1 P4O         0.0093
      3 C25         5.2090   17.9730   50.3250 C.ar      1 P4O        -0.0452
      4 C24         5.1280   17.9540   51.6820 C.ar      1 P4O        -0.0553
      5 C23         5.8980   18.8330   52.4610 C.ar      1 P4O        -0.0553
      6 C22         6.7500   19.7390   51.8830 C.ar      1 P4O        -0.0386
      7 C21         6.8640   19.7810   50.4750 C.ar      1 P4O         0.0478
      8 N16         7.6910   20.6360   49.8650 N.ar      1 P4O        -0.2933
      9 C17         7.7990   20.6640   48.5620 C.ar      1 P4O         0.0211
     10 C18         7.0610   19.8120   47.7210 C.ar      1 P4O         0.0268
     11 C14         7.1980   19.8880   46.2360 C.ar      1 P4O         0.0492
     12 C13         6.8230   18.8500   45.3920 C.ar      1 P4O        -0.0266
     13 N15         7.6820   20.9990   45.7020 N.ar      1 P4O        -0.3026
     14 C10         7.8610   21.1610   44.4030 C.ar      1 P4O         0.0006
     15 C11         7.5040   20.1740   43.5110 C.ar      1 P4O        -0.0350
     16 C12         6.9720   18.9900   44.0090 C.ar      1 P4O         0.0079
     17 C2          6.5750   17.9070   43.1020 C.2       1 P4O         0.0641
     18 C3          6.7860   17.8920   41.7650 C.2       1 P4O        -0.0565
     19 C4          6.2450   16.6940   41.3070 C.2       1 P4O         0.0410
     20 C6          6.1890   16.1420   39.9530 C.2       1 P4O         0.1752
     21 O26         6.6000   16.7920   39.0120 O.2       1 P4O        -0.4040
     22 N7          5.6690   14.9040   39.8280 N.am      1 P4O        -0.2898
     23 C8          5.5530   13.9880   40.9510 C.3       1 P4O         0.0436
     24 C9          5.0780   14.6590   42.2460 C.3       1 P4O         0.0315
     25 C5          5.7210   16.0070   42.3990 C.2       1 P4O         0.0718
     26 N1          5.9160   16.7490   43.4760 N.pl3     1 P4O        -0.2706
     27 H1          5.6064   18.2390   47.7003 H         1 P4O         0.0795
     28 H2          4.6083   17.2944   49.7302 H         1 P4O         0.0659
     29 H3          4.4609   17.2518   52.1687 H         1 P4O         0.0643
     30 H4          5.8172   18.7946   53.5413 H         1 P4O         0.0656
     31 H5          7.3300   20.4159   52.4998 H         1 P4O         0.0646
     32 H6          8.4850   21.3725   48.1120 H         1 P4O         0.0884
     33 H7          6.4160   17.9340   45.8048 H         1 P4O         0.0667
     34 H8          8.2948   22.0834   44.0341 H         1 P4O         0.0796
     35 H9          7.6349   20.3172   42.4445 H         1 P4O         0.0653
     36 H10         7.2781   18.6597   41.1697 H         1 P4O         0.0380
     37 H11         5.3510   14.6046   38.9284 H         1 P4O         0.1835
     38 H12         6.5393   13.5370   41.1349 H         1 P4O         0.0546
     39 H13         4.8335   13.2000   40.6838 H         1 P4O         0.0546
     40 H14         5.3512   14.0270   43.1038 H         1 P4O         0.0506
     41 H15         3.9852   14.7797   42.2127 H         1 P4O         0.0506
     42 H16         5.6257   16.5056   44.4338 H         1 P4O         0.2347
@<TRIPOS>BOND
     1    1    2 ar 
     2    1   10 ar 
     3    2    3 ar 
     4    2    7 ar 
     5    3    4 ar 
     6    4    5 ar 
     7    5    6 ar 
     8    6    7 ar 
     9    7    8 ar 
    10    8    9 ar 
    11    9   10 ar 
    12   10   11 1  
    13   11   12 ar 
    14   11   13 ar 
    15   12   16 ar 
    16   13   14 ar 
    17   14   15 ar 
    18   15   16 ar 
    19   16   17 1  
    20   17   18 2  
    21   17   26 1  
    22   18   19 1  
    23   19   20 1  
    24   19   25 2  
    25   20   21 2  
    26   20   22 am 
    27   22   23 1  
    28   23   24 1  
    29   24   25 1  
    30   25   26 1  
    31    1   27 1  
    32    3   28 1  
    33    4   29 1  
    34    5   30 1  
    35    6   31 1  
    36    9   32 1  
    37   12   33 1  
    38   14   34 1  
    39   15   35 1  
    40   18   36 1  
    41   22   37 1  
    42   23   38 1  
    43   23   39 1  
    44   24   40 1  
    45   24   41 1  
    46   26   42 1  
@<TRIPOS>SUBSTRUCTURE
     1 P4O         1

