### 
### Created by X-TOOL on Mon Sep 10 21:13:06 2018
### 

@<TRIPOS>MOLECULE
3r4m_ligand
   26    27     1     0     0
SMALL
GAST_HUCK


@<TRIPOS>ATOM
      1 C1         56.2530   36.2940   90.6150 C.3       1 WOE         0.0613
      2 O2         55.9450   35.9250   89.2780 O.3       1 WOE        -0.3157
      3 C3         55.9610   37.0100   88.4250 C.ar      1 WOE         0.1076
      4 C4         56.4730   38.2350   88.8400 C.ar      1 WOE        -0.0273
      5 C5         56.4820   39.3210   87.9710 C.ar      1 WOE        -0.0667
      6 C6         55.9730   39.1780   86.6850 C.ar      1 WOE        -0.0680
      7 C7         55.4640   37.9490   86.2800 C.ar      1 WOE        -0.0558
      8 C8         55.4630   36.8690   87.1550 C.ar      1 WOE         0.0333
      9 C9         54.9240   35.5660   86.6870 C.ar      1 WOE         0.0465
     10 C10        54.0020   34.8450   87.4350 C.ar      1 WOE        -0.0054
     11 C11        53.5410   33.6320   86.9330 C.ar      1 WOE         0.1170
     12 CL1        52.3880   32.7070   87.8300 Cl        1 WOE        -0.0332
     13 N13        53.9650   33.1610   85.7660 N.ar      1 WOE        -0.2440
     14 C14        54.8460   33.8930   85.0950 C.ar      1 WOE         0.1796
     15 N15        55.2760   33.4100   83.9040 N.pl3     1 WOE        -0.3046
     16 N16        55.3380   35.0580   85.4960 N.ar      1 WOE        -0.2600
     17 H1         56.2286   35.4009   91.2567 H         1 WOE         0.0581
     18 H2         55.5123   37.0237   90.9739 H         1 WOE         0.0581
     19 H3         57.2566   36.7430   90.6496 H         1 WOE         0.0581
     20 H4         56.8664   38.3436   89.8442 H         1 WOE         0.0553
     21 H5         56.8839   40.2743   88.2948 H         1 WOE         0.0620
     22 H6         55.9730   40.0198   86.0020 H         1 WOE         0.0536
     23 H7         55.0665   37.8328   85.2782 H         1 WOE         0.0627
     24 H8         53.6493   35.2193   88.3892 H         1 WOE         0.0628
     25 H9         54.9196   32.5089   83.5547 H         1 WOE         0.1824
     26 H10        55.9592   33.9440   83.3481 H         1 WOE         0.1824
@<TRIPOS>BOND
     1    1    2 1  
     2    2    3 1  
     3    3    4 ar 
     4    3    8 ar 
     5    4    5 ar 
     6    5    6 ar 
     7    6    7 ar 
     8    7    8 ar 
     9    8    9 1  
    10    9   10 ar 
    11    9   16 ar 
    12   10   11 ar 
    13   11   12 1  
    14   11   13 ar 
    15   13   14 ar 
    16   14   15 1  
    17   14   16 ar 
    18    1   17 1  
    19    1   18 1  
    20    1   19 1  
    21    4   20 1  
    22    5   21 1  
    23    6   22 1  
    24    7   23 1  
    25   10   24 1  
    26   15   25 1  
    27   15   26 1  
@<TRIPOS>SUBSTRUCTURE
     1 WOE         1

