### 
### Created by X-TOOL on Mon Sep 10 21:13:06 2018
### 

@<TRIPOS>MOLECULE
3r4n_ligand
   38    39     1     0     0
SMALL
GAST_HUCK


@<TRIPOS>ATOM
      1 C1         13.7460   -1.4520   51.4640 C.ar      1 FU5         0.0456
      2 C2         15.0960   -1.6100   50.8180 C.ar      1 FU5         0.0410
      3 C3         13.5980   -1.6410   52.8940 C.ar      1 FU5         0.1081
      4 C4         12.5960   -1.1100   50.6610 C.ar      1 FU5         0.0467
      5 C5         15.6570   -2.8800   50.7710 C.ar      1 FU5        -0.0212
      6 N6         15.7580   -0.5110   50.2950 N.ar      1 FU5        -0.2658
      7 C7         12.2920   -1.4970   53.4970 C.ar      1 FU5        -0.0273
      8 O8         14.7500   -1.9540   53.5960 O.3       1 FU5        -0.3126
      9 C9         11.3180   -0.9760   51.2910 C.ar      1 FU5        -0.0542
     10 CL10       12.6990   -0.8470   48.9400 Cl        1 FU5        -0.0689
     11 C11        16.8820   -2.9930   50.1890 C.ar      1 FU5         0.0235
     12 C12        16.9730   -0.6950   49.7300 C.ar      1 FU5         0.1733
     13 C13        11.1640   -1.1710   52.6970 C.ar      1 FU5        -0.0663
     14 C14        14.8600   -2.1670   54.9020 C.3       1 FU5         0.0725
     15 N15        17.5460   -1.9150   49.6680 N.ar      1 FU5        -0.2611
     16 C16        17.5440   -4.3600   50.1180 C.3       1 FU5        -0.0137
     17 N17        17.6570    0.4020   49.2000 N.pl3     1 FU5        -0.3056
     18 C18        16.3060   -2.4830   55.2890 C.3       1 FU5        -0.0166
     19 C19        16.8450   -3.6090   54.3850 C.3       1 FU5         0.0453
     20 C20        18.2970   -3.9940   54.6640 C.3       1 FU5         0.3903
     21 F21        18.4790   -4.3110   55.9930 F         1 FU5        -0.1708
     22 F22        18.6480   -5.0890   53.8980 F         1 FU5        -0.1708
     23 F23        19.1400   -2.9560   54.3430 F         1 FU5        -0.1708
     24 H1         15.1422   -3.7421   51.1795 H         1 FU5         0.0583
     25 H2         12.1727   -1.6385   54.5651 H         1 FU5         0.0554
     26 H3         10.4520   -0.7221   50.6904 H         1 FU5         0.0542
     27 H4         10.1863   -1.0703   53.1542 H         1 FU5         0.0619
     28 H5         14.2194   -3.0160   55.1827 H         1 FU5         0.0618
     29 H6         14.5324   -1.2662   55.4417 H         1 FU5         0.0618
     30 H7         18.5207   -4.2690   49.6202 H         1 FU5         0.0440
     31 H8         16.9039   -5.0482   49.5464 H         1 FU5         0.0440
     32 H9         17.6864   -4.7518   51.1359 H         1 FU5         0.0440
     33 H10        17.2342    1.3404   49.2389 H         1 FU5         0.1824
     34 H11        18.5841    0.2723   48.7703 H         1 FU5         0.1824
     35 H12        16.3420   -2.8072   56.3395 H         1 FU5         0.0294
     36 H13        16.9249   -1.5826   55.1617 H         1 FU5         0.0294
     37 H14        16.7709   -3.2771   53.3389 H         1 FU5         0.0352
     38 H15        16.2173   -4.5002   54.5323 H         1 FU5         0.0352
@<TRIPOS>BOND
     1    1    2 1  
     2    1    3 ar 
     3    1    4 ar 
     4    2    5 ar 
     5    2    6 ar 
     6    3    7 ar 
     7    3    8 1  
     8    4    9 ar 
     9    4   10 1  
    10    5   11 ar 
    11    6   12 ar 
    12    7   13 ar 
    13    8   14 1  
    14    9   13 ar 
    15   11   15 ar 
    16   11   16 1  
    17   12   15 ar 
    18   12   17 1  
    19   14   18 1  
    20   18   19 1  
    21   19   20 1  
    22   20   21 1  
    23   20   22 1  
    24   20   23 1  
    25    5   24 1  
    26    7   25 1  
    27    9   26 1  
    28   13   27 1  
    29   14   28 1  
    30   14   29 1  
    31   16   30 1  
    32   16   31 1  
    33   16   32 1  
    34   17   33 1  
    35   17   34 1  
    36   18   35 1  
    37   18   36 1  
    38   19   37 1  
    39   19   38 1  
@<TRIPOS>SUBSTRUCTURE
     1 FU5         1

