### 
### Created by X-TOOL on Mon Sep 10 21:13:07 2018
### 

@<TRIPOS>MOLECULE
3r4o_ligand
   53    56     1     0     0
SMALL
GAST_HUCK


@<TRIPOS>ATOM
      1 C1          2.6080  -32.4620   52.1280 C.ar      1 FU3        -0.0134
      2 C2          2.5760  -30.1940   51.1580 C.ar      1 FU3        -0.0401
      3 C3         -4.8090  -37.4940   46.1330 C.3       1 FU3        -0.0489
      4 C4         -3.5660  -37.3770   47.0240 C.3       1 FU3        -0.0297
      5 C5         -4.1400  -36.4260   45.2390 C.3       1 FU3        -0.0297
      6 C6          0.4670  -33.5640   48.2470 C.2       1 FU3         0.0425
      7 C7          0.6760  -34.5380   46.0190 C.2       1 FU3         0.0577
      8 C8          2.7740  -36.6760   50.7540 C.3       1 FU3        -0.0166
      9 C9          1.4940  -36.7130   49.9000 C.3       1 FU3         0.0453
     10 C10         2.8300  -35.3750   51.5370 C.3       1 FU3         0.0725
     11 C11         2.5080  -31.0630   52.2810 C.ar      1 FU3         0.0366
     12 C12         2.7650  -33.0150   50.8320 C.ar      1 FU3         0.1088
     13 C13         2.7380  -30.7290   49.8520 C.ar      1 FU3         0.0475
     14 C14         1.8320  -33.3660   47.7180 C.ar      1 FU3         0.0099
     15 C15         1.9760  -33.9070   46.4520 C.ar      1 FU3         0.0415
     16 C16         2.8270  -32.1410   49.6560 C.ar      1 FU3         0.0478
     17 C17         2.9450  -32.7390   48.2860 C.ar      1 FU3         0.0495
     18 C18         4.1940  -33.2290   46.3570 C.ar      1 FU3         0.1832
     19 C19        -3.5060  -35.9190   46.5330 C.3       1 FU3         0.0457
     20 C20        -1.5130  -34.7360   47.4220 C.2       1 FU3         0.3663
     21 C21         1.5050  -37.8160   48.8870 C.3       1 FU3         0.3903
     22 N22         5.4080  -33.1520   45.6790 N.pl3     1 FU3        -0.3038
     23 N23         3.1270  -33.8650   45.7390 N.ar      1 FU3        -0.2595
     24 N24         4.1360  -32.6630   47.6160 N.ar      1 FU3        -0.2559
     25 N25        -2.1270  -35.4210   46.3760 N.am      1 FU3        -0.2446
     26 N26        -0.2140  -34.2910   47.1910 N.am      1 FU3        -0.2155
     27 O27        -2.0900  -34.5300   48.4990 O.2       1 FU3        -0.3433
     28 O28         2.8660  -34.3600   50.5430 O.3       1 FU3        -0.3126
     29 F29         1.6050  -39.0070   49.4920 F         1 FU3        -0.1708
     30 F30         0.3670  -37.8090   48.1700 F         1 FU3        -0.1708
     31 F31         2.5230  -37.6810   48.0180 F         1 FU3        -0.1708
     32 CL32        2.3010  -30.4160   53.8660 Cl        1 FU3        -0.0698
     33 CL33        2.8350  -29.6280   48.5130 Cl        1 FU3        -0.0688
     34 H           2.5648  -33.1136   53.0007 H         1 FU3         0.0558
     35 H           2.5037  -29.1156   51.2992 H         1 FU3         0.0548
     36 H          -5.8191  -37.3749   46.5250 H         1 FU3         0.0267
     37 H          -5.1542  -38.4497   45.7385 H         1 FU3         0.0267
     38 H          -2.7198  -38.0599   46.9478 H         1 FU3         0.0287
     39 H          -3.5713  -37.6432   48.0810 H         1 FU3         0.0287
     40 H          -4.7066  -35.7803   44.5681 H         1 FU3         0.0287
     41 H          -3.5538  -36.6801   44.3559 H         1 FU3         0.0287
     42 H           0.0648  -33.2397   49.2068 H         1 FU3         0.0369
     43 H           0.4445  -35.0473   45.0835 H         1 FU3         0.0408
     44 H           3.6451  -36.7432   50.1023 H         1 FU3         0.0294
     45 H           2.7691  -37.5159   51.4488 H         1 FU3         0.0294
     46 H           1.4230  -35.7670   49.3632 H         1 FU3         0.0352
     47 H           0.6505  -36.8824   50.5693 H         1 FU3         0.0352
     48 H           3.6980  -35.3322   52.1949 H         1 FU3         0.0618
     49 H           1.9746  -35.2630   52.2032 H         1 FU3         0.0618
     50 H          -3.9314  -35.0870   47.0941 H         1 FU3         0.0557
     51 H           5.4988  -33.5584   44.7479 H         1 FU3         0.1825
     52 H           6.2064  -32.6892   46.1135 H         1 FU3         0.1825
     53 H          -1.6235  -35.5779   45.5029 H         1 FU3         0.1893
@<TRIPOS>BOND
     1    1   11 ar 
     2   12    1 ar 
     3    2   11 ar 
     4   13    2 ar 
     5    4    3 1  
     6    5    3 1  
     7   19    4 1  
     8   19    5 1  
     9    6   14 2  
    10   26    6 1  
    11    7   15 2  
    12   26    7 1  
    13    8    9 1  
    14   10    8 1  
    15    9   21 1  
    16   28   10 1  
    17   11   32 1  
    18   16   12 ar 
    19   12   28 1  
    20   16   13 ar 
    21   13   33 1  
    22   15   14 ar 
    23   14   17 ar 
    24   15   23 ar 
    25   17   16 1  
    26   17   24 ar 
    27   18   22 1  
    28   23   18 ar 
    29   18   24 ar 
    30   25   19 1  
    31   20   25 am 
    32   20   26 am 
    33   20   27 2  
    34   21   29 1  
    35   21   30 1  
    36   21   31 1  
    37    1   34 1  
    38    2   35 1  
    39    3   36 1  
    40    3   37 1  
    41    4   38 1  
    42    4   39 1  
    43    5   40 1  
    44    5   41 1  
    45    6   42 1  
    46    7   43 1  
    47    8   44 1  
    48    8   45 1  
    49    9   46 1  
    50    9   47 1  
    51   10   48 1  
    52   10   49 1  
    53   19   50 1  
    54   22   51 1  
    55   22   52 1  
    56   25   53 1  
@<TRIPOS>SUBSTRUCTURE
     1 FU3         1

