### 
### Created by X-TOOL on Mon Sep 10 21:13:06 2018
### 

@<TRIPOS>MOLECULE
3r4p_ligand
   53    56     1     0     0
SMALL
GAST_HUCK


@<TRIPOS>ATOM
      1 C1         13.7980   -1.0690   51.6670 C.ar      1 FU7         0.0478
      2 F1         17.6490   -7.7760   54.3260 F         1 FU7        -0.2038
      3 N1         16.3200   -4.7780   51.5020 N.am      1 FU7        -0.2155
      4 O1         15.1890   -6.4590   52.6080 O.2       1 FU7        -0.3433
      5 CL1        12.8200   -0.7640   49.0780 Cl        1 FU7        -0.0688
      6 C2         13.5680   -1.1720   53.0990 C.ar      1 FU7         0.1089
      7 F2         19.3610   -8.2000   53.0490 F         1 FU7        -0.2038
      8 N2         17.6520   -1.7480   49.9190 N.ar      1 FU7        -0.2595
      9 O2         14.7180   -1.2760   53.8670 O.3       1 FU7        -0.3096
     10 CL2         9.5430   -1.0160   53.3530 Cl        1 FU7        -0.0698
     11 C3         12.2350   -1.1500   53.6100 C.ar      1 FU7        -0.0134
     12 N3         15.7850   -0.2460   50.4390 N.ar      1 FU7        -0.2559
     13 C4         11.1440   -1.0160   52.7260 C.ar      1 FU7         0.0366
     14 N4         17.6880    0.5230   49.2410 N.pl3     1 FU7        -0.3038
     15 C5         11.3450   -0.8830   51.3330 C.ar      1 FU7        -0.0401
     16 N5         17.2390   -6.9460   51.6660 N.am      1 FU7        -0.2419
     17 C6         12.6590   -0.8990   50.8040 C.ar      1 FU7         0.0475
     18 N6         16.9330   -2.3940   55.2400 N.pl3     1 FU7        -0.2055
     19 C7         15.7320   -2.5560   51.1490 C.ar      1 FU7         0.0099
     20 N7         16.7850   -3.6990   55.5360 N.2       1 FU7        -0.2189
     21 C8         15.2560   -3.8190   51.7680 C.2       1 FU7         0.0425
     22 C9         17.4340   -4.1620   50.7390 C.2       1 FU7         0.0577
     23 C10        16.9730   -2.7310   50.5580 C.ar      1 FU7         0.0415
     24 C11        17.0290   -0.5120   49.8800 C.ar      1 FU7         0.1832
     25 C12        15.1460   -1.2730   51.0700 C.ar      1 FU7         0.0495
     26 C13        16.1870   -6.0880   51.9660 C.2       1 FU7         0.3662
     27 C14        14.6380   -1.3760   55.2950 C.3       1 FU7         0.1018
     28 C15        16.0590   -1.4160   55.8500 C.3       1 FU7         0.0988
     29 C16        17.9490   -2.1400   54.3610 C.2       1 FU7         0.0494
     30 C17        18.4970   -3.3580   54.0640 C.2       1 FU7        -0.0497
     31 C18        17.7430   -4.2820   54.8130 C.2       1 FU7        -0.0074
     32 C19        17.2240   -8.3480   52.0910 C.3       1 FU7         0.0975
     33 C20        18.0880   -8.5660   53.3150 C.3       1 FU7         0.2659
     34 C21        18.0770  -10.0030   53.7890 C.3       1 FU7         0.0008
     35 H1         12.0615   -1.2362   54.6765 H         1 FU7         0.0558
     36 H2         18.6119    0.3605   48.8156 H         1 FU7         0.1825
     37 H3         17.2548    1.4561   49.1906 H         1 FU7         0.1825
     38 H4         10.4946   -0.7689   50.6705 H         1 FU7         0.0548
     39 H5         18.0219   -6.5991   51.1496 H         1 FU7         0.1892
     40 H6         14.3218   -3.9900   52.3009 H         1 FU7         0.0369
     41 H7         18.3570   -4.6256   50.3938 H         1 FU7         0.0408
     42 H8         14.1030   -2.2955   55.5746 H         1 FU7         0.0648
     43 H9         14.1044   -0.5036   55.7002 H         1 FU7         0.0648
     44 H10        16.5081   -0.4222   55.7063 H         1 FU7         0.0668
     45 H11        15.9977   -1.6387   56.9255 H         1 FU7         0.0668
     46 H12        18.2581   -1.1691   53.9767 H         1 FU7         0.0984
     47 H13        19.3315   -3.5667   53.3962 H         1 FU7         0.0339
     48 H14        17.9224   -5.3561   54.8032 H         1 FU7         0.0650
     49 H15        17.6028   -8.9745   51.2700 H         1 FU7         0.0580
     50 H16        16.1898   -8.6389   52.3272 H         1 FU7         0.0580
     51 H17        17.0433  -10.3090   54.0079 H         1 FU7         0.0287
     52 H18        18.6868  -10.0933   54.7000 H         1 FU7         0.0287
     53 H19        18.4928  -10.6514   53.0037 H         1 FU7         0.0287
@<TRIPOS>BOND
     1    1    6 ar 
     2    1   17 ar 
     3   25    1 1  
     4   33    2 1  
     5    3   21 1  
     6    3   22 1  
     7   26    3 am 
     8   26    4 2  
     9   17    5 1  
    10    6    9 1  
    11    6   11 ar 
    12   33    7 1  
    13   23    8 ar 
    14    8   24 ar 
    15    9   27 1  
    16   13   10 1  
    17   11   13 ar 
    18   24   12 ar 
    19   25   12 ar 
    20   15   13 ar 
    21   24   14 1  
    22   17   15 ar 
    23   16   26 am 
    24   32   16 1  
    25   18   20 1  
    26   28   18 1  
    27   18   29 1  
    28   21   19 2  
    29   23   19 ar 
    30   19   25 ar 
    31   20   31 2  
    32   22   23 2  
    33   27   28 1  
    34   29   30 2  
    35   30   31 1  
    36   32   33 1  
    37   33   34 1  
    38   11   35 1  
    39   14   36 1  
    40   14   37 1  
    41   15   38 1  
    42   16   39 1  
    43   21   40 1  
    44   22   41 1  
    45   27   42 1  
    46   27   43 1  
    47   28   44 1  
    48   28   45 1  
    49   29   46 1  
    50   30   47 1  
    51   31   48 1  
    52   32   49 1  
    53   32   50 1  
    54   34   51 1  
    55   34   52 1  
    56   34   53 1  
@<TRIPOS>SUBSTRUCTURE
     1 FU7         1

