### 
### Created by X-TOOL on Mon Sep 10 21:13:06 2018
### 

@<TRIPOS>MOLECULE
3r5j_ligand
   67    66     1     0     0
SMALL
GAST_HUCK


@<TRIPOS>ATOM
      1 C         -29.6520   18.0510   31.2110 C.2       1 ACE         0.1751
      2 O         -28.8540   18.8590   31.6830 O.2       1 ACE        -0.3972
      3 CH3       -30.3510   18.3050   29.9040 C.3       1 ACE         0.0258
      4 N         -30.0560   16.9640   31.8710 N.am      1 ALA        -0.2661
      5 CA        -29.2360   16.2690   32.8580 C.3       1 ALA         0.1281
      6 C         -28.6370   14.9760   32.3150 C.2       1 ALA         0.2037
      7 O         -29.1640   14.3650   31.3770 O.2       1 ALA        -0.3944
      8 CB        -30.0490   15.9780   34.1090 C.3       1 ALA        -0.0244
      9 N         -27.5390   14.5570   32.9370 N.am      1 ASP        -0.2622
     10 CA        -26.8880   13.2950   32.6020 C.3       1 ASP         0.1423
     11 C         -27.5560   12.0920   33.2850 C.2       1 ASP         0.2056
     12 O         -27.8520   12.1310   34.4870 O.2       1 ASP        -0.3943
     13 CB        -25.3930   13.3960   32.9190 C.3       1 ASP         0.0406
     14 CG        -24.6830   14.4340   32.0410 C.2       1 ASP         0.0393
     15 OD1       -24.8300   14.3640   30.8000 O.co2     1 ASP        -0.5688
     16 OD2       -23.9580   15.3070   32.5670 O.co2     1 ASP        -0.5688
     17 N         -27.8080   11.0400   32.4990 N.am      1 VAL        -0.2634
     18 CA        -28.4000    9.7760   32.9750 C.3       1 VAL         0.1333
     19 C         -27.5940    8.5670   32.4810 C.2       1 VAL         0.2041
     20 O         -26.7190    8.7120   31.6230 O.2       1 VAL        -0.3944
     21 CB        -29.8830    9.6050   32.5200 C.3       1 VAL        -0.0063
     22 CG1       -30.7830   10.6780   33.1450 C.3       1 VAL        -0.0584
     23 CG2       -30.0030    9.5860   30.9860 C.3       1 VAL        -0.0584
     24 N         -27.9120    7.3850   33.0120 N.am      1 ALA        -0.2640
     25 CA        -27.1990    6.1420   32.6830 C.3       1 ALA         0.1282
     26 C         -27.8710    5.3370   31.5630 C.2       1 ALA         0.2031
     27 O         -29.0810    5.0940   31.5940 O.2       1 ALA        -0.3944
     28 CB        -27.0380    5.2810   33.9300 C.3       1 ALA        -0.0244
     29 N         -27.0730    4.9240   30.5800 N.am      1 ASA        -0.2679
     30 CA        -27.5420    4.0830   29.4730 C.3       1 ASA         0.1057
     31 C         -27.8620    2.6450   29.9060 C.2       1 ASA         0.0618
     32 O         -27.5468    1.6476   29.2036 O.co2     1 ASA        -0.5665
     33 CB        -26.5290    4.0990   28.3160 C.3       1 ASA         0.0351
     34 CG        -27.0300    4.8820   27.1280 C.2       1 ASA         0.0387
     35 OD1       -26.2190    5.2120   26.2370 O.co2     1 ASA        -0.5688
     36 OD2       -28.2510    5.1560   27.0870 O.co2     1 ASA        -0.5688
     37 H         -30.9395   19.2193   29.9799 H         1 ACE         0.0467
     38 H         -29.6099   18.4131   29.1121 H         1 ACE         0.0467
     39 H         -31.0085   17.4661   29.6760 H         1 ACE         0.0467
     40 H         -30.9882   16.5992   31.6751 H         1 ALA         0.1882
     41 H         -28.4069   16.9322   33.1047 H         1 ALA         0.0797
     42 H         -30.8530   15.2836   33.8649 H         1 ALA         0.0277
     43 H         -29.4021   15.5352   34.8663 H         1 ALA         0.0277
     44 H         -30.4729   16.9073   34.4896 H         1 ALA         0.0277
     45 H         -27.1381   15.1377   33.6735 H         1 ASP         0.1884
     46 H         -27.0033   13.1157   31.5331 H         1 ASP         0.0819
     47 H         -24.9395   12.4234   32.7280 H         1 ASP         0.0478
     48 H         -25.2871   13.7028   33.9595 H         1 ASP         0.0478
     49 H         -27.5764   11.1166   31.5086 H         1 VAL         0.1883
     50 H         -28.3725    9.8228   34.0636 H         1 VAL         0.0802
     51 H         -30.2297    8.6370   32.8817 H         1 VAL         0.0343
     52 H         -30.7408   10.5981   34.2313 H         1 VAL         0.0234
     53 H         -30.4364   11.6649   32.8382 H         1 VAL         0.0234
     54 H         -31.8092   10.5310   32.8082 H         1 VAL         0.0234
     55 H         -29.6231   10.5242   30.5815 H         1 VAL         0.0234
     56 H         -29.4210    8.7549   30.5876 H         1 VAL         0.0234
     57 H         -31.0496    9.4655   30.7062 H         1 VAL         0.0234
     58 H         -28.6848    7.3418   33.6763 H         1 ALA         0.1883
     59 H         -26.2182    6.4351   32.3085 H         1 ALA         0.0797
     60 H         -26.4690    5.8316   34.6791 H         1 ALA         0.0277
     61 H         -28.0219    5.0336   34.3286 H         1 ALA         0.0277
     62 H         -26.5084    4.3642   33.6710 H         1 ALA         0.0277
     63 H         -26.0925    5.2047   30.5975 H         1 ASA         0.1876
     64 H         -28.4814    4.5136   29.1263 H         1 ASA         0.0745
     65 O         -28.4593    2.4562   30.9993 O.co2     1 ASA        -0.5665
     66 H         -26.3630    3.0699   27.9974 H         1 ASA         0.0471
     67 H         -25.6150    4.5736   28.6730 H         1 ASA         0.0471
@<TRIPOS>BOND
     1    1    2 2  
     2    1    3 1  
     3    1    4 am 
     4    4    5 1  
     5    5    6 1  
     6    5    8 1  
     7    6    7 2  
     8    6    9 am 
     9    9   10 1  
    10   10   11 1  
    11   10   13 1  
    12   11   12 2  
    13   11   17 am 
    14   13   14 1  
    15   14   15 ar 
    16   14   16 ar 
    17   17   18 1  
    18   18   19 1  
    19   18   21 1  
    20   19   20 2  
    21   19   24 am 
    22   21   22 1  
    23   21   23 1  
    24   24   25 1  
    25   25   26 1  
    26   25   28 1  
    27   26   27 2  
    28   26   29 am 
    29   29   30 1  
    30   30   31 1  
    31   30   33 1  
    32   31   32 ar 
    33   33   34 1  
    34   34   35 ar 
    35   34   36 ar 
    36    3   37 1  
    37    3   38 1  
    38    3   39 1  
    39    4   40 1  
    40    5   41 1  
    41    8   42 1  
    42    8   43 1  
    43    8   44 1  
    44    9   45 1  
    45   10   46 1  
    46   13   47 1  
    47   13   48 1  
    48   17   49 1  
    49   18   50 1  
    50   21   51 1  
    51   22   52 1  
    52   22   53 1  
    53   22   54 1  
    54   23   55 1  
    55   23   56 1  
    56   23   57 1  
    57   24   58 1  
    58   25   59 1  
    59   28   60 1  
    60   28   61 1  
    61   28   62 1  
    62   29   63 1  
    63   30   64 1  
    64   31   65 ar 
    65   33   66 1  
    66   33   67 1  
@<TRIPOS>SUBSTRUCTURE
     1 ACE         1

