### 
### Created by X-TOOL on Mon Sep 10 21:13:12 2018
### 

@<TRIPOS>MOLECULE
3r5m_ligand
   38    39     1     0     0
SMALL
GAST_HUCK


@<TRIPOS>ATOM
      1 CAA        13.6480   15.9580   21.3520 C.2       1 MLO        -0.1155
      2 CAB         8.1480   13.5200   15.3360 C.3       1 MLO        -0.0357
      3 OAC        16.6340   13.0950   15.4950 O.3       1 MLO        -0.3357
      4 OAD        15.6120   15.5820   14.4830 O.3       1 MLO        -0.3328
      5 CAE        14.5560   14.9270   21.1440 C.2       1 MLO        -0.0799
      6 CAF         9.5080   13.6920   14.8950 C.2       1 MLO        -0.0828
      7 CAG        17.4190   13.4560   17.7060 C.ar      1 MLO        -0.0390
      8 CAH        13.3620   15.1520   13.8910 C.ar      1 MLO        -0.0355
      9 CAI        17.2330   13.9680   18.9900 C.ar      1 MLO        -0.0673
     10 CAJ        12.1040   14.6250   14.1880 C.ar      1 MLO        -0.0694
     11 CAK        15.0530   14.8040   18.3060 C.ar      1 MLO        -0.0605
     12 CAL        12.9440   13.9090   16.3200 C.ar      1 MLO        -0.0629
     13 CAM        15.8410   15.2140   20.6960 C.3       1 MLO         0.0028
     14 CAN        10.5260   13.3870   15.8030 C.2       1 MLO        -0.0753
     15 CAO        16.4250   13.6130   16.7300 C.ar      1 MLO         0.0888
     16 CAP        14.4070   15.0580   14.8080 C.ar      1 MLO         0.0932
     17 CAQ        16.0450   14.6430   19.2880 C.ar      1 MLO        -0.0426
     18 CAR        11.8880   13.9950   15.4130 C.ar      1 MLO        -0.0512
     19 CAS        15.2300   14.2980   17.0100 C.ar      1 MLO         0.0025
     20 CAT        14.2120   14.4360   16.0430 C.ar      1 MLO         0.0049
     21 H          13.9431   16.9903   21.1641 H         1 MLO         0.0297
     22 H          12.6406   15.7345   21.7031 H         1 MLO         0.0297
     23 H           7.9857   12.4779   15.6114 H         1 MLO         0.0417
     24 H           7.9641   14.1584   16.2001 H         1 MLO         0.0417
     25 H           7.4683   13.7939   14.5291 H         1 MLO         0.0417
     26 H          15.8734   13.2794   14.9389 H         1 MLO         0.2470
     27 H          16.2264   15.4421   15.2072 H         1 MLO         0.2488
     28 H          14.2615   13.8945   21.3317 H         1 MLO         0.0685
     29 H           9.7353   14.0471   13.8898 H         1 MLO         0.0675
     30 H          18.3421   12.9310   17.4601 H         1 MLO         0.0523
     31 H          13.5286   15.6422   12.9318 H         1 MLO         0.0535
     32 H          18.0033   13.8437   19.7511 H         1 MLO         0.0528
     33 H          11.2929   14.7057   13.4644 H         1 MLO         0.0553
     34 H          14.1316   15.3303   18.5553 H         1 MLO         0.0522
     35 H          12.7769   13.4148   17.2771 H         1 MLO         0.0546
     36 H          16.5661   14.7639   21.3741 H         1 MLO         0.0579
     37 H          15.9779   16.2950   20.6679 H         1 MLO         0.0579
     38 H          10.3725   12.7810   16.6959 H         1 MLO         0.0414
@<TRIPOS>BOND
     1    5    1 2  
     2    6    2 1  
     3   15    3 1  
     4   16    4 1  
     5   13    5 1  
     6   14    6 2  
     7    7    9 ar 
     8   15    7 ar 
     9    8   10 ar 
    10   16    8 ar 
    11   17    9 ar 
    12   18   10 ar 
    13   11   17 ar 
    14   19   11 ar 
    15   12   18 ar 
    16   20   12 ar 
    17   17   13 1  
    18   18   14 1  
    19   19   15 ar 
    20   20   16 ar 
    21   19   20 1  
    22    1   21 1  
    23    1   22 1  
    24    2   23 1  
    25    2   24 1  
    26    2   25 1  
    27    3   26 1  
    28    4   27 1  
    29    5   28 1  
    30    6   29 1  
    31    7   30 1  
    32    8   31 1  
    33    9   32 1  
    34   10   33 1  
    35   11   34 1  
    36   12   35 1  
    37   13   36 1  
    38   13   37 1  
    39   14   38 1  
@<TRIPOS>SUBSTRUCTURE
     1 MLO         1

