### 
### Created by X-TOOL on Mon Sep 10 21:13:12 2018
### 

@<TRIPOS>MOLECULE
3r5n_ligand
   38    39     1     0     0
SMALL
GAST_HUCK


@<TRIPOS>ATOM
      1 CAA        58.3740   24.1550    5.8280 C.2       1 MLO        -0.1155
      2 CAB        60.7620   21.5720   -1.4050 C.2       1 MLO        -0.1155
      3 OAC        53.1630   22.1590    1.6200 O.3       1 MLO        -0.3357
      4 OAD        53.6190   23.5760   -0.2160 O.3       1 MLO        -0.3357
      5 CAE        57.0530   23.9580    6.2130 C.2       1 MLO        -0.0799
      6 CAF        59.6780   21.8450   -0.5770 C.2       1 MLO        -0.0799
      7 CAG        53.3650   22.8510    3.8690 C.ar      1 MLO        -0.0390
      8 CAH        55.6290   23.4570   -1.4350 C.ar      1 MLO        -0.0390
      9 CAI        54.0600   23.4940    4.8880 C.ar      1 MLO        -0.0673
     10 CAJ        57.0160   23.3560   -1.5000 C.ar      1 MLO        -0.0673
     11 CAK        55.8090   24.0430    3.3120 C.ar      1 MLO        -0.0607
     12 CAL        57.1000   23.2870    0.9120 C.ar      1 MLO        -0.0607
     13 CAM        56.0550   24.7970    5.7260 C.3       1 MLO         0.0027
     14 CAN        59.2830   23.1630   -0.3790 C.3       1 MLO         0.0027
     15 CAO        53.8870   22.8010    2.5750 C.ar      1 MLO         0.0887
     16 CAP        54.9750   23.4760   -0.2030 C.ar      1 MLO         0.0887
     17 CAQ        55.2860   24.0890    4.6080 C.ar      1 MLO        -0.0426
     18 CAR        57.7540   23.2690   -0.3210 C.ar      1 MLO        -0.0426
     19 CAS        55.1190   23.4030    2.2760 C.ar      1 MLO         0.0015
     20 CAT        55.7060   23.3850    0.9940 C.ar      1 MLO         0.0015
     21 H          58.6275   24.9660    5.1453 H         1 MLO         0.0297
     22 H          59.1564   23.4985    6.2088 H         1 MLO         0.0297
     23 H          61.2945   22.3885   -1.8927 H         1 MLO         0.0297
     24 H          61.0788   20.5416   -1.5661 H         1 MLO         0.0297
     25 H          53.6324   22.1987    0.7835 H         1 MLO         0.2470
     26 H          53.2908   23.5788    0.6862 H         1 MLO         0.2470
     27 H          56.7989   23.1472    6.8957 H         1 MLO         0.0685
     28 H          59.1425   21.0317   -0.0872 H         1 MLO         0.0685
     29 H          52.4045   22.3821    4.0826 H         1 MLO         0.0523
     30 H          55.0487   23.5218   -2.3554 H         1 MLO         0.0523
     31 H          53.6479   23.5313    5.8964 H         1 MLO         0.0527
     32 H          57.5210   23.3450   -2.4659 H         1 MLO         0.0527
     33 H          56.7702   24.5135    3.1051 H         1 MLO         0.0521
     34 H          57.6861   23.2235    1.8288 H         1 MLO         0.0521
     35 H          56.5081   25.7070    5.3327 H         1 MLO         0.0579
     36 H          55.3680   25.0483    6.5341 H         1 MLO         0.0579
     37 H          59.6465   23.7679   -1.2097 H         1 MLO         0.0579
     38 H          59.6964   23.5162    0.5657 H         1 MLO         0.0579
@<TRIPOS>BOND
     1    5    1 2  
     2    6    2 2  
     3   15    3 1  
     4   16    4 1  
     5   13    5 1  
     6   14    6 1  
     7    7    9 ar 
     8   15    7 ar 
     9    8   10 ar 
    10   16    8 ar 
    11   17    9 ar 
    12   18   10 ar 
    13   11   17 ar 
    14   19   11 ar 
    15   12   18 ar 
    16   20   12 ar 
    17   17   13 1  
    18   18   14 1  
    19   19   15 ar 
    20   20   16 ar 
    21   19   20 1  
    22    1   21 1  
    23    1   22 1  
    24    2   23 1  
    25    2   24 1  
    26    3   25 1  
    27    4   26 1  
    28    5   27 1  
    29    6   28 1  
    30    7   29 1  
    31    8   30 1  
    32    9   31 1  
    33   10   32 1  
    34   11   33 1  
    35   12   34 1  
    36   13   35 1  
    37   13   36 1  
    38   14   37 1  
    39   14   38 1  
@<TRIPOS>SUBSTRUCTURE
     1 MLO         1

