### 
### Created by X-TOOL on Mon Sep 10 21:13:09 2018
### 

@<TRIPOS>MOLECULE
3r5t_ligand
   96   100     1     0     0
SMALL
GAST_HUCK


@<TRIPOS>ATOM
      1 C          24.5880   18.1150    4.4830 C.2       1 VBN         0.2297
      2 N          23.5680   16.0490    5.5380 N.4       1 VBN         0.2800
      3 O          23.7480   18.8300    4.9180 O.2       1 VBN        -0.3906
      4 CA         24.4350   16.6000    4.5110 C.3       1 VBN         0.0973
      5 CB         23.7880   15.9960    3.2080 C.3       1 VBN         0.1235
      6 CAB        31.6920   13.4670    5.9410 C.3       1 VBN        -0.0307
      7 OAC        26.6840   21.5390    8.2820 O.2       1 VBN        -0.3912
      8 OAD        28.4330   14.8660    3.0410 O.2       1 VBN        -0.3908
      9 OAF        24.5380   16.0830    9.6450 O.3       1 VBN        -0.3357
     10 OAG        19.8890   15.5960    9.2380 O.3       1 VBN        -0.3390
     11 OAH        23.7350   13.7270    7.8980 O.3       1 VBN        -0.3390
     12 OAI        25.0470   17.7270    7.6150 O.3       1 VBN        -0.3312
     13 OAJ        22.1520   16.0780    7.8070 O.3       1 VBN        -0.3410
     14 OAK        25.9470   14.8430    6.7870 O.3       1 VBN        -0.3410
     15 CAL        25.7900   19.0580   11.5350 C.ar      1 VBN        -0.0763
     16 CAM        18.7800   14.9170    5.7460 C.ar      1 VBN        -0.0878
     17 CAN        25.9600   10.7690    7.5600 C.ar      1 VBN        -0.0878
     18 CAO        25.2650   17.7460   11.2820 C.ar      1 VBN        -0.0372
     19 CAP        18.7450   15.0430    7.1640 C.ar      1 VBN        -0.0484
     20 CAQ        24.8130   11.5520    7.9160 C.ar      1 VBN        -0.0484
     21 CAR        26.0660   19.9600   10.4430 C.ar      1 VBN        -0.0617
     22 CAS        19.9530   15.1990    5.0310 C.ar      1 VBN        -0.0719
     23 CAT        27.0740   11.3680    6.9180 C.ar      1 VBN        -0.0719
     24 CAU        26.3850   21.0030    4.4690 C.3       1 VBN        -0.0123
     25 CAV        27.9980   18.4930    2.6540 C.3       1 VBN        -0.0123
     26 CAW        25.5500   21.3430    5.7150 C.3       1 VBN         0.0319
     27 CAX        29.1610   17.5450    2.2790 C.3       1 VBN         0.0329
     28 CAY        25.6990   20.1030    3.4390 C.3       1 VBN         0.0359
     29 CAZ        26.7170   17.7870    3.1300 C.3       1 VBN         0.0359
     30 NBB        25.4740   20.3190    6.7540 N.am      1 VBN        -0.2882
     31 NBC        29.6490   16.8290    3.4560 N.am      1 VBN        -0.2822
     32 NBD        28.4530   14.7520    6.0410 N.4       1 VBN         0.2800
     33 OBF        29.3320   12.6080    5.6890 O.3       1 VBN        -0.3165
     34 CBG        26.0790   20.5530    8.0450 C.2       1 VBN         0.1964
     35 CBH        29.1810   15.4720    3.7530 C.2       1 VBN         0.2272
     36 CBJ        22.2540   16.0610    4.9500 C.3       1 VBN         0.1169
     37 CBK        25.0200   17.3400    9.9380 C.ar      1 VBN         0.1223
     38 CBL        19.8930   15.4610    7.8620 C.ar      1 VBN         0.1098
     39 CBM        24.8200   12.9130    7.6200 C.ar      1 VBN         0.1098
     40 CBN        25.2730   18.1910    8.9020 C.ar      1 VBN         0.1379
     41 CBO        21.0020   15.7270    7.1690 C.ar      1 VBN         0.1247
     42 CBP        25.8980   13.4850    7.0000 C.ar      1 VBN         0.1247
     43 CBQ        25.8220   19.5570    9.1700 C.ar      1 VBN         0.0700
     44 CBR        21.0450   15.5700    5.7070 C.ar      1 VBN         0.0534
     45 CBS        27.0790   12.6870    6.6560 C.ar      1 VBN         0.0534
     46 CBU        30.3810   13.5390    5.1780 C.3       1 VBN         0.1235
     47 CBW        28.1730   13.3600    5.8770 C.3       1 VBN         0.1169
     48 CBX        29.5840   14.9360    5.1210 C.3       1 VBN         0.0971
     49 NBY        25.7080   18.6660    3.7290 N.am      1 VBN        -0.2684
     50 OG1        22.3390   15.8810    3.5530 O.3       1 VBN        -0.3165
     51 CG2        24.4690   14.8080    2.5470 C.3       1 VBN        -0.0307
     52 H1         23.5916   16.6208    6.3678 H         1 VBN         0.2077
     53 H2         23.8451   15.1081    5.7703 H         1 VBN         0.2077
     54 H3         25.4465   16.1880    4.6416 H         1 VBN         0.1126
     55 H4         23.8561   16.7832    2.4427 H         1 VBN         0.0681
     56 H5         32.4089   14.1789    5.5060 H         1 VBN         0.0258
     57 H6         32.1003   12.4478    5.8731 H         1 VBN         0.0258
     58 H7         31.5165   13.7222    6.9965 H         1 VBN         0.0258
     59 H8         23.6953   15.9620   10.0666 H         1 VBN         0.2443
     60 H9         20.7458   15.8852    9.5292 H         1 VBN         0.2439
     61 H10        23.9294   14.6160    7.6253 H         1 VBN         0.2439
     62 H11        25.5938   16.9672    7.4529 H         1 VBN         0.2472
     63 H12        22.4153   15.3768    8.3914 H         1 VBN         0.2415
     64 H13        26.7601   15.0645    6.3485 H         1 VBN         0.2415
     65 H14        25.9806   19.3736   12.5544 H         1 VBN         0.0508
     66 H15        17.8906   14.5998    5.2137 H         1 VBN         0.0479
     67 H16        25.9761    9.7085    7.7837 H         1 VBN         0.0479
     68 H17        25.0571   17.0712   12.1045 H         1 VBN         0.0543
     69 H18        17.8338   14.8168    7.7058 H         1 VBN         0.0456
     70 H19        23.9598   11.0952    8.4044 H         1 VBN         0.0456
     71 H20        26.4641   20.9493   10.6373 H         1 VBN         0.0544
     72 H21        19.9738   15.1177    3.9503 H         1 VBN         0.0440
     73 H22        27.9258   10.7593    6.6371 H         1 VBN         0.0440
     74 H23        27.3019   20.4961    4.8040 H         1 VBN         0.0304
     75 H24        26.6493   21.9473    3.9706 H         1 VBN         0.0304
     76 H25        27.7478   19.0946    1.7677 H         1 VBN         0.0304
     77 H26        28.3435   19.1555    3.4613 H         1 VBN         0.0304
     78 H27        24.5238   21.5552    5.3807 H         1 VBN         0.0519
     79 H28        25.9820   22.2470    6.1691 H         1 VBN         0.0519
     80 H29        29.9836   18.1360    1.8500 H         1 VBN         0.0520
     81 H30        28.8064   16.8162    1.5353 H         1 VBN         0.0520
     82 H31        26.2027   20.2538    2.4728 H         1 VBN         0.0523
     83 H32        24.6496   20.4229    3.3593 H         1 VBN         0.0523
     84 H33        27.0014   17.0342    3.8799 H         1 VBN         0.0523
     85 H34        26.2613   17.2867    2.2628 H         1 VBN         0.0523
     86 H35        25.0031   19.4558    6.5717 H         1 VBN         0.1840
     87 H36        30.3089   17.2693    4.0649 H         1 VBN         0.1852
     88 H37        28.7132   14.9655    6.9911 H         1 VBN         0.2077
     89 H38        27.6646   15.3199    5.7729 H         1 VBN         0.2077
     90 H39        22.0366   17.1384    4.9943 H         1 VBN         0.1328
     91 H40        30.6300   13.2561    4.1446 H         1 VBN         0.0681
     92 H41        27.7296   13.3535    4.8704 H         1 VBN         0.1328
     93 H42        30.2466   15.7026    5.5491 H         1 VBN         0.1126
     94 H43        23.8982   14.5072    1.6561 H         1 VBN         0.0258
     95 H44        24.5111   13.9682    3.2562 H         1 VBN         0.0258
     96 H45        25.4903   15.0891    2.2504 H         1 VBN         0.0258
@<TRIPOS>BOND
     1    1    3 2  
     2    1    4 1  
     3   49    1 am 
     4    4    2 1  
     5    2   36 1  
     6    4    5 1  
     7    5   50 1  
     8    5   51 1  
     9   46    6 1  
    10   34    7 2  
    11   35    8 2  
    12   37    9 1  
    13   38   10 1  
    14   39   11 1  
    15   40   12 1  
    16   41   13 1  
    17   42   14 1  
    18   15   18 ar 
    19   21   15 ar 
    20   16   19 ar 
    21   22   16 ar 
    22   17   20 ar 
    23   23   17 ar 
    24   37   18 ar 
    25   38   19 ar 
    26   39   20 ar 
    27   43   21 ar 
    28   44   22 ar 
    29   45   23 ar 
    30   24   26 1  
    31   28   24 1  
    32   27   25 1  
    33   25   29 1  
    34   26   30 1  
    35   31   27 1  
    36   49   28 1  
    37   29   49 1  
    38   30   34 am 
    39   35   31 am 
    40   47   32 1  
    41   32   48 1  
    42   33   46 1  
    43   47   33 1  
    44   34   43 1  
    45   48   35 1  
    46   36   44 1  
    47   50   36 1  
    48   40   37 ar 
    49   41   38 ar 
    50   42   39 ar 
    51   43   40 ar 
    52   44   41 ar 
    53   45   42 ar 
    54   45   47 1  
    55   46   48 1  
    56    2   52 1  
    57    2   53 1  
    58    4   54 1  
    59    5   55 1  
    60    6   56 1  
    61    6   57 1  
    62    6   58 1  
    63    9   59 1  
    64   10   60 1  
    65   11   61 1  
    66   12   62 1  
    67   13   63 1  
    68   14   64 1  
    69   15   65 1  
    70   16   66 1  
    71   17   67 1  
    72   18   68 1  
    73   19   69 1  
    74   20   70 1  
    75   21   71 1  
    76   22   72 1  
    77   23   73 1  
    78   24   74 1  
    79   24   75 1  
    80   25   76 1  
    81   25   77 1  
    82   26   78 1  
    83   26   79 1  
    84   27   80 1  
    85   27   81 1  
    86   28   82 1  
    87   28   83 1  
    88   29   84 1  
    89   29   85 1  
    90   30   86 1  
    91   31   87 1  
    92   32   88 1  
    93   32   89 1  
    94   36   90 1  
    95   46   91 1  
    96   47   92 1  
    97   48   93 1  
    98   51   94 1  
    99   51   95 1  
   100   51   96 1  
@<TRIPOS>SUBSTRUCTURE
     1 VBN         1

