### 
### Created by X-TOOL on Fri Sep 26 17:34:55 2014
### 

@<TRIPOS>MOLECULE
3r6c_ligand
   35    38     1     0     0
SMALL
GAST_HUCK


@<TRIPOS>ATOM
      1 CAA        10.3760   -6.1330   24.6970 C.3       1 MOL         0.0613
      2 OAB         2.6230   -4.8880   30.0280 O.co2     1 MOL        -0.5649
      3 OAC         4.1220   -4.1620   27.6140 O.co2     1 MOL        -0.5628
      4 OAD         2.8150   -6.6300   28.6580 O.co2     1 MOL        -0.5649
      5 OAE         4.3780   -5.9230   25.9140 O.co2     1 MOL        -0.5628
      6 CAF        10.5520   -7.1870   28.7120 C.ar      1 MOL        -0.0732
      7 CAG        10.5110   -6.7710   27.3790 C.ar      1 MOL        -0.0332
      8 CAH         9.4060   -7.1530   29.5060 C.ar      1 MOL        -0.0677
      9 CAI         4.7010   -6.6210   31.2930 C.ar      1 MOL        -0.0256
     10 CAJ         6.9980   -5.8390   27.0790 C.ar      1 MOL        -0.0431
     11 CAK         7.5680   -7.2840   33.2050 C.3       1 MOL         0.1880
     12 OAL         9.2160   -5.8790   25.5240 O.3       1 MOL        -0.3164
     13 OAM         6.1660   -7.5030   33.0910 O.3       1 MOL        -0.2913
     14 OAN         8.0440   -7.5620   31.8670 O.3       1 MOL        -0.2865
     15 CAO         3.2760   -5.8030   29.4990 C.2       1 MOL         0.0521
     16 CAP         5.8870   -7.0600   31.8450 C.ar      1 MOL         0.1281
     17 CAQ         9.3170   -6.3130   26.8290 C.ar      1 MOL         0.1034
     18 CAR         4.6620   -6.1910   29.9830 C.ar      1 MOL        -0.0005
     19 CAS         5.8260   -5.8060   27.8130 C.ar      1 MOL         0.0076
     20 CAT         7.0390   -7.0930   31.0760 C.ar      1 MOL         0.1374
     21 CAU         8.1780   -6.2880   27.6360 C.ar      1 MOL         0.0177
     22 CAV         8.1990   -6.7000   28.9710 C.ar      1 MOL        -0.0195
     23 CAW         5.8130   -6.2150   29.1690 C.ar      1 MOL        -0.0108
     24 CAX         7.0200   -6.6620   29.7410 C.ar      1 MOL         0.0172
     25 CAY         4.7720   -5.3390   27.1420 C.2       1 MOL         0.0581
     26 H1         10.1935   -5.7505   23.6819 H         1 MOL         0.0582
     27 H2         10.5645   -7.2158   24.6524 H         1 MOL         0.0582
     28 H3         11.2518   -5.6258   25.1280 H         1 MOL         0.0582
     29 H4         11.4857   -7.5404   29.1342 H         1 MOL         0.0588
     30 H5         11.4091   -6.8049   26.7729 H         1 MOL         0.0508
     31 H6          9.4526   -7.4785   30.5389 H         1 MOL         0.0498
     32 H7          3.7968   -6.6140   31.8909 H         1 MOL         0.0576
     33 H8          6.9893   -5.5061   26.0474 H         1 MOL         0.0652
     34 H9          8.0184   -7.9708   33.9367 H         1 MOL         0.0976
     35 H10         7.7848   -6.2453   33.4951 H         1 MOL         0.0976
@<TRIPOS>BOND
     1   12    1 1  
     2   15    2 ar 
     3   25    3 ar 
     4   15    4 ar 
     5   25    5 ar 
     6    7    6 ar 
     7    6    8 ar 
     8   17    7 ar 
     9    8   22 ar 
    10    9   16 ar 
    11   18    9 ar 
    12   19   10 ar 
    13   10   21 ar 
    14   13   11 1  
    15   14   11 1  
    16   17   12 1  
    17   16   13 1  
    18   20   14 1  
    19   18   15 1  
    20   16   20 ar 
    21   21   17 ar 
    22   23   18 ar 
    23   19   23 ar 
    24   19   25 1  
    25   20   24 ar 
    26   21   22 ar 
    27   22   24 ar 
    28   23   24 ar 
    29    1   26 1  
    30    1   27 1  
    31    1   28 1  
    32    6   29 1  
    33    7   30 1  
    34    8   31 1  
    35    9   32 1  
    36   10   33 1  
    37   11   34 1  
    38   11   35 1  
@<TRIPOS>SUBSTRUCTURE
     1 MOL         1

