### 
### Created by X-TOOL on Mon Sep 10 21:13:05 2018
### 

@<TRIPOS>MOLECULE
3r6g_ligand
   73    72     1     0     0
SMALL
GAST_HUCK


@<TRIPOS>ATOM
      1 C         -13.2770   -6.3160   42.7570 C.2       1 ACE         0.1751
      2 O         -12.6340   -7.0220   43.5370 O.2       1 ACE        -0.3972
      3 CH3       -13.8290   -4.9800   43.1880 C.3       1 ACE         0.0258
      4 N         -13.7050   -6.7720   41.5800 N.am      1 VAL        -0.2656
      5 CA        -13.0180   -7.8550   40.8730 C.3       1 VAL         0.1332
      6 C         -12.4230   -7.4290   39.5220 C.2       1 VAL         0.2042
      7 O         -12.8720   -6.4580   38.9150 O.2       1 VAL        -0.3944
      8 CB        -13.9300   -9.0960   40.6700 C.3       1 VAL        -0.0063
      9 CG1       -14.5220   -9.5700   42.0260 C.3       1 VAL        -0.0584
     10 CG2       -15.0140   -8.8380   39.6260 C.3       1 VAL        -0.0584
     11 N         -11.4340   -8.2000   39.0680 N.am      1 ASP        -0.2622
     12 CA        -10.7450   -7.9630   37.7970 C.3       1 ASP         0.1423
     13 C         -11.4420   -8.6030   36.5890 C.2       1 ASP         0.2056
     14 O         -11.7840   -9.7870   36.6230 O.2       1 ASP        -0.3943
     15 CB         -9.2900   -8.3880   37.9470 C.3       1 ASP         0.0406
     16 CG         -8.5230   -7.4380   38.8240 C.2       1 ASP         0.0393
     17 OD1        -8.8210   -6.2350   38.6890 O.co2     1 ASP        -0.5688
     18 OD2        -7.6400   -7.8430   39.6340 O.co2     1 ASP        -0.5688
     19 N         -11.6880   -7.8250   35.5430 N.am      1 VAL        -0.2634
     20 CA        -12.2980   -8.3430   34.2960 C.3       1 VAL         0.1333
     21 C         -11.5600   -7.8390   33.0520 C.2       1 VAL         0.2041
     22 O         -10.7530   -6.9090   33.1410 O.2       1 VAL        -0.3944
     23 CB        -13.8230   -7.9960   34.1620 C.3       1 VAL        -0.0063
     24 CG1       -14.6360   -8.4880   35.3870 C.3       1 VAL        -0.0584
     25 CG2       -14.0580   -6.4960   33.8830 C.3       1 VAL        -0.0584
     26 N         -11.8570   -8.4410   31.9010 N.am      1 ALA        -0.2640
     27 CA        -11.2070   -8.1140   30.6100 C.3       1 ALA         0.1282
     28 C         -11.8300   -6.9550   29.8180 C.2       1 ALA         0.2031
     29 O         -13.0450   -6.9190   29.6210 O.2       1 ALA        -0.3944
     30 CB        -11.1700   -9.3590   29.7110 C.3       1 ALA        -0.0244
     31 N         -10.9840   -6.0520   29.3130 N.am      1 ASA        -0.2679
     32 CA        -11.4130   -5.0080   28.3720 C.3       1 ASA         0.1057
     33 C         -11.6080   -5.5140   26.9430 C.2       1 ASA         0.0618
     34 O         -11.4983   -4.7492   25.9477 O.co2     1 ASA        -0.5665
     35 CB        -10.4380   -3.8240   28.3840 C.3       1 ASA         0.0351
     36 CG        -10.9660   -2.6570   29.1980 C.2       1 ASA         0.0387
     37 OD1       -10.1440   -1.8150   29.6120 O.co2     1 ASA        -0.5688
     38 OD2       -12.2060   -2.6150   29.4200 O.co2     1 ASA        -0.5688
     39 H         -14.5150   -5.1239   44.0227 H         1 ACE         0.0467
     40 H         -13.0089   -4.3323   43.4977 H         1 ACE         0.0467
     41 H         -14.3606   -4.5218   42.3540 H         1 ACE         0.0467
     42 H         -14.5352   -6.3545   41.1594 H         1 VAL         0.1883
     43 H         -12.1886   -8.1251   41.5266 H         1 VAL         0.0802
     44 H         -13.3142   -9.9060   40.2792 H         1 VAL         0.0343
     45 H         -15.1928   -8.8043   42.4156 H         1 VAL         0.0234
     46 H         -15.0752  -10.4970   41.8753 H         1 VAL         0.0234
     47 H         -13.7118   -9.7401   42.7351 H         1 VAL         0.0234
     48 H         -15.5727   -9.7571   39.4494 H         1 VAL         0.0234
     49 H         -15.6903   -8.0644   39.9898 H         1 VAL         0.0234
     50 H         -14.5501   -8.5089   38.6961 H         1 VAL         0.0234
     51 H         -11.1422   -8.9960   39.6351 H         1 ASP         0.1884
     52 H         -10.7832   -6.8966   37.5747 H         1 ASP         0.0819
     53 H          -8.8292   -8.3927   36.9592 H         1 ASP         0.0478
     54 H          -9.2657   -9.3762   38.4063 H         1 ASP         0.0478
     55 H         -11.4487   -6.8351   35.5992 H         1 VAL         0.1883
     56 H         -12.2040   -9.4268   34.3634 H         1 VAL         0.0802
     57 H         -14.1923   -8.5387   33.2918 H         1 VAL         0.0343
     58 H         -14.5374   -9.5699   35.4762 H         1 VAL         0.0234
     59 H         -14.2543   -8.0115   36.2899 H         1 VAL         0.0234
     60 H         -15.6859   -8.2274   35.2531 H         1 VAL         0.0234
     61 H         -13.6470   -5.9066   34.7026 H         1 VAL         0.0234
     62 H         -13.5643   -6.2193   32.9515 H         1 VAL         0.0234
     63 H         -15.1281   -6.3067   33.7987 H         1 VAL         0.0234
     64 H         -12.5723   -9.1681   31.9089 H         1 ALA         0.1883
     65 H         -10.2087   -7.7775   30.8897 H         1 ALA         0.0797
     66 H         -10.6054  -10.1479   30.2081 H         1 ALA         0.0277
     67 H         -12.1879   -9.7012   29.5244 H         1 ALA         0.0277
     68 H         -10.6905   -9.1082   28.7648 H         1 ALA         0.0277
     69 H         -10.0034   -6.0889   29.5913 H         1 ASA         0.1876
     70 H         -12.3910   -4.6784   28.7226 H         1 ASA         0.0745
     71 O         -11.8859   -6.7286   26.7553 O.co2     1 ASA        -0.5665
     72 H         -10.3002   -3.4869   27.3566 H         1 ASA         0.0471
     73 H          -9.5037   -4.1579   28.8353 H         1 ASA         0.0471
@<TRIPOS>BOND
     1    1    2 2  
     2    1    3 1  
     3    1    4 am 
     4    4    5 1  
     5    5    6 1  
     6    5    8 1  
     7    6    7 2  
     8    6   11 am 
     9    8    9 1  
    10    8   10 1  
    11   11   12 1  
    12   12   13 1  
    13   12   15 1  
    14   13   14 2  
    15   13   19 am 
    16   15   16 1  
    17   16   17 ar 
    18   16   18 ar 
    19   19   20 1  
    20   20   21 1  
    21   20   23 1  
    22   21   22 2  
    23   21   26 am 
    24   23   24 1  
    25   23   25 1  
    26   26   27 1  
    27   27   28 1  
    28   27   30 1  
    29   28   29 2  
    30   28   31 am 
    31   31   32 1  
    32   32   33 1  
    33   32   35 1  
    34   33   34 ar 
    35   35   36 1  
    36   36   37 ar 
    37   36   38 ar 
    38    3   39 1  
    39    3   40 1  
    40    3   41 1  
    41    4   42 1  
    42    5   43 1  
    43    8   44 1  
    44    9   45 1  
    45    9   46 1  
    46    9   47 1  
    47   10   48 1  
    48   10   49 1  
    49   10   50 1  
    50   11   51 1  
    51   12   52 1  
    52   15   53 1  
    53   15   54 1  
    54   19   55 1  
    55   20   56 1  
    56   23   57 1  
    57   24   58 1  
    58   24   59 1  
    59   24   60 1  
    60   25   61 1  
    61   25   62 1  
    62   25   63 1  
    63   26   64 1  
    64   27   65 1  
    65   30   66 1  
    66   30   67 1  
    67   30   68 1  
    68   31   69 1  
    69   32   70 1  
    70   33   71 ar 
    71   35   72 1  
    72   35   73 1  
@<TRIPOS>SUBSTRUCTURE
     1 ACE         1

