### 
### Created by X-TOOL on Mon Sep 10 21:13:08 2018
### 

@<TRIPOS>MOLECULE
3r6t_ligand
   61    65     1     0     0
SMALL
GAST_HUCK


@<TRIPOS>ATOM
      1 O14        -2.9410   13.6250   24.6430 O.2       1 LU1        -0.3908
      2 C6         -1.8930   13.0690   24.8990 C.2       1 LU1         0.1986
      3 C2         -0.5610   13.7280   24.7390 C.ar      1 LU1         0.0720
      4 C3          0.6500   13.1970   25.2320 C.ar      1 LU1         0.1393
      5 O20         0.7370   12.0850   25.9710 O.3       1 LU1        -0.3302
      6 C9          1.8390   13.9070   24.9680 C.ar      1 LU1         0.1232
      7 O21         2.9820   13.3870   25.4530 O.3       1 LU1        -0.3356
      8 C10         1.8010   15.0910   24.2490 C.ar      1 LU1        -0.0299
      9 C4         -0.5740   14.9170   24.0170 C.ar      1 LU1        -0.0533
     10 C7          0.5840   15.6400   23.7580 C.ar      1 LU1        -0.0339
     11 C13         0.5720   16.9080   22.9840 C.ar      1 LU1        -0.0299
     12 C17         1.4130   17.9580   23.3660 C.ar      1 LU1        -0.0581
     13 C24         1.4020   19.1640   22.6400 C.ar      1 LU1        -0.0288
     14 C18        -0.2800   17.0910   21.8930 C.ar      1 LU1        -0.0581
     15 C25        -0.2900   18.2420   21.1690 C.ar      1 LU1        -0.0288
     16 C23         0.5570   19.2690   21.5520 C.ar      1 LU1         0.1316
     17 F26         0.5590   20.4000   20.8580 F         1 LU1        -0.1840
     18 N16        -1.8850   11.8160   25.3220 N.am      1 LU1        -0.2802
     19 C27        -3.1380   11.0530   25.3910 C.3       1 LU1         0.0471
     20 C19        -2.7850    9.5900   25.3230 C.2       1 LU1        -0.0745
     21 C15        -3.3800    8.6950   24.5850 C.2       1 LU1        -0.0682
     22 C12        -3.0380    7.2430   24.5690 C.3       1 LU1         0.0822
     23 C11        -3.6600    6.5470   23.3660 C.3       1 LU1         0.0117
     24 C8         -5.0690    6.2780   23.9180 C.3       1 LU1         0.1144
     25 O22        -5.8120    5.3300   23.1790 O.3       1 LU1        -0.3860
     26 C1         -4.7010    5.8100   25.3370 C.3       1 LU1         0.2008
     27 O5         -3.5700    6.5650   25.7400 O.3       1 LU1        -0.3323
     28 N28        -5.7750    6.0210   26.3210 N.pl3     1 LU1        -0.1883
     29 C29        -6.2340    5.1340   27.2270 C.ar      1 LU1         0.1683
     30 C30        -7.1700    5.8580   28.0110 C.ar      1 LU1         0.0876
     31 N31        -7.2010    7.1570   27.6100 N.2       1 LU1        -0.2933
     32 C32        -6.3500    7.2450   26.6210 C.2       1 LU1         0.1151
     33 N33        -5.9680    3.8220   27.3650 N.ar      1 LU1        -0.2608
     34 C36        -6.6490    3.2500   28.3570 C.ar      1 LU1         0.0619
     35 N35        -7.5950    3.8350   29.1210 N.ar      1 LU1        -0.2825
     36 C34        -7.8840    5.1440   28.9360 C.ar      1 LU1         0.0444
     37 C37        -8.9640    5.7630   29.7380 C.3       1 LU1        -0.0106
     38 H           1.6568   11.9189   26.1901 H         1 LU1         0.2479
     39 H           3.1162   12.5114   25.0831 H         1 LU1         0.2443
     40 H           2.7343   15.6190   24.0532 H         1 LU1         0.0543
     41 H          -1.5252   15.2944   23.6416 H         1 LU1         0.0555
     42 H           2.0755   17.8428   24.2239 H         1 LU1         0.0601
     43 H           2.0449   19.9953   22.9294 H         1 LU1         0.0602
     44 H          -0.9588   16.2855   21.6127 H         1 LU1         0.0601
     45 H          -0.9488   18.3538   20.3078 H         1 LU1         0.0602
     46 H          -1.0068   11.3786   25.6009 H         1 LU1         0.1864
     47 H          -3.7944   11.3245   24.5643 H         1 LU1         0.0643
     48 H          -3.6669   11.2737   26.3182 H         1 LU1         0.0643
     49 H          -1.9583    9.2494   25.9465 H         1 LU1         0.0470
     50 H          -4.1855    9.0320   23.9325 H         1 LU1         0.0476
     51 H          -1.9497    7.1889   24.5407 H         1 LU1         0.0723
     52 H          -3.1270    5.6561   23.0338 H         1 LU1         0.0337
     53 H          -3.6390    7.1304   22.4455 H         1 LU1         0.0337
     54 H          -5.7429    7.1336   23.8752 H         1 LU1         0.0651
     55 H          -5.3457    4.4908   23.1769 H         1 LU1         0.2100
     56 H          -4.5132    4.7368   25.3035 H         1 LU1         0.0997
     57 H          -6.1203    8.1717   26.0950 H         1 LU1         0.1373
     58 H          -6.4193    2.2065   28.5727 H         1 LU1         0.1019
     59 H          -8.5534    6.5841   30.3256 H         1 LU1         0.0446
     60 H          -9.7378    6.1432   29.0711 H         1 LU1         0.0446
     61 H          -9.3930    5.0157   30.4056 H         1 LU1         0.0446
@<TRIPOS>BOND
     1    1    2 2  
     2    2    3 1  
     3    2   18 am 
     4    3    4 ar 
     5    3    9 ar 
     6    4    5 1  
     7    4    6 ar 
     8    6    7 1  
     9    6    8 ar 
    10    8   10 ar 
    11    9   10 ar 
    12   10   11 1  
    13   11   12 ar 
    14   11   14 ar 
    15   12   13 ar 
    16   13   16 ar 
    17   14   15 ar 
    18   15   16 ar 
    19   16   17 1  
    20   18   19 1  
    21   19   20 1  
    22   20   21 2  
    23   21   22 1  
    24   22   23 1  
    25   22   27 1  
    26   23   24 1  
    27   24   25 1  
    28   24   26 1  
    29   26   27 1  
    30   26   28 1  
    31   28   29 1  
    32   28   32 1  
    33   29   30 ar 
    34   29   33 ar 
    35   30   31 1  
    36   30   36 ar 
    37   31   32 2  
    38   33   34 ar 
    39   34   35 ar 
    40   35   36 ar 
    41   36   37 1  
    42    5   38 1  
    43    7   39 1  
    44    8   40 1  
    45    9   41 1  
    46   12   42 1  
    47   13   43 1  
    48   14   44 1  
    49   15   45 1  
    50   18   46 1  
    51   19   47 1  
    52   19   48 1  
    53   20   49 1  
    54   21   50 1  
    55   22   51 1  
    56   23   52 1  
    57   23   53 1  
    58   24   54 1  
    59   25   55 1  
    60   26   56 1  
    61   32   57 1  
    62   34   58 1  
    63   37   59 1  
    64   37   60 1  
    65   37   61 1  
@<TRIPOS>SUBSTRUCTURE
     1 LU1         1

