### 
### Created by X-TOOL on Mon Sep 10 21:13:05 2018
### 

@<TRIPOS>MOLECULE
3r6u_ligand
   21    20     1     0     0
SMALL
GAST_HUCK


@<TRIPOS>ATOM
      1 C4         -3.4440    3.6660  -20.4170 C.3       1 CHT         0.0841
      2 C5         -4.3620    4.5340  -21.2550 C.3       1 CHT        -0.0071
      3 C6         -6.4130    5.2040  -22.1710 C.3       1 CHT        -0.0417
      4 C7         -6.1800    2.9190  -21.9720 C.3       1 CHT        -0.0417
      5 C8         -6.4350    4.1190  -19.9690 C.3       1 CHT        -0.0417
      6 O6         -3.6200    3.9490  -18.9860 O.3       1 CHT        -0.3898
      7 N1         -5.8250    4.1710  -21.3080 N.4       1 CHT         0.2385
      8 H1         -2.4001    3.8683  -20.6987 H         1 CHT         0.0610
      9 H2         -3.6764    2.6077  -20.6064 H         1 CHT         0.0610
     10 H3         -3.9817    4.5115  -22.2869 H         1 CHT         0.0837
     11 H4         -4.2932    5.5587  -20.8610 H         1 CHT         0.0837
     12 H5         -7.4934    5.0247  -22.2735 H         1 CHT         0.0778
     13 H6         -5.9393    5.1662  -23.1631 H         1 CHT         0.0778
     14 H7         -6.2467    6.1946  -21.7227 H         1 CHT         0.0778
     15 H8         -5.7798    2.0720  -21.3955 H         1 CHT         0.0778
     16 H9         -5.7525    2.9074  -22.9855 H         1 CHT         0.0778
     17 H10        -7.2750    2.8349  -22.0349 H         1 CHT         0.0778
     18 H11        -6.1977    5.0433  -19.4219 H         1 CHT         0.0778
     19 H12        -6.0368    3.2543  -19.4180 H         1 CHT         0.0778
     20 H13        -7.5262    4.0207  -20.0667 H         1 CHT         0.0778
     21 H14        -3.0364    3.3952  -18.4807 H         1 CHT         0.2096
@<TRIPOS>BOND
     1    1    2 1  
     2    1    6 1  
     3    2    7 1  
     4    7    3 1  
     5    7    4 1  
     6    7    5 1  
     7    1    8 1  
     8    1    9 1  
     9    2   10 1  
    10    2   11 1  
    11    3   12 1  
    12    3   13 1  
    13    3   14 1  
    14    4   15 1  
    15    4   16 1  
    16    4   17 1  
    17    5   18 1  
    18    5   19 1  
    19    5   20 1  
    20    6   21 1  
@<TRIPOS>SUBSTRUCTURE
     1 CHT         1

