### 
### Created by X-TOOL on Mon Sep 10 21:13:06 2018
### 

@<TRIPOS>MOLECULE
3r7b_ligand
   57    56     1     0     0
SMALL
GAST_HUCK


@<TRIPOS>ATOM
      1 C           5.1070   27.4120   28.5460 C.2       1 ACE         0.1752
      2 O           5.2410   27.0350   27.3770 O.2       1 ACE        -0.3972
      3 CH3         6.0190   28.4490   29.1600 C.3       1 ACE         0.0258
      4 N           4.0790   27.0000   29.2820 N.am      1 ASP        -0.2643
      5 CA          3.1470   25.9940   28.7640 C.3       1 ASP         0.1422
      6 C           2.0840   26.6540   27.8940 C.2       1 ASP         0.2056
      7 O           1.5480   27.7050   28.2540 O.2       1 ASP        -0.3943
      8 CB          2.5180   25.1930   29.9150 C.3       1 ASP         0.0406
      9 CG          3.5360   24.3390   30.6440 C.2       1 ASP         0.0393
     10 OD1         4.2870   23.5980   29.9640 O.co2     1 ASP        -0.5688
     11 OD2         3.5900   24.3900   31.8980 O.co2     1 ASP        -0.5688
     12 N           1.8130   26.0540   26.7320 N.am      1 VAL        -0.2634
     13 CA          0.7870   26.5370   25.8000 C.3       1 VAL         0.1333
     14 C          -0.0220   25.3310   25.2800 C.2       1 VAL         0.2041
     15 O           0.4060   24.1880   25.4540 O.2       1 VAL        -0.3944
     16 CB          1.4060   27.3230   24.5970 C.3       1 VAL        -0.0063
     17 CG1         2.2480   28.5330   25.0830 C.3       1 VAL        -0.0584
     18 CG2         2.2590   26.4290   23.7440 C.3       1 VAL        -0.0584
     19 N          -1.1500   25.5890   24.6090 N.am      1 ALA        -0.2640
     20 CA         -2.0060   24.5030   24.0770 C.3       1 ALA         0.1282
     21 C          -1.7110   24.1080   22.6330 C.2       1 ALA         0.2031
     22 O          -1.4690   24.9700   21.7880 O.2       1 ALA        -0.3944
     23 CB         -3.4790   24.8890   24.2040 C.3       1 ALA        -0.0244
     24 N          -1.7690   22.8070   22.3490 N.am      1 ASA        -0.2679
     25 CA         -1.7000   22.2840   20.9790 C.3       1 ASA         0.1057
     26 C          -3.0250   22.3640   20.2070 C.2       1 ASA         0.0618
     27 O          -3.3803   21.4522   19.4133 O.co2     1 ASA        -0.5665
     28 CB         -1.2020   20.8400   20.9870 C.3       1 ASA         0.0351
     29 CG          0.2450   20.7340   20.5920 C.2       1 ASA         0.0387
     30 OD1         0.8660   19.7140   20.9550 O.co2     1 ASA        -0.5688
     31 OD2         0.7390   21.6790   19.9210 O.co2     1 ASA        -0.5688
     32 H           7.0469   28.0872   29.1353 H         1 ACE         0.0467
     33 H           5.9454   29.3771   28.5931 H         1 ACE         0.0467
     34 H           5.7201   28.6280   30.1928 H         1 ACE         0.0467
     35 H           3.9377   27.3873   30.2150 H         1 ASP         0.1884
     36 H           3.7000   25.2918   28.1401 H         1 ASP         0.0819
     37 H           1.7613   24.5315   29.4931 H         1 ASP         0.0478
     38 H           2.0964   25.9006   30.6289 H         1 ASP         0.0478
     39 H           2.3443   25.2205   26.4802 H         1 VAL         0.1883
     40 H           0.1381   27.2296   26.3361 H         1 VAL         0.0802
     41 H           0.5736   27.6935   23.9987 H         1 VAL         0.0343
     42 H           1.6116   29.2126   25.6498 H         1 VAL         0.0234
     43 H           3.0592   28.1777   25.7185 H         1 VAL         0.0234
     44 H           2.6624   29.0554   24.2208 H         1 VAL         0.0234
     45 H           3.0700   26.0199   24.3465 H         1 VAL         0.0234
     46 H           1.6501   25.6148   23.3512 H         1 VAL         0.0234
     47 H           2.6740   27.0056   22.9173 H         1 VAL         0.0234
     48 H          -1.4282   26.5589   24.4596 H         1 ALA         0.1883
     49 H          -1.7737   23.6280   24.6841 H         1 ALA         0.0797
     50 H          -3.7205   25.0552   25.2538 H         1 ALA         0.0277
     51 H          -3.6641   25.8021   23.6383 H         1 ALA         0.0277
     52 H          -4.0995   24.0840   23.8102 H         1 ALA         0.0277
     53 H          -1.8657   22.1446   23.1186 H         1 ASA         0.1876
     54 H          -0.9968   22.9308   20.4542 H         1 ASA         0.0745
     55 O          -3.7738   23.3640   20.3709 O.co2     1 ASA        -0.5665
     56 H          -1.7920   20.2745   20.2657 H         1 ASA         0.0471
     57 H          -1.3055   20.4519   22.0003 H         1 ASA         0.0471
@<TRIPOS>BOND
     1    1    2 2  
     2    1    3 1  
     3    1    4 am 
     4    4    5 1  
     5    5    6 1  
     6    5    8 1  
     7    6    7 2  
     8    6   12 am 
     9    8    9 1  
    10    9   10 ar 
    11    9   11 ar 
    12   12   13 1  
    13   13   14 1  
    14   13   16 1  
    15   14   15 2  
    16   14   19 am 
    17   16   17 1  
    18   16   18 1  
    19   19   20 1  
    20   20   21 1  
    21   20   23 1  
    22   21   22 2  
    23   21   24 am 
    24   24   25 1  
    25   25   26 1  
    26   25   28 1  
    27   26   27 ar 
    28   28   29 1  
    29   29   30 ar 
    30   29   31 ar 
    31    3   32 1  
    32    3   33 1  
    33    3   34 1  
    34    4   35 1  
    35    5   36 1  
    36    8   37 1  
    37    8   38 1  
    38   12   39 1  
    39   13   40 1  
    40   16   41 1  
    41   17   42 1  
    42   17   43 1  
    43   17   44 1  
    44   18   45 1  
    45   18   46 1  
    46   18   47 1  
    47   19   48 1  
    48   20   49 1  
    49   23   50 1  
    50   23   51 1  
    51   23   52 1  
    52   24   53 1  
    53   25   54 1  
    54   26   55 ar 
    55   28   56 1  
    56   28   57 1  
@<TRIPOS>SUBSTRUCTURE
     1 ACE         1

