### 
### Created by X-TOOL on Mon Sep 10 21:13:05 2018
### 

@<TRIPOS>MOLECULE
3r7n_ligand
   57    56     1     0     0
SMALL
GAST_HUCK


@<TRIPOS>ATOM
      1 C         -28.7920   15.0160   32.0030 C.2       1 ACE         0.1752
      2 O         -29.2680   14.3810   31.0390 O.2       1 ACE        -0.3972
      3 CH3       -29.2510   16.4060   32.4220 C.3       1 ACE         0.0258
      4 N         -27.6810   14.6040   32.6120 N.am      1 ASP        -0.2643
      5 CA        -27.0230   13.3240   32.3280 C.3       1 ASP         0.1422
      6 C         -27.7040   12.1660   33.0230 C.2       1 ASP         0.2056
      7 O         -28.0940   12.2740   34.1920 O.2       1 ASP        -0.3943
      8 CB        -25.5470   13.4460   32.7080 C.3       1 ASP         0.0406
      9 CG        -24.8280   14.4150   31.8180 C.2       1 ASP         0.0393
     10 OD1       -24.9970   14.3120   30.5730 O.co2     1 ASP        -0.5688
     11 OD2       -24.1120   15.2880   32.3310 O.co2     1 ASP        -0.5688
     12 N         -27.8750   11.0630   32.2940 N.am      1 VAL        -0.2634
     13 CA        -28.4440    9.8150   32.8210 C.3       1 VAL         0.1333
     14 C         -27.6250    8.6490   32.2760 C.2       1 VAL         0.2041
     15 O         -26.7860    8.8270   31.3990 O.2       1 VAL        -0.3944
     16 CB        -29.9600    9.5970   32.4170 C.3       1 VAL        -0.0063
     17 CG1       -30.9190   10.6030   33.1370 C.3       1 VAL        -0.0584
     18 CG2       -30.1860    9.5770   30.8770 C.3       1 VAL        -0.0584
     19 N         -27.9050    7.4460   32.7670 N.am      1 ALA        -0.2640
     20 CA        -27.2230    6.2110   32.3480 C.3       1 ALA         0.1282
     21 C         -27.8770    5.4150   31.1760 C.2       1 ALA         0.2031
     22 O         -29.1090    5.3010   31.0810 O.2       1 ALA        -0.3944
     23 CB        -27.0870    5.3140   33.5620 C.3       1 ALA        -0.0244
     24 N         -27.0370    4.8560   30.2960 N.am      1 ASA        -0.2679
     25 CA        -27.4640    3.8400   29.2910 C.3       1 ASA         0.1057
     26 C         -27.6260    2.3880   29.8350 C.2       1 ASA         0.0618
     27 O         -27.3885    1.3666   29.1365 O.co2     1 ASA        -0.5665
     28 CB        -26.5520    3.8790   28.0440 C.3       1 ASA         0.0351
     29 CG        -27.0720    4.8220   26.9700 C.2       1 ASA         0.0387
     30 OD1       -26.2350    5.3480   26.2140 O.co2     1 ASA        -0.5688
     31 OD2       -28.3110    5.0280   26.8730 O.co2     1 ASA        -0.5688
     32 H         -29.0943   17.1026   31.5984 H         1 ACE         0.0467
     33 H         -30.3102   16.3758   32.6775 H         1 ACE         0.0467
     34 H         -28.6759   16.7312   33.2890 H         1 ACE         0.0467
     35 H         -27.2642   15.2133   33.3158 H         1 ASP         0.1884
     36 H         -27.1016   13.1035   31.2634 H         1 ASP         0.0819
     37 H         -25.0808   12.4667   32.5997 H         1 ASP         0.0478
     38 H         -25.4837   13.8078   33.7343 H         1 ASP         0.0478
     39 H         -27.5946   11.0868   31.3136 H         1 VAL         0.1883
     40 H         -28.4070    9.8739   33.9088 H         1 VAL         0.0802
     41 H         -30.2188    8.5999   32.7733 H         1 VAL         0.0343
     42 H         -30.8353   10.4738   34.2161 H         1 VAL         0.0234
     43 H         -30.6415   11.6225   32.8692 H         1 VAL         0.0234
     44 H         -31.9456   10.4107   32.8253 H         1 VAL         0.0234
     45 H         -29.8641   10.5275   30.4514 H         1 VAL         0.0234
     46 H         -29.6067    8.7655   30.4366 H         1 VAL         0.0234
     47 H         -31.2449    9.4241   30.6684 H         1 VAL         0.0234
     48 H         -28.6352    7.3746   33.4756 H         1 ALA         0.1883
     49 H         -26.2626    6.5294   31.9426 H         1 ALA         0.0797
     50 H         -26.5027    5.8258   34.3267 H         1 ALA         0.0277
     51 H         -28.0774    5.0826   33.9540 H         1 ALA         0.0277
     52 H         -26.5835    4.3907   33.2754 H         1 ALA         0.0277
     53 H         -26.0571    5.1388   30.3137 H         1 ASA         0.1876
     54 H         -28.4748    4.1343   29.0086 H         1 ASA         0.0745
     55 O         -28.0109    2.2290   31.0242 O.co2     1 ASA        -0.5665
     56 H         -26.5177    2.8748   27.6214 H         1 ASA         0.0471
     57 H         -25.5703    4.2348   28.3568 H         1 ASA         0.0471
@<TRIPOS>BOND
     1    1    2 2  
     2    1    3 1  
     3    1    4 am 
     4    4    5 1  
     5    5    6 1  
     6    5    8 1  
     7    6    7 2  
     8    6   12 am 
     9    8    9 1  
    10    9   10 ar 
    11    9   11 ar 
    12   12   13 1  
    13   13   14 1  
    14   13   16 1  
    15   14   15 2  
    16   14   19 am 
    17   16   17 1  
    18   16   18 1  
    19   19   20 1  
    20   20   21 1  
    21   20   23 1  
    22   21   22 2  
    23   21   24 am 
    24   24   25 1  
    25   25   26 1  
    26   25   28 1  
    27   26   27 ar 
    28   28   29 1  
    29   29   30 ar 
    30   29   31 ar 
    31    3   32 1  
    32    3   33 1  
    33    3   34 1  
    34    4   35 1  
    35    5   36 1  
    36    8   37 1  
    37    8   38 1  
    38   12   39 1  
    39   13   40 1  
    40   16   41 1  
    41   17   42 1  
    42   17   43 1  
    43   17   44 1  
    44   18   45 1  
    45   18   46 1  
    46   18   47 1  
    47   19   48 1  
    48   20   49 1  
    49   23   50 1  
    50   23   51 1  
    51   23   52 1  
    52   24   53 1  
    53   25   54 1  
    54   26   55 ar 
    55   28   56 1  
    56   28   57 1  
@<TRIPOS>SUBSTRUCTURE
     1 ACE         1

