### 
### Created by X-TOOL on Mon Sep 10 21:13:11 2018
### 

@<TRIPOS>MOLECULE
3r7o_ligand
   73    78     1     0     0
SMALL
GAST_HUCK


@<TRIPOS>ATOM
      1 C          -4.4430   -8.3610  -16.5550 C.ar      1 M61        -0.0044
      2 N          -6.7760   -8.9240  -16.6650 N.ar      1 M61        -0.2972
      3 O          -5.1400   -6.4670  -13.1050 O.2       1 M61        -0.3840
      4 S          -6.2770   -2.0310  -10.9750 S.o2      1 M61         0.1421
      5 C1         -5.5090   -9.0640  -17.0730 C.ar      1 M61         0.0108
      6 C2         -7.0070   -8.0380  -15.6860 C.ar      1 M61         0.0510
      7 C3         -5.9850   -7.3520  -15.0460 C.ar      1 M61         0.0560
      8 C4         -4.6860   -7.5210  -15.4870 C.ar      1 M61        -0.0278
      9 C5         -8.4250   -7.9680  -15.3950 C.2       1 M61        -0.0403
     10 C6         -9.0930   -7.1100  -14.6220 C.2       1 M61        -0.0523
     11 C7         -8.6030   -5.9960  -13.8360 C.ar      1 M61        -0.0141
     12 C8         -7.2920   -5.7020  -13.4960 C.ar      1 M61         0.0296
     13 C9         -6.1140   -6.5080  -13.8510 C.2       1 M61         0.1525
     14 C10        -9.6010   -5.1370  -13.4290 C.ar      1 M61        -0.0577
     15 C11        -9.3140   -4.0300  -12.6710 C.ar      1 M61        -0.0338
     16 C12        -8.0170   -3.7730  -12.2890 C.ar      1 M61         0.0768
     17 C13        -7.0050   -4.6030  -12.7100 C.ar      1 M61        -0.0216
     18 C14        -3.1130   -8.5120  -17.0850 C.2       1 M61         0.0088
     19 C15        -6.5970   -0.5990  -13.2700 C.3       1 M61         0.0200
     20 N16        -5.6540   -1.3440  -12.4150 N.am      1 M61        -0.2174
     21 C17        -4.6650   -2.1180  -13.1930 C.3       1 M61         0.0594
     22 O18        -6.6320   -0.9440  -10.0820 O.2       1 M61        -0.1290
     23 O19        -5.3800   -3.0730  -10.5170 O.2       1 M61        -0.1290
     24 N20        -7.8160   -2.6250  -11.4540 N.am      1 M61        -0.1688
     25 C21        -3.3450   -1.3780  -13.1320 C.3       1 M61         0.0990
     26 C22        -2.9840   -0.8320  -14.5000 C.3       1 M61         0.0755
     27 O23        -1.7540   -0.1220  -14.4000 O.3       1 M61        -0.3749
     28 C24        -0.7300   -1.0250  -13.9920 C.3       1 M61         0.0711
     29 C25        -1.0880   -1.5880  -12.6290 C.3       1 M61         0.0715
     30 O26        -2.3250   -2.2860  -12.7230 O.3       1 M61        -0.3704
     31 C27        -2.7970   -9.2170  -18.2240 C.2       1 M61         0.0669
     32 N28        -1.4530   -9.0340  -18.3850 N.pl3     1 M61        -0.1980
     33 N29        -0.8810   -8.2550  -17.4490 N.2       1 M61        -0.2120
     34 C30        -1.8950   -7.9380  -16.6440 C.2       1 M61         0.0078
     35 C31        -0.6500   -9.5710  -19.4710 C.3       1 M61         0.0930
     36 C32         0.3900  -10.5390  -18.9270 C.3       1 M61         0.0205
     37 C33         1.4170  -10.9410  -19.9690 C.3       1 M61        -0.0306
     38 N34         2.0040   -9.7070  -20.5480 N.4       1 M61         0.2271
     39 C35         0.9780   -8.8970  -21.2600 C.3       1 M61        -0.0306
     40 C36        -0.0140   -8.4150  -20.2220 C.3       1 M61         0.0205
     41 H1         -5.3080   -9.7779  -17.8636 H         1 M61         0.0821
     42 H2         -3.8688   -7.0007  -15.0005 H         1 M61         0.0730
     43 H3         -9.0359   -8.7285  -15.8791 H         1 M61         0.0595
     44 H4        -10.1689   -7.2714  -14.5747 H         1 M61         0.0680
     45 H5        -10.6278   -5.3390  -13.7119 H         1 M61         0.0622
     46 H6        -10.1097   -3.3570  -12.3726 H         1 M61         0.0549
     47 H7         -5.9802   -4.3946  -12.4246 H         1 M61         0.0544
     48 H8         -6.0661   -0.2155  -14.1538 H         1 M61         0.0442
     49 H9         -7.0200    0.2430  -12.7024 H         1 M61         0.0442
     50 H10        -7.4081   -1.2688  -13.5916 H         1 M61         0.0442
     51 H11        -4.9968   -2.2054  -14.2381 H         1 M61         0.0505
     52 H12        -4.5511   -3.1224  -12.7592 H         1 M61         0.0505
     53 H13        -8.6261   -2.1373  -11.1286 H         1 M61         0.2224
     54 H14        -3.4201   -0.5500  -12.4118 H         1 M61         0.0635
     55 H15        -3.7760   -0.1524  -14.8478 H         1 M61         0.0586
     56 H16        -2.8745   -1.6627  -15.2127 H         1 M61         0.0586
     57 H17         0.2302   -0.4918  -13.9310 H         1 M61         0.0583
     58 H18        -0.6484   -1.8450  -14.7207 H         1 M61         0.0583
     59 H19        -1.1833   -0.7659  -11.9044 H         1 M61         0.0583
     60 H20        -0.2994   -2.2794  -12.2975 H         1 M61         0.0583
     61 H21        -3.4699   -9.7935  -18.8571 H         1 M61         0.1054
     62 H22        -1.7991   -7.3144  -15.7564 H         1 M61         0.0679
     63 H23        -1.3054  -10.1207  -20.1626 H         1 M61         0.0684
     64 H24        -0.1237  -11.4444  -18.5716 H         1 M61         0.0349
     65 H25         0.9115  -10.0591  -18.0857 H         1 M61         0.0349
     66 H26         0.9314  -11.5289  -20.7619 H         1 M61         0.0815
     67 H27         2.2080  -11.5432  -19.4982 H         1 M61         0.0815
     68 H28         2.7288   -9.9636  -21.1998 H         1 M61         0.2013
     69 H29         2.4008   -9.1532  -19.8051 H         1 M61         0.2013
     70 H30         0.4657   -9.5150  -22.0121 H         1 M61         0.0815
     71 H31         1.4535   -8.0370  -21.7542 H         1 M61         0.0815
     72 H32         0.5094   -7.7679  -19.5027 H         1 M61         0.0349
     73 H33        -0.8047   -7.8393  -20.7254 H         1 M61         0.0349
@<TRIPOS>BOND
     1    1    5 ar 
     2    8    1 ar 
     3    1   18 1  
     4    2    5 ar 
     5    6    2 ar 
     6   13    3 2  
     7    4   20 am 
     8    4   22 2  
     9    4   23 2  
    10   24    4 am 
    11    7    6 ar 
    12    6    9 1  
    13    7    8 ar 
    14   13    7 1  
    15   10    9 2  
    16   11   10 1  
    17   12   11 ar 
    18   14   11 ar 
    19   12   13 1  
    20   17   12 ar 
    21   15   14 ar 
    22   16   15 ar 
    23   16   17 ar 
    24   16   24 1  
    25   18   31 2  
    26   18   34 1  
    27   20   19 1  
    28   20   21 1  
    29   21   25 1  
    30   25   26 1  
    31   25   30 1  
    32   26   27 1  
    33   27   28 1  
    34   28   29 1  
    35   29   30 1  
    36   31   32 1  
    37   32   33 1  
    38   32   35 1  
    39   33   34 2  
    40   35   36 1  
    41   35   40 1  
    42   36   37 1  
    43   37   38 1  
    44   38   39 1  
    45   39   40 1  
    46    5   41 1  
    47    8   42 1  
    48    9   43 1  
    49   10   44 1  
    50   14   45 1  
    51   15   46 1  
    52   17   47 1  
    53   19   48 1  
    54   19   49 1  
    55   19   50 1  
    56   21   51 1  
    57   21   52 1  
    58   24   53 1  
    59   25   54 1  
    60   26   55 1  
    61   26   56 1  
    62   28   57 1  
    63   28   58 1  
    64   29   59 1  
    65   29   60 1  
    66   31   61 1  
    67   34   62 1  
    68   35   63 1  
    69   36   64 1  
    70   36   65 1  
    71   37   66 1  
    72   37   67 1  
    73   38   68 1  
    74   38   69 1  
    75   39   70 1  
    76   39   71 1  
    77   40   72 1  
    78   40   73 1  
@<TRIPOS>SUBSTRUCTURE
     1 M61         1

