### 
### Created by X-TOOL on Mon Sep 10 21:13:07 2018
### 

@<TRIPOS>MOLECULE
3r7q_ligand
   38    41     1     0     0
SMALL
GAST_HUCK


@<TRIPOS>ATOM
      1 C1         16.4880   62.5540   21.2420 C.ar      1 FAV        -0.0747
      2 N1         24.2440   61.2120   19.6840 N.am      1 FAV        -0.2230
      3 O1         18.4190   59.6390   23.5710 O.3       1 FAV        -0.3067
      4 S1         20.9950   61.5420   20.4410 S.3       1 FAV        -0.0327
      5 C2         15.7930   61.8340   22.2120 C.ar      1 FAV        -0.0727
      6 O2         24.5250   60.0650   21.5540 O.2       1 FAV        -0.3800
      7 C3         16.4320   60.8670   22.9930 C.ar      1 FAV        -0.0335
      8 C4         17.7800   60.5830   22.8150 C.ar      1 FAV         0.1025
      9 C5         18.4640   61.2910   21.8220 C.ar      1 FAV         0.0187
     10 C6         17.8330   62.2720   21.0520 C.ar      1 FAV        -0.0642
     11 C7         19.8340   59.6090   23.8160 C.3       1 FAV         0.0970
     12 C8         20.5780   60.2060   22.6310 C.2       1 FAV        -0.0107
     13 C9         19.9010   60.9850   21.6840 C.2       1 FAV         0.0403
     14 C10        21.9080   60.0590   22.3540 C.2       1 FAV        -0.0454
     15 C11        22.3460   60.6860   21.2200 C.2       1 FAV         0.1021
     16 C12        23.7540   60.6320   20.8070 C.2       1 FAV         0.2362
     17 C13        23.4440   61.9340   18.7800 C.ar      1 FAV         0.0821
     18 C14        23.4060   63.3200   18.9340 C.ar      1 FAV        -0.0404
     19 C15        22.6490   64.1270   18.0930 C.ar      1 FAV        -0.0753
     20 C16        21.9180   63.5470   17.0750 C.ar      1 FAV        -0.0766
     21 C17        21.9480   62.1650   16.8980 C.ar      1 FAV        -0.0615
     22 C18        22.7020   61.3480   17.7390 C.ar      1 FAV         0.0595
     23 C19        25.6770   61.1030   19.4190 C.3       1 FAV         0.0438
     24 CL1        22.6890   59.6350   17.4680 Cl        1 FAV        -0.0830
     25 H1         15.9905   63.3147   20.6513 H         1 FAV         0.0521
     26 H2         14.7372   62.0276   22.3635 H         1 FAV         0.0570
     27 H3         15.8679   60.3313   23.7480 H         1 FAV         0.0533
     28 H4         18.3973   62.8152   20.3026 H         1 FAV         0.0567
     29 H5         20.1568   58.5676   23.9620 H         1 FAV         0.0743
     30 H6         20.0600   60.1932   24.7202 H         1 FAV         0.0743
     31 H7         22.5744   59.4815   22.9931 H         1 FAV         0.0506
     32 H8         23.9814   63.7791   19.7297 H         1 FAV         0.0503
     33 H9         22.6325   65.2016   18.2348 H         1 FAV         0.0579
     34 H10        21.3216   64.1659   16.4144 H         1 FAV         0.0488
     35 H11        21.3757   61.7180   16.0932 H         1 FAV         0.0583
     36 H12        26.1530   60.5113   20.2148 H         1 FAV         0.0550
     37 H13        26.1226   62.1083   19.3931 H         1 FAV         0.0550
     38 H14        25.8340   60.6072   18.4497 H         1 FAV         0.0550
@<TRIPOS>BOND
     1    1    5 ar 
     2   10    1 ar 
     3   16    2 am 
     4    2   17 1  
     5    2   23 1  
     6    3    8 1  
     7   11    3 1  
     8    4   13 1  
     9   15    4 1  
    10    7    5 ar 
    11   16    6 2  
    12    8    7 ar 
    13    9    8 ar 
    14    9   10 ar 
    15   13    9 1  
    16   12   11 1  
    17   12   13 2  
    18   14   12 1  
    19   15   14 2  
    20   15   16 1  
    21   17   18 ar 
    22   17   22 ar 
    23   18   19 ar 
    24   19   20 ar 
    25   20   21 ar 
    26   21   22 ar 
    27   22   24 1  
    28    1   25 1  
    29    5   26 1  
    30    7   27 1  
    31   10   28 1  
    32   11   29 1  
    33   11   30 1  
    34   14   31 1  
    35   18   32 1  
    36   19   33 1  
    37   20   34 1  
    38   21   35 1  
    39   23   36 1  
    40   23   37 1  
    41   23   38 1  
@<TRIPOS>SUBSTRUCTURE
     1 FAV         1

