### 
### Created by X-TOOL on Mon Sep 10 21:13:07 2018
### 

@<TRIPOS>MOLECULE
3r7r_ligand
   48    51     1     0     0
SMALL
GAST_HUCK


@<TRIPOS>ATOM
      1 C1         17.4960   62.8130   22.3220 C.ar      1 FAZ         0.0594
      2 N1         25.8180   61.7890   20.5530 N.am      1 FAZ        -0.2239
      3 O1         19.2330   60.2410   24.0950 O.3       1 FAZ        -0.3172
      4 S1         22.6460   62.0630   21.3280 S.3       1 FAZ        -0.0384
      5 C2         18.4950   63.4000   21.5640 C.ar      1 FAZ        -0.0503
      6 N2         16.1810   63.2540   22.2660 N.am      1 FAZ        -0.2352
      7 O2         26.1110   60.3600   22.1660 O.2       1 FAZ        -0.3828
      8 C3         19.7780   62.9280   21.6530 C.ar      1 FAZ        -0.0736
      9 O3         16.7630   65.3540   21.8460 O.2       1 FAZ        -0.3844
     10 C4         20.0950   61.8660   22.4760 C.ar      1 FAZ         0.0067
     11 C5         19.0650   61.2660   23.2460 C.ar      1 FAZ         0.0900
     12 C6         17.7910   61.7540   23.1500 C.ar      1 FAZ        -0.0113
     13 C7         21.5060   61.4510   22.4680 C.2       1 FAZ         0.0288
     14 C8         22.1460   60.5790   23.3110 C.2       1 FAZ        -0.0444
     15 C9         21.4670   59.8660   24.4370 C.3       1 FAZ        -0.0023
     16 C10        20.2120   59.2570   23.8630 C.3       1 FAZ         0.0772
     17 C11        23.9540   61.1240   22.0030 C.2       1 FAZ         0.0964
     18 C12        23.4680   60.4110   23.0360 C.2       1 FAZ        -0.0538
     19 C13        25.3370   61.0780   21.5740 C.2       1 FAZ         0.2319
     20 C14        25.0190   62.6470   19.8230 C.ar      1 FAZ         0.0819
     21 C15        24.9780   63.9920   20.1220 C.ar      1 FAZ        -0.0405
     22 C16        24.1690   64.8150   19.3650 C.ar      1 FAZ        -0.0753
     23 C17        23.4020   64.3040   18.3170 C.ar      1 FAZ        -0.0766
     24 C18        23.4480   62.9650   18.0240 C.ar      1 FAZ        -0.0616
     25 C19        24.2630   62.1610   18.7830 C.ar      1 FAZ         0.0595
     26 C20        15.8860   64.5370   22.0200 C.2       1 FAZ         0.2017
     27 C21        14.4420   64.9390   21.9760 C.3       1 FAZ         0.0319
     28 C22        27.2280   61.6590   20.2350 C.3       1 FAZ         0.0437
     29 CL1        24.3410   60.4850   18.4390 Cl        1 FAZ        -0.0830
     30 H          18.2620   64.2327   20.9004 H         1 FAZ         0.0429
     31 H          15.4238   62.5871   22.4153 H         1 FAZ         0.2273
     32 H          20.5635   63.4000   21.0627 H         1 FAZ         0.0546
     33 H          16.9961   61.2966   23.7390 H         1 FAZ         0.0423
     34 H          21.2311   60.5539   25.2489 H         1 FAZ         0.0404
     35 H          22.1150   59.0986   24.8604 H         1 FAZ         0.0404
     36 H          20.3134   59.0097   22.8063 H         1 FAZ         0.0634
     37 H          19.9620   58.3021   24.3253 H         1 FAZ         0.0634
     38 H          24.0970   59.7379   23.6186 H         1 FAZ         0.0491
     39 H          25.5729   64.3977   20.9403 H         1 FAZ         0.0502
     40 H          24.1285   65.8809   19.5892 H         1 FAZ         0.0579
     41 H          22.7667   64.9688   17.7317 H         1 FAZ         0.0488
     42 H          22.8535   62.5497   17.2102 H         1 FAZ         0.0583
     43 H          14.2509   65.6874   22.7450 H         1 FAZ         0.0472
     44 H          14.2121   65.3566   20.9957 H         1 FAZ         0.0472
     45 H          13.8170   64.0642   22.1553 H         1 FAZ         0.0472
     46 H          27.8229   61.9621   21.0966 H         1 FAZ         0.0549
     47 H          27.4489   60.6210   19.9864 H         1 FAZ         0.0549
     48 H          27.4675   62.2966   19.3840 H         1 FAZ         0.0549
@<TRIPOS>BOND
     1    5    1 ar 
     2    1    6 1  
     3   12    1 ar 
     4   19    2 am 
     5    2   20 1  
     6    2   28 1  
     7   11    3 1  
     8   16    3 1  
     9    4   13 1  
    10   17    4 1  
    11    8    5 ar 
    12    6   26 am 
    13   19    7 2  
    14   10    8 ar 
    15   26    9 2  
    16   10   11 ar 
    17   13   10 1  
    18   11   12 ar 
    19   14   13 2  
    20   14   15 1  
    21   18   14 1  
    22   15   16 1  
    23   17   18 2  
    24   17   19 1  
    25   20   21 ar 
    26   20   25 ar 
    27   21   22 ar 
    28   22   23 ar 
    29   23   24 ar 
    30   24   25 ar 
    31   25   29 1  
    32   26   27 1  
    33    5   30 1  
    34    6   31 1  
    35    8   32 1  
    36   12   33 1  
    37   15   34 1  
    38   15   35 1  
    39   16   36 1  
    40   16   37 1  
    41   18   38 1  
    42   21   39 1  
    43   22   40 1  
    44   23   41 1  
    45   24   42 1  
    46   27   43 1  
    47   27   44 1  
    48   27   45 1  
    49   28   46 1  
    50   28   47 1  
    51   28   48 1  
@<TRIPOS>SUBSTRUCTURE
     1 FAZ         1

