### 
### Created by X-TOOL on Mon Sep 10 21:13:09 2018
### 

@<TRIPOS>MOLECULE
3r88_ligand
   24    24     1     0     0
SMALL
GAST_HUCK


@<TRIPOS>ATOM
      1 CAA        -8.2390  -29.4020    5.7910 C.3       1 14F         0.0575
      2 CAB        -4.4180  -32.1130    8.8800 C.3       1 14F         0.0541
      3 NAC        -3.5570  -28.2310    4.2100 N.pl3     1 14F        -0.3417
      4 OAD        -0.9460  -30.0760    6.8140 O.co2     1 14F        -0.5680
      5 OAE        -1.2310  -28.6930    5.1150 O.co2     1 14F        -0.5680
      6 CAF        -5.4140  -29.2270    5.2580 C.ar      1 14F        -0.0197
      7 CAG        -3.6750  -30.4740    7.0460 C.ar      1 14F        -0.0382
      8 OAH        -7.2800  -30.2860    6.4060 O.3       1 14F        -0.3257
      9 OAI        -5.5040  -31.4810    8.1340 O.3       1 14F        -0.3326
     10 CAJ        -1.6660  -29.4580    5.9960 C.2       1 14F         0.0463
     11 CAK        -4.0370  -29.0200    5.1620 C.ar      1 14F         0.0307
     12 CAL        -5.9350  -30.0490    6.2630 C.ar      1 14F         0.1123
     13 CAM        -5.0460  -30.6670    7.1570 C.ar      1 14F         0.1097
     14 CAN        -3.1690  -29.6440    6.0670 C.ar      1 14F         0.0075
     15 H1         -9.2572  -29.7523    6.0156 H         1 14F         0.0574
     16 H2         -8.0856  -29.3952    4.7018 H         1 14F         0.0574
     17 H3         -8.1058  -28.3842    6.1865 H         1 14F         0.0574
     18 H4         -4.8394  -32.7632    9.6608 H         1 14F         0.0568
     19 H5         -3.7936  -31.3370    9.3467 H         1 14F         0.0568
     20 H6         -3.8036  -32.7147    8.1941 H         1 14F         0.0568
     21 H7         -4.1995  -27.7744    3.5469 H         1 14F         0.1702
     22 H8         -2.5418  -28.0749    4.1338 H         1 14F         0.1702
     23 H9         -6.0824  -28.7489    4.5510 H         1 14F         0.0418
     24 H10        -3.0010  -30.9767    7.7302 H         1 14F         0.0509
@<TRIPOS>BOND
     1    8    1 1  
     2    9    2 1  
     3   11    3 1  
     4   10    4 ar 
     5   10    5 ar 
     6   11    6 ar 
     7    6   12 ar 
     8    7   13 ar 
     9   14    7 ar 
    10   12    8 1  
    11   13    9 1  
    12   14   10 1  
    13   11   14 ar 
    14   12   13 ar 
    15    1   15 1  
    16    1   16 1  
    17    1   17 1  
    18    2   18 1  
    19    2   19 1  
    20    2   20 1  
    21    3   21 1  
    22    3   22 1  
    23    6   23 1  
    24    7   24 1  
@<TRIPOS>SUBSTRUCTURE
     1 14F         1

