### 
### Created by X-TOOL on Mon Sep 10 21:13:12 2018
### 

@<TRIPOS>MOLECULE
3r8i_ligand
   65    67     1     0     0
SMALL
GAST_HUCK


@<TRIPOS>ATOM
      1 N1         18.3400    8.3930    9.8040 N.2       1 XCX        -0.2971
      2 N2         17.0350    6.5830   10.5750 N.pl3     1 XCX        -0.2485
      3 C1          9.1390    5.3070    9.5850 C.3       1 XCX        -0.0653
      4 C2         21.2620    7.3880   17.4110 C.3       1 XCX        -0.0271
      5 C3         18.8080    7.8560   17.6160 C.3       1 XCX        -0.0271
      6 O1         21.0300    7.5110   20.0340 O.co2     1 XCX        -0.5447
      7 O2         19.1800    6.2780   20.1730 O.co2     1 XCX        -0.5447
      8 C4         18.3930   11.6200    7.9960 C.ar      1 XCX        -0.0792
      9 C5         17.0530   11.6190    7.6270 C.ar      1 XCX        -0.0763
     10 C6         19.5620    5.3090   13.9230 C.ar      1 XCX        -0.0687
     11 C7         17.3230    5.2450   14.7990 C.ar      1 XCX        -0.0687
     12 C8         20.0620    5.4460   15.2150 C.ar      1 XCX        -0.0397
     13 C9         17.8240    5.3830   16.0870 C.ar      1 XCX        -0.0397
     14 C10        18.9180   10.5610    8.7280 C.ar      1 XCX        -0.0662
     15 C11        16.2380   10.5520    7.9870 C.ar      1 XCX        -0.0329
     16 C12        10.5580    5.7630    9.2370 C.3       1 XCX        -0.0559
     17 C13        11.3940    5.9210   10.5080 C.3       1 XCX        -0.0533
     18 C14        12.8100    6.4190   10.2120 C.3       1 XCX        -0.0530
     19 C15        13.6100    5.4100    9.3870 C.3       1 XCX        -0.0512
     20 C16        15.0660    5.8680    9.2720 C.3       1 XCX        -0.0318
     21 C17        17.6310    4.9690   12.3080 C.3       1 XCX        -0.0030
     22 C18        15.6980    5.9760   10.6610 C.3       1 XCX         0.0385
     23 C19        18.1690    5.9660   11.2780 C.3       1 XCX         0.0464
     24 O3         19.6800    5.5650   17.5720 O.3       1 XCX        -0.3124
     25 O4         16.2020    8.3600    9.2240 O.3       1 XCX        -0.1975
     26 C20        20.0610    6.8960   19.5360 C.2       1 XCX         0.0804
     27 C21        18.1920    5.2020   13.7110 C.ar      1 XCX        -0.0517
     28 C22        19.1950    5.4800   16.3000 C.ar      1 XCX         0.0839
     29 C23        17.2020    7.7130    9.8940 C.2       1 XCX         0.2790
     30 C24        18.1040    9.4940    9.0930 C.ar      1 XCX         0.0267
     31 C25        16.7650    9.4930    8.7180 C.ar      1 XCX         0.1385
     32 C26        19.9400    6.9040   18.0100 C.3       1 XCX         0.1285
     33 H           8.5519    5.1984    8.6612 H         1 XCX         0.0230
     34 H           8.6629    6.0548   10.2362 H         1 XCX         0.0230
     35 H           9.1824    4.3401   10.1077 H         1 XCX         0.0230
     36 H          21.4621    8.4161   17.7470 H         1 XCX         0.0253
     37 H          21.1965    7.3673   16.3132 H         1 XCX         0.0253
     38 H          22.0778    6.7287   17.7422 H         1 XCX         0.0253
     39 H          17.8621    7.5006   18.0506 H         1 XCX         0.0253
     40 H          18.7193    7.8865   16.5200 H         1 XCX         0.0253
     41 H          19.0290    8.8650   17.9943 H         1 XCX         0.0253
     42 H          19.0309   12.4492    7.7121 H         1 XCX         0.0520
     43 H          16.6446   12.4478    7.0601 H         1 XCX         0.0520
     44 H          20.2428    5.2857   13.0797 H         1 XCX         0.0530
     45 H          16.2533    5.1706   14.6400 H         1 XCX         0.0530
     46 H          21.1311    5.5264   15.3749 H         1 XCX         0.0525
     47 H          17.1434    5.4153   16.9301 H         1 XCX         0.0525
     48 H          19.9634   10.5669    9.0147 H         1 XCX         0.0523
     49 H          15.1932   10.5455    7.6983 H         1 XCX         0.0551
     50 H          10.5100    6.7287    8.7124 H         1 XCX         0.0263
     51 H          11.0295    5.0139    8.5839 H         1 XCX         0.0263
     52 H          11.4600    4.9454   11.0118 H         1 XCX         0.0265
     53 H          10.8963    6.6434   11.1716 H         1 XCX         0.0265
     54 H          13.3320    6.5926   11.1645 H         1 XCX         0.0265
     55 H          12.7447    7.3636    9.6521 H         1 XCX         0.0265
     56 H          13.1717    5.3323    8.3811 H         1 XCX         0.0266
     57 H          13.5748    4.4269    9.8793 H         1 XCX         0.0266
     58 H          15.0997    6.8514    8.7802 H         1 XCX         0.0285
     59 H          15.6299    5.1385    8.6722 H         1 XCX         0.0285
     60 H          17.9009    3.9522   11.9865 H         1 XCX         0.0425
     61 H          16.5357    5.0624   12.3480 H         1 XCX         0.0425
     62 H          15.0580    6.6002   11.3019 H         1 XCX         0.0531
     63 H          15.7849    4.9702   11.0979 H         1 XCX         0.0531
     64 H          18.7547    6.7446   11.7887 H         1 XCX         0.0552
     65 H          18.8098    5.4402   10.5549 H         1 XCX         0.0552
@<TRIPOS>BOND
     1   29    1 2  
     2    1   30 1  
     3    2   22 1  
     4   23    2 1  
     5    2   29 1  
     6   16    3 1  
     7    3   33 1  
     8    3   34 1  
     9    3   35 1  
    10   32    4 1  
    11    4   36 1  
    12    4   37 1  
    13    4   38 1  
    14   32    5 1  
    15    5   39 1  
    16    5   40 1  
    17    5   41 1  
    18   26    6 ar 
    19   26    7 ar 
    20    9    8 ar 
    21   14    8 ar 
    22    8   42 1  
    23   15    9 ar 
    24    9   43 1  
    25   12   10 ar 
    26   10   27 ar 
    27   10   44 1  
    28   13   11 ar 
    29   11   27 ar 
    30   11   45 1  
    31   28   12 ar 
    32   12   46 1  
    33   28   13 ar 
    34   13   47 1  
    35   30   14 ar 
    36   14   48 1  
    37   31   15 ar 
    38   15   49 1  
    39   17   16 1  
    40   16   50 1  
    41   16   51 1  
    42   18   17 1  
    43   17   52 1  
    44   17   53 1  
    45   19   18 1  
    46   18   54 1  
    47   18   55 1  
    48   20   19 1  
    49   19   56 1  
    50   19   57 1  
    51   22   20 1  
    52   20   58 1  
    53   20   59 1  
    54   21   23 1  
    55   27   21 1  
    56   21   60 1  
    57   21   61 1  
    58   22   62 1  
    59   22   63 1  
    60   23   64 1  
    61   23   65 1  
    62   24   28 1  
    63   32   24 1  
    64   29   25 1  
    65   25   31 1  
    66   26   32 1  
    67   30   31 ar 
@<TRIPOS>SUBSTRUCTURE
     1 XCX         1

