### 
### Created by X-TOOL on Mon Sep 10 21:13:10 2018
### 

@<TRIPOS>MOLECULE
3r8u_ligand
   41    43     1     0     0
SMALL
GAST_HUCK


@<TRIPOS>ATOM
      1 C1        -61.9650 -117.9420  -46.7740 C.3       1 Z31        -0.0634
      2 C2        -62.2660 -119.3360  -47.1480 C.3       1 Z31        -0.0351
      3 C3        -63.5220 -119.7260  -47.5010 C.3       1 Z31         0.0315
      4 N4        -63.7570 -119.4790  -48.9230 N.pl3     1 Z31        -0.2889
      5 C5        -64.7240 -118.5850  -49.3040 C.2       1 Z31         0.1685
      6 S6        -65.4750 -117.4880  -48.2360 S.3       1 Z31        -0.0017
      7 C7        -66.3970 -116.8690  -49.5350 C.2       1 Z31         0.0568
      8 C8        -66.0840 -117.5570  -50.7240 C.2       1 Z31         0.0515
      9 N9        -65.1420 -118.5100  -50.5680 N.2       1 Z31        -0.3077
     10 N10       -66.6230 -117.3290  -51.9330 N.pl3     1 Z31        -0.3522
     11 C11       -67.2820 -115.8370  -49.3540 C.3       1 Z31         0.1150
     12 C12       -67.4830 -115.1930  -48.0070 C.ar      1 Z31        -0.0088
     13 C13       -67.7110 -115.9770  -46.8160 C.ar      1 Z31        -0.0518
     14 C14       -67.8680 -115.3420  -45.5450 C.ar      1 Z31        -0.0261
     15 C15       -67.8000 -113.8910  -45.4600 C.ar      1 Z31        -0.0224
     16 C16       -67.5820 -113.1260  -46.6380 C.ar      1 Z31        -0.0567
     17 C17       -67.4220 -113.7710  -47.9020 C.ar      1 Z31        -0.0533
     18 C18       -68.0870 -116.1150  -44.3530 C.ar      1 Z31        -0.0580
     19 C19       -68.2340 -115.4550  -43.0950 C.ar      1 Z31        -0.0639
     20 C20       -68.1650 -114.0330  -43.0140 C.ar      1 Z31        -0.0636
     21 C21       -67.9500 -113.2500  -44.1860 C.ar      1 Z31        -0.0569
     22 O22       -67.9960 -115.3340  -50.3950 O.3       1 Z31        -0.3728
     23 H1        -60.8969 -117.8510  -46.5274 H         1 Z31         0.0230
     24 H2        -62.5687 -117.6585  -45.8993 H         1 Z31         0.0230
     25 H3        -62.2048 -117.2764  -47.6163 H         1 Z31         0.0230
     26 H4        -61.9801 -119.9565  -46.2859 H         1 Z31         0.0282
     27 H5        -61.6162 -119.5744  -48.0029 H         1 Z31         0.0282
     28 H6        -64.2562 -119.1593  -46.9095 H         1 Z31         0.0526
     29 H7        -63.6376 -120.8007  -47.2969 H         1 Z31         0.0526
     30 H8        -63.1995 -119.9736  -49.6339 H         1 Z31         0.1878
     31 H9        -66.3249 -117.8898  -52.7438 H         1 Z31         0.1624
     32 H10       -67.3345 -116.5933  -52.0492 H         1 Z31         0.1624
     33 H11       -68.0798 -116.5632  -49.1391 H         1 Z31         0.0850
     34 H12       -67.7636 -117.0574  -46.8864 H         1 Z31         0.0529
     35 H13       -67.5369 -112.0447  -46.5764 H         1 Z31         0.0619
     36 H14       -67.2524 -113.1743  -48.7910 H         1 Z31         0.0588
     37 H15       -68.1404 -117.1962  -44.4088 H         1 Z31         0.0602
     38 H16       -68.3990 -116.0385  -42.1965 H         1 Z31         0.0611
     39 H17       -68.2769 -113.5433  -42.0534 H         1 Z31         0.0597
     40 H18       -67.8999 -112.1696  -44.1140 H         1 Z31         0.0619
     41 H19       -67.7858 -115.8180  -51.1850 H         1 Z31         0.2152
@<TRIPOS>BOND
     1    1    2 1  
     2    2    3 1  
     3    3    4 1  
     4    4    5 1  
     5    5    6 1  
     6    5    9 2  
     7    6    7 1  
     8    7    8 2  
     9    7   11 1  
    10    8    9 1  
    11    8   10 1  
    12   11   12 1  
    13   11   22 1  
    14   12   13 ar 
    15   12   17 ar 
    16   13   14 ar 
    17   14   15 ar 
    18   14   18 ar 
    19   15   16 ar 
    20   15   21 ar 
    21   16   17 ar 
    22   18   19 ar 
    23   19   20 ar 
    24   20   21 ar 
    25    1   23 1  
    26    1   24 1  
    27    1   25 1  
    28    2   26 1  
    29    2   27 1  
    30    3   28 1  
    31    3   29 1  
    32    4   30 1  
    33   10   31 1  
    34   10   32 1  
    35   11   33 1  
    36   13   34 1  
    37   16   35 1  
    38   17   36 1  
    39   18   37 1  
    40   19   38 1  
    41   20   39 1  
    42   21   40 1  
    43   22   41 1  
@<TRIPOS>SUBSTRUCTURE
     1 Z31         1

