### 
### Created by X-TOOL on Mon Sep 10 21:13:10 2018
### 

@<TRIPOS>MOLECULE
3r8v_ligand
   37    38     1     0     0
SMALL
GAST_HUCK


@<TRIPOS>ATOM
      1 N1        -65.0440  -81.9560  -86.8490 N.2       1 Z62        -0.1073
      2 C2        -65.9620  -80.9850  -86.9850 C.2       1 Z62         0.3469
      3 N3        -66.5280  -80.7370  -88.1990 N.pl3     1 Z62        -0.2309
      4 C4        -66.2450  -80.2900  -85.7800 C.2       1 Z62         0.3348
      5 C5        -67.1230  -79.2380  -85.6110 C.3       1 Z62         0.2510
      6 C6        -67.3840  -78.5420  -84.3100 C.ar      1 Z62         0.0555
      7 C7        -67.5480  -79.2730  -83.0820 C.ar      1 Z62        -0.0083
      8 C8        -67.8190  -78.6090  -81.8370 C.ar      1 Z62         0.0853
      9 C9        -67.9270  -77.1660  -81.8640 C.ar      1 Z62        -0.0283
     10 C10       -67.7670  -76.4380  -83.0710 C.ar      1 Z62        -0.0529
     11 C11       -67.4960  -77.1160  -84.2900 C.ar      1 Z62        -0.0366
     12 O12       -67.8070  -78.7490  -86.6610 O.3       1 Z62        -0.3223
     13 S13       -65.3170  -80.9250  -84.4780 S.3       1 Z62         0.2443
     14 C14       -64.6040  -82.0440  -85.5690 C.2       1 Z62         0.3199
     15 N15       -63.6460  -82.9660  -85.2010 N.pl3     1 Z62        -0.2263
     16 C16       -63.2480  -83.1340  -83.7980 C.3       1 Z62         0.0566
     17 C17       -62.3290  -82.0260  -83.3370 C.3       1 Z62        -0.0297
     18 C18       -62.7320  -81.0920  -82.2550 C.3       1 Z62        -0.0629
     19 N19       -67.9640  -79.3090  -80.6970 N.2       1 Z62        -0.2164
     20 O20       -67.8520  -80.6400  -80.6730 O.2       1 Z62        -0.4885
     21 O21       -68.2000  -78.7660  -79.6410 O.2       1 Z62        -0.4885
     22 H1        -67.2314  -79.9909  -88.2965 H         1 Z62         0.2391
     23 H2        -66.2526  -81.2956  -89.0194 H         1 Z62         0.2391
     24 H3        -67.9241  -79.9598  -85.3935 H         1 Z62         0.1541
     25 H4        -67.4649  -80.3537  -83.0963 H         1 Z62         0.0690
     26 H5        -68.1342  -76.6312  -80.9442 H         1 Z62         0.0687
     27 H6        -67.8520  -75.3574  -83.0633 H         1 Z62         0.0634
     28 H7        -67.3738  -76.5512  -85.2071 H         1 Z62         0.0661
     29 H8        -67.5844  -79.2439  -87.4408 H         1 Z62         0.2270
     30 H9        -63.2012  -83.5481  -85.9250 H         1 Z62         0.2328
     31 H10       -62.7272  -84.0967  -83.6888 H         1 Z62         0.0593
     32 H11       -64.1507  -83.1321  -83.1694 H         1 Z62         0.0593
     33 H12       -62.1195  -81.4065  -84.2215 H         1 Z62         0.0287
     34 H13       -61.4007  -82.5107  -83.0006 H         1 Z62         0.0287
     35 H14       -61.9237  -80.3677  -82.0759 H         1 Z62         0.0231
     36 H15       -62.9259  -81.6603  -81.3334 H         1 Z62         0.0231
     37 H16       -63.6448  -80.5561  -82.5543 H         1 Z62         0.0231
@<TRIPOS>BOND
     1    1    2 1  
     2    1   14 2  
     3    2    3 1  
     4    2    4 2  
     5    4    5 1  
     6    4   13 1  
     7    5    6 1  
     8    5   12 1  
     9    6    7 ar 
    10    6   11 ar 
    11    7    8 ar 
    12    8    9 ar 
    13    8   19 1  
    14    9   10 ar 
    15   10   11 ar 
    16   13   14 1  
    17   14   15 1  
    18   15   16 1  
    19   16   17 1  
    20   17   18 1  
    21   19   20 2  
    22   19   21 2  
    23    3   22 1  
    24    3   23 1  
    25    5   24 1  
    26    7   25 1  
    27    9   26 1  
    28   10   27 1  
    29   11   28 1  
    30   12   29 1  
    31   15   30 1  
    32   16   31 1  
    33   16   32 1  
    34   17   33 1  
    35   17   34 1  
    36   18   35 1  
    37   18   36 1  
    38   18   37 1  
@<TRIPOS>SUBSTRUCTURE
     1 Z62         1

