### 
### Created by X-TOOL on Mon Sep 10 21:13:10 2018
### 

@<TRIPOS>MOLECULE
3r8z_ligand
   34    35     1     0     0
SMALL
GAST_HUCK


@<TRIPOS>ATOM
      1 N1        -64.7410  -46.5530  -49.0630 N.2       1 Z63        -0.3075
      2 C2        -65.7440  -45.7430  -49.4020 C.2       1 Z63         0.0519
      3 N3        -66.1350  -45.6630  -50.6820 N.pl3     1 Z63        -0.3521
      4 C4        -66.3060  -45.0190  -48.3400 C.2       1 Z63         0.0588
      5 C5        -67.3590  -44.1040  -48.4410 C.3       1 Z63         0.1217
      6 C6        -67.9510  -43.3370  -47.2960 C.ar      1 Z63         0.0102
      7 C7        -67.1420  -42.5970  -46.3750 C.ar      1 Z63        -0.0293
      8 C8        -67.7650  -41.8900  -45.3130 C.ar      1 Z63         0.0027
      9 N9        -69.1450  -41.9230  -45.1820 N.ar      1 Z63        -0.3073
     10 C10       -69.9570  -42.6260  -46.0530 C.ar      1 Z63         0.0027
     11 C11       -69.3790  -43.3480  -47.1280 C.ar      1 Z63        -0.0293
     12 O12       -67.9310  -43.8540  -49.6470 O.3       1 Z63        -0.3708
     13 S13       -65.5030  -45.4110  -46.8510 S.3       1 Z63        -0.0014
     14 C14       -64.4830  -46.4940  -47.7480 C.2       1 Z63         0.1686
     15 N15       -63.4770  -47.2460  -47.2030 N.pl3     1 Z63        -0.2888
     16 C16       -63.1360  -47.1160  -45.7990 C.3       1 Z63         0.0315
     17 C17       -61.8620  -46.3450  -45.6380 C.3       1 Z63        -0.0351
     18 C18       -61.8490  -44.8820  -45.6440 C.3       1 Z63        -0.0634
     19 H1        -66.9098  -45.0377  -50.9457 H         1 Z63         0.1624
     20 H2        -65.6606  -46.2269  -51.4016 H         1 Z63         0.1624
     21 H3        -66.6223  -43.3026  -48.5993 H         1 Z63         0.0874
     22 H4        -66.0640  -42.5768  -46.4875 H         1 Z63         0.0651
     23 H5        -67.1645  -41.3269  -44.6077 H         1 Z63         0.0801
     24 H6        -71.0321  -42.6252  -45.9145 H         1 Z63         0.0801
     25 H7        -70.0071  -43.9024  -47.8159 H         1 Z63         0.0651
     26 H8        -67.8374  -42.9320  -49.8556 H         1 Z63         0.2156
     27 H9        -62.9577  -47.9099  -47.7951 H         1 Z63         0.1879
     28 H10       -63.0104  -48.1179  -45.3627 H         1 Z63         0.0526
     29 H11       -63.9473  -46.5877  -45.2768 H         1 Z63         0.0526
     30 H12       -61.2000  -46.6647  -46.4562 H         1 Z63         0.0282
     31 H13       -61.4308  -46.6554  -44.6748 H         1 Z63         0.0282
     32 H14       -60.8173  -44.5240  -45.5122 H         1 Z63         0.0230
     33 H15       -62.4753  -44.5063  -44.8214 H         1 Z63         0.0230
     34 H16       -62.2445  -44.5157  -46.6028 H         1 Z63         0.0230
@<TRIPOS>BOND
     1    1    2 1  
     2    1   14 2  
     3    2    3 1  
     4    2    4 2  
     5    4    5 1  
     6    4   13 1  
     7    5    6 1  
     8    5   12 1  
     9    6    7 ar 
    10    6   11 ar 
    11    7    8 ar 
    12    8    9 ar 
    13    9   10 ar 
    14   10   11 ar 
    15   13   14 1  
    16   14   15 1  
    17   15   16 1  
    18   16   17 1  
    19   17   18 1  
    20    3   19 1  
    21    3   20 1  
    22    5   21 1  
    23    7   22 1  
    24    8   23 1  
    25   10   24 1  
    26   11   25 1  
    27   12   26 1  
    28   15   27 1  
    29   16   28 1  
    30   16   29 1  
    31   17   30 1  
    32   17   31 1  
    33   18   32 1  
    34   18   33 1  
    35   18   34 1  
@<TRIPOS>SUBSTRUCTURE
     1 Z63         1

