### 
### Created by X-TOOL on Mon Sep 10 21:13:06 2018
### 

@<TRIPOS>MOLECULE
3r91_ligand
   64    67     1     0     0
SMALL
GAST_HUCK


@<TRIPOS>ATOM
      1 C1         40.7610    9.2630   23.2300 C.3       1 06H        -0.0557
      2 C2         39.6460   10.1790   23.6160 C.2       1 06H        -0.0613
      3 C3         38.2930    9.8400   23.7190 C.2       1 06H         0.0439
      4 N1         37.6010   10.9970   24.1100 N.pl3     1 06H        -0.2308
      5 C4         38.5140   12.0330   24.2570 C.2       1 06H         0.0668
      6 C5         39.7700   11.5590   23.9660 C.2       1 06H         0.0074
      7 C6         40.9310   12.4320   24.0550 C.2       1 06H         0.0957
      8 O1         42.0610   11.9580   24.0030 O.2       1 06H        -0.4028
      9 C7         40.7050   13.8740   24.5180 C.3       1 06H         0.0212
     10 C8         39.4430   14.0580   25.4000 C.3       1 06H        -0.0089
     11 C9         38.2070   13.4380   24.6860 C.3       1 06H         0.0114
     12 C10        39.1770   15.5560   25.6470 C.3       1 06H        -0.0559
     13 C11        39.6720   13.4070   26.7770 C.3       1 06H        -0.0559
     14 C12        36.2060   11.1230   24.3430 C.ar      1 06H         0.0846
     15 C13        35.4000   12.0590   23.6870 C.ar      1 06H        -0.0353
     16 C14        34.0240   12.0620   23.9260 C.ar      1 06H        -0.0574
     17 C15        33.4440   11.1450   24.8190 C.ar      1 06H         0.0592
     18 C16        34.2440   10.1930   25.5000 C.ar      1 06H         0.0564
     19 C17        35.6300   10.2330   25.2610 C.ar      1 06H        -0.0056
     20 N2         33.6670    9.2980   26.3930 N.pl3     1 06H        -0.2995
     21 C18        34.3480    8.3170   27.2560 C.3       1 06H         0.1231
     22 C19        35.4730    7.5450   26.5380 C.2       1 06H         0.2032
     23 O2         36.4980    7.3130   27.1740 O.2       1 06H        -0.3944
     24 N3         35.3730    7.1430   25.1980 N.am      1 06H        -0.2743
     25 C20        36.5510    6.4650   24.6300 C.3       1 06H         0.0350
     26 C21        37.7460    7.4550   24.5610 C.3       1 06H        -0.0245
     27 C22        37.6360    8.4980   23.4280 C.3       1 06H        -0.0059
     28 C23        34.2200    7.3170   24.2980 C.3       1 06H         0.0226
     29 C24        33.3280    7.3750   27.8890 C.3       1 06H        -0.0248
     30 C25        31.9710   11.2010   25.0570 C.2       1 06H         0.1889
     31 O3         31.4860   10.7600   26.0930 O.2       1 06H        -0.3957
     32 N4         31.2090   11.7780   24.0740 N.am      1 06H        -0.3034
     33 H1         40.3565    8.2626   23.0167 H         1 06H         0.0298
     34 H2         41.4844    9.1974   24.0561 H         1 06H         0.0298
     35 H3         41.2632    9.6543   22.3330 H         1 06H         0.0298
     36 H4         40.6018   14.5119   23.6278 H         1 06H         0.0483
     37 H5         41.5831   14.1935   25.0983 H         1 06H         0.0483
     38 H6         37.3526   13.4290   25.3788 H         1 06H         0.0457
     39 H7         37.9559   14.0423   23.8019 H         1 06H         0.0457
     40 H8         40.0455   16.0042   26.1518 H         1 06H         0.0238
     41 H9         38.2852   15.6705   26.2807 H         1 06H         0.0238
     42 H10        39.0105   16.0624   24.6848 H         1 06H         0.0238
     43 H11        39.8664   12.3322   26.6466 H         1 06H         0.0238
     44 H12        38.7767   13.5446   27.4011 H         1 06H         0.0238
     45 H13        40.5364   13.8792   27.2667 H         1 06H         0.0238
     46 H14        35.8385   12.7743   23.0006 H         1 06H         0.0488
     47 H15        33.3945   12.7818   23.4155 H         1 06H         0.0618
     48 H16        36.2748    9.5524   25.8052 H         1 06H         0.0484
     49 H17        32.6395    9.3235   26.4596 H         1 06H         0.1810
     50 H18        34.8231    8.8814   28.0719 H         1 06H         0.0792
     51 H19        36.3137    6.1081   23.6170 H         1 06H         0.0523
     52 H20        36.8219    5.6095   25.2661 H         1 06H         0.0523
     53 H21        38.6674    6.8741   24.4074 H         1 06H         0.0302
     54 H22        37.8061    7.9913   25.5195 H         1 06H         0.0302
     55 H23        38.1082    8.0753   22.5289 H         1 06H         0.0396
     56 H24        36.5685    8.6767   23.2320 H         1 06H         0.0396
     57 H25        33.4101    7.8324   24.8351 H         1 06H         0.0486
     58 H26        33.8667    6.3317   23.9600 H         1 06H         0.0486
     59 H27        34.5220    7.9169   23.4269 H         1 06H         0.0486
     60 H28        33.8485    6.6483   28.5301 H         1 06H         0.0276
     61 H29        32.7819    6.8406   27.0977 H         1 06H         0.0276
     62 H30        32.6184    7.9569   28.4955 H         1 06H         0.0276
     63 H31        30.2169   11.8413   24.1828 H         1 06H         0.1801
     64 H32        31.6453   12.1356   23.2483 H         1 06H         0.1801
@<TRIPOS>BOND
     1    1    2 1  
     2    2    3 2  
     3    2    6 1  
     4    3    4 1  
     5    3   27 1  
     6    4    5 1  
     7    4   14 1  
     8    5    6 2  
     9    5   11 1  
    10    6    7 1  
    11    7    8 2  
    12    7    9 1  
    13    9   10 1  
    14   10   11 1  
    15   10   12 1  
    16   10   13 1  
    17   14   15 ar 
    18   14   19 ar 
    19   15   16 ar 
    20   16   17 ar 
    21   17   18 ar 
    22   17   30 1  
    23   18   19 ar 
    24   18   20 1  
    25   20   21 1  
    26   21   22 1  
    27   21   29 1  
    28   22   23 2  
    29   22   24 am 
    30   24   25 1  
    31   24   28 1  
    32   25   26 1  
    33   26   27 1  
    34   30   31 2  
    35   30   32 am 
    36    1   33 1  
    37    1   34 1  
    38    1   35 1  
    39    9   36 1  
    40    9   37 1  
    41   11   38 1  
    42   11   39 1  
    43   12   40 1  
    44   12   41 1  
    45   12   42 1  
    46   13   43 1  
    47   13   44 1  
    48   13   45 1  
    49   15   46 1  
    50   16   47 1  
    51   19   48 1  
    52   20   49 1  
    53   21   50 1  
    54   25   51 1  
    55   25   52 1  
    56   26   53 1  
    57   26   54 1  
    58   27   55 1  
    59   27   56 1  
    60   28   57 1  
    61   28   58 1  
    62   28   59 1  
    63   29   60 1  
    64   29   61 1  
    65   29   62 1  
    66   32   63 1  
    67   32   64 1  
@<TRIPOS>SUBSTRUCTURE
     1 06H         1

