### 
### Created by X-TOOL on Mon Sep 10 21:13:06 2018
### 

@<TRIPOS>MOLECULE
3r92_ligand
   67    71     1     0     0
SMALL
GAST_HUCK


@<TRIPOS>ATOM
      1 C1          7.3190    9.1320   23.3440 C.3       1 06J        -0.0557
      2 C2          6.1760   10.0230   23.6970 C.2       1 06J        -0.0613
      3 C3          4.8170    9.6950   23.7220 C.2       1 06J         0.0440
      4 N1          4.1100   10.8560   24.0900 N.pl3     1 06J        -0.2308
      5 C4          5.0200   11.8870   24.2680 C.2       1 06J         0.0668
      6 C5          6.2870   11.4030   24.0240 C.2       1 06J         0.0074
      7 C6          7.4510   12.2770   24.1150 C.2       1 06J         0.0957
      8 O1          8.5930   11.8310   24.0480 O.2       1 06J        -0.4028
      9 C7          7.2110   13.7300   24.5120 C.3       1 06J         0.0212
     10 C8          5.9250   13.9650   25.3450 C.3       1 06J        -0.0089
     11 C9          4.7060   13.3000   24.6550 C.3       1 06J         0.0114
     12 C10         6.1160   13.3460   26.7420 C.3       1 06J        -0.0559
     13 C11         5.6620   15.4740   25.5360 C.3       1 06J        -0.0559
     14 C12         2.7050   10.9500   24.2730 C.ar      1 06J         0.0846
     15 C13         1.8960   11.8330   23.5670 C.ar      1 06J        -0.0353
     16 C14         0.5380   11.9290   23.8990 C.ar      1 06J        -0.0574
     17 C15        -0.0100   11.1390   24.9310 C.ar      1 06J         0.0590
     18 C16         0.7920   10.2270   25.6330 C.ar      1 06J         0.0544
     19 C17         2.1290   10.1340   25.2370 C.ar      1 06J        -0.0057
     20 N2          0.3100    9.4080   26.6500 N.pl3     1 06J        -0.3144
     21 C18         1.1880    8.7780   27.6300 C.3       1 06J         0.0679
     22 C19         1.4110    7.2970   27.2820 C.3       1 06J        -0.0006
     23 C20         0.0980    6.5280   27.0930 C.3       1 06J        -0.0030
     24 C21         0.3930    5.4570   26.0540 C.3       1 06J        -0.0074
     25 C22         1.8260    5.6790   25.6020 C.3       1 06J        -0.0314
     26 N3          2.1120    7.1360   25.9250 N.4       1 06J         0.2389
     27 C23         3.6100    7.4680   25.9100 C.3       1 06J        -0.0302
     28 C24         4.3540    7.2480   24.5760 C.3       1 06J        -0.0045
     29 C25         4.1500    8.3430   23.5040 C.3       1 06J        -0.0030
     30 C26        -1.4730   11.1950   25.1970 C.2       1 06J         0.1889
     31 O2         -1.9290   10.7130   26.2300 O.2       1 06J        -0.3957
     32 N4         -2.2420   11.8020   24.2310 N.am      1 06J        -0.3034
     33 H1          6.9439    8.1186   23.1382 H         1 06J         0.0298
     34 H2          8.0292    9.0966   24.1833 H         1 06J         0.0298
     35 H3          7.8268    9.5236   22.4502 H         1 06J         0.0298
     36 H4          7.1393   14.3299   23.5928 H         1 06J         0.0483
     37 H5          8.0720   14.0706   25.1059 H         1 06J         0.0483
     38 H6          3.8527   13.3028   25.3492 H         1 06J         0.0457
     39 H7          4.4461   13.8721   23.7521 H         1 06J         0.0457
     40 H8          6.9800   13.8147   27.2357 H         1 06J         0.0238
     41 H9          6.2924   12.2648   26.6430 H         1 06J         0.0238
     42 H10         5.2121   13.5164   27.3453 H         1 06J         0.0238
     43 H11         5.5205   15.9487   24.5538 H         1 06J         0.0238
     44 H12         6.5214   15.9344   26.0454 H         1 06J         0.0238
     45 H13         4.7566   15.6143   26.1448 H         1 06J         0.0238
     46 H14         2.3104   12.4395   22.7698 H         1 06J         0.0488
     47 H15        -0.0987   12.6184   23.3564 H         1 06J         0.0618
     48 H16         2.7513    9.3824   25.7092 H         1 06J         0.0484
     49 H17        -0.7043    9.2405   26.7130 H         1 06J         0.1781
     50 H18         0.7283    8.8501   28.6267 H         1 06J         0.0571
     51 H19         2.1571    9.2983   27.6347 H         1 06J         0.0571
     52 H20         2.0098    6.8355   28.0810 H         1 06J         0.0871
     53 H21        -0.6932    7.2027   26.7341 H         1 06J         0.0322
     54 H22        -0.2158    6.0664   28.0409 H         1 06J         0.0322
     55 H23        -0.2943    5.5554   25.2008 H         1 06J         0.0319
     56 H24         0.2852    4.4565   26.4982 H         1 06J         0.0319
     57 H25         1.9250    5.4946   24.5221 H         1 06J         0.0814
     58 H26         2.5127    5.0181   26.1513 H         1 06J         0.0814
     59 H27         1.6669    7.7328   25.2455 H         1 06J         0.2037
     60 H28         4.0981    6.8418   26.6713 H         1 06J         0.0816
     61 H29         3.7195    8.5282   26.1820 H         1 06J         0.0816
     62 H30         4.0115    6.2925   24.1520 H         1 06J         0.0334
     63 H31         5.4301    7.1870   24.7957 H         1 06J         0.0334
     64 H32         4.5281    7.9422   22.5520 H         1 06J         0.0397
     65 H33         3.0678    8.5223   23.4224 H         1 06J         0.0397
     66 H34        -3.2324   11.8714   24.3508 H         1 06J         0.1801
     67 H35        -1.8106   12.1738   23.4090 H         1 06J         0.1801
@<TRIPOS>BOND
     1    1    2 1  
     2    2    3 2  
     3    2    6 1  
     4    3    4 1  
     5    3   29 1  
     6    4    5 1  
     7    4   14 1  
     8    5    6 2  
     9    5   11 1  
    10    6    7 1  
    11    7    8 2  
    12    7    9 1  
    13    9   10 1  
    14   10   11 1  
    15   10   12 1  
    16   10   13 1  
    17   14   15 ar 
    18   14   19 ar 
    19   15   16 ar 
    20   16   17 ar 
    21   17   18 ar 
    22   17   30 1  
    23   18   19 ar 
    24   18   20 1  
    25   20   21 1  
    26   21   22 1  
    27   22   23 1  
    28   22   26 1  
    29   23   24 1  
    30   24   25 1  
    31   25   26 1  
    32   26   27 1  
    33   27   28 1  
    34   28   29 1  
    35   30   31 2  
    36   30   32 am 
    37    1   33 1  
    38    1   34 1  
    39    1   35 1  
    40    9   36 1  
    41    9   37 1  
    42   11   38 1  
    43   11   39 1  
    44   12   40 1  
    45   12   41 1  
    46   12   42 1  
    47   13   43 1  
    48   13   44 1  
    49   13   45 1  
    50   15   46 1  
    51   16   47 1  
    52   19   48 1  
    53   20   49 1  
    54   21   50 1  
    55   21   51 1  
    56   22   52 1  
    57   23   53 1  
    58   23   54 1  
    59   24   55 1  
    60   24   56 1  
    61   25   57 1  
    62   25   58 1  
    63   26   59 1  
    64   27   60 1  
    65   27   61 1  
    66   28   62 1  
    67   28   63 1  
    68   29   64 1  
    69   29   65 1  
    70   32   66 1  
    71   32   67 1  
@<TRIPOS>SUBSTRUCTURE
     1 06J         1

