### 
### Created by X-TOOL on Mon Sep 10 21:13:10 2018
### 

@<TRIPOS>MOLECULE
3r9d_ligand
   41    43     1     0     0
SMALL
GAST_HUCK


@<TRIPOS>ATOM
      1 N01        65.1710   81.9830  -14.8380 N.2       1 X6B        -0.2728
      2 N02        63.8800   82.5740  -13.0730 N.pl3     1 X6B        -0.2331
      3 N03        68.3860   79.1500  -12.8820 N.am      1 X6B        -0.2428
      4 N04        66.7300   81.1380  -16.3210 N.pl3     1 X6B        -0.3325
      5 N05        61.3280   81.0640   -7.0270 N.am      1 X6B        -0.2621
      6 C06        66.8590   80.5400  -14.0620 C.2       1 X6B         0.1127
      7 C07        66.2830   81.2120  -15.1360 C.2       1 X6B         0.0848
      8 C08        64.8950   81.9070  -13.5540 C.2       1 X6B         0.2029
      9 C09        63.1660   82.3290  -12.0070 C.ar      1 X6B         0.0698
     10 C10        67.9660   79.7110  -14.0900 C.2       1 X6B         0.2032
     11 C11        62.1780   83.2940  -11.6560 C.ar      1 X6B        -0.0355
     12 C12        61.3550   83.1080  -10.5190 C.ar      1 X6B        -0.0445
     13 C13        61.5060   81.9490   -9.7150 C.ar      1 X6B         0.0965
     14 C14        62.4830   80.9700  -10.0360 C.ar      1 X6B        -0.0445
     15 C15        63.3140   81.1520  -11.1770 C.ar      1 X6B        -0.0355
     16 C16        69.4590   78.3120  -12.6860 C.ar      1 X6B         0.0622
     17 C17        69.3950   77.3660  -11.6240 C.ar      1 X6B        -0.0455
     18 C18        70.4920   76.4860  -11.3750 C.ar      1 X6B        -0.0773
     19 C19        71.6570   76.5520  -12.1960 C.ar      1 X6B        -0.0438
     20 C20        71.7290   77.4910  -13.2590 C.ar      1 X6B         0.1190
     21 C21        70.6390   78.3710  -13.5040 C.ar      1 X6B        -0.0087
     22 O22        68.5620   79.4860  -15.1440 O.2       1 X6B        -0.4034
     23 O23        59.4210   80.8180   -8.6780 O.2       1 X6B        -0.1519
     24 O24        59.8750   83.0130   -7.9380 O.2       1 X6B        -0.1519
     25 F25        72.8110   77.5530  -14.0230 F         1 X6B        -0.1876
     26 S26        65.9590   80.8970  -12.6280 S.3       1 X6B         0.0108
     27 S27        60.4570   81.7260   -8.3030 S.o2      1 X6B         0.0609
     28 H1         63.6044   83.4093  -13.6089 H         1 X6B         0.2240
     29 H2         67.8483   79.3828  -12.0716 H         1 X6B         0.2230
     30 H3         67.5579   80.5598  -16.5240 H         1 X6B         0.1740
     31 H4         66.2650   81.6561  -17.0801 H         1 X6B         0.1740
     32 H5         60.8744   80.8773   -6.1556 H         1 X6B         0.1633
     33 H6         62.2998   80.8568   -7.1393 H         1 X6B         0.1633
     34 H7         62.0550   84.1811  -12.2668 H         1 X6B         0.0540
     35 H8         60.6091   83.8516  -10.2627 H         1 X6B         0.0607
     36 H9         62.5954   80.0885   -9.4152 H         1 X6B         0.0607
     37 H10        64.0606   80.4065  -11.4256 H         1 X6B         0.0540
     38 H11        68.5093   77.3134  -11.0013 H         1 X6B         0.0469
     39 H12        70.4396   75.7691  -10.5636 H         1 X6B         0.0568
     40 H13        72.4894   75.8836  -12.0079 H         1 X6B         0.0475
     41 H14        70.6987   79.0905  -14.3126 H         1 X6B         0.0485
@<TRIPOS>BOND
     1    1    7 1  
     2    8    1 2  
     3    2    8 1  
     4    9    2 1  
     5   10    3 am 
     6    3   16 1  
     7    7    4 1  
     8   27    5 am 
     9    6    7 2  
    10    6   10 1  
    11   26    6 1  
    12    8   26 1  
    13   11    9 ar 
    14    9   15 ar 
    15   10   22 2  
    16   12   11 ar 
    17   13   12 ar 
    18   13   14 ar 
    19   13   27 1  
    20   14   15 ar 
    21   16   17 ar 
    22   16   21 ar 
    23   17   18 ar 
    24   18   19 ar 
    25   19   20 ar 
    26   20   21 ar 
    27   20   25 1  
    28   27   23 2  
    29   27   24 2  
    30    2   28 1  
    31    3   29 1  
    32    4   30 1  
    33    4   31 1  
    34    5   32 1  
    35    5   33 1  
    36   11   34 1  
    37   12   35 1  
    38   14   36 1  
    39   15   37 1  
    40   17   38 1  
    41   18   39 1  
    42   19   40 1  
    43   21   41 1  
@<TRIPOS>SUBSTRUCTURE
     1 X6B         1

