### 
### Created by X-TOOL on Mon Sep 10 21:13:11 2018
### 

@<TRIPOS>MOLECULE
3r9h_ligand
   41    43     1     0     0
SMALL
GAST_HUCK


@<TRIPOS>ATOM
      1 C1        -66.9160   -8.9650  -49.9820 C.2       1 Z67         0.1123
      2 C2        -66.4650   -9.7470  -51.0020 C.2       1 Z67         0.0847
      3 N3        -65.3230  -10.4740  -50.6790 N.2       1 Z67        -0.2729
      4 C4        -64.9060  -10.2450  -49.4460 C.2       1 Z67         0.2028
      5 S5        -65.9050   -9.1300  -48.5540 S.3       1 Z67         0.0107
      6 C6        -68.0550   -8.0330  -49.9260 C.2       1 Z67         0.2014
      7 N7        -67.0380   -9.8380  -52.2680 N.pl3     1 Z67        -0.3326
      8 N8        -63.7650  -10.8060  -48.9430 N.pl3     1 Z67        -0.2331
      9 O9        -68.6460   -7.7390  -50.9680 O.2       1 Z67        -0.4044
     10 C10       -61.4780  -10.3660  -45.5040 C.ar      1 Z67         0.0965
     11 C11       -61.3170  -11.5430  -46.3140 C.ar      1 Z67        -0.0445
     12 C12       -62.1150  -11.7020  -47.4670 C.ar      1 Z67        -0.0355
     13 C13       -63.0710  -10.6940  -47.8120 C.ar      1 Z67         0.0698
     14 C14       -63.2230   -9.5230  -46.9730 C.ar      1 Z67        -0.0355
     15 C15       -62.4290   -9.3620  -45.8210 C.ar      1 Z67        -0.0445
     16 S16       -60.4260  -10.1420  -44.1230 S.o2      1 Z67         0.0609
     17 O17       -59.3380   -9.3120  -44.6450 O.2       1 Z67        -0.1519
     18 N18       -61.2970   -9.2300  -42.9570 N.am      1 Z67        -0.2621
     19 O19       -60.1180  -11.4690  -43.5560 O.2       1 Z67        -0.1519
     20 N20       -68.3350   -7.5150  -48.7200 N.am      1 Z67        -0.2415
     21 C21       -71.2410   -4.5600  -47.5870 C.ar      1 Z67        -0.0808
     22 C22       -71.6840   -5.7540  -48.2420 C.ar      1 Z67        -0.0457
     23 C23       -70.7320   -6.7580  -48.6290 C.ar      1 Z67         0.1498
     24 C24       -69.3180   -6.5530  -48.3540 C.ar      1 Z67         0.1325
     25 C25       -68.8920   -5.3510  -47.6990 C.ar      1 Z67         0.1498
     26 C26       -69.8470   -4.3590  -47.3140 C.ar      1 Z67        -0.0457
     27 F27       -67.5660   -5.1510  -47.4420 F         1 Z67        -0.1952
     28 F28       -71.1790   -7.8840  -49.2480 F         1 Z67        -0.1952
     29 H1        -66.6240  -10.4597  -52.9772 H         1 Z67         0.1740
     30 H2        -67.8758   -9.2836  -52.4952 H         1 Z67         0.1740
     31 H3        -63.3392  -11.4779  -49.5973 H         1 Z67         0.2240
     32 H4        -60.5905  -12.3001  -46.0419 H         1 Z67         0.0607
     33 H5        -62.0045  -12.5833  -48.0885 H         1 Z67         0.0540
     34 H6        -63.9530   -8.7653  -47.2337 H         1 Z67         0.0540
     35 H7        -62.5422   -8.4885  -45.1892 H         1 Z67         0.0607
     36 H8        -60.8677   -8.9923  -42.0857 H         1 Z67         0.1633
     37 H9        -62.2334   -8.9367  -43.1494 H         1 Z67         0.1633
     38 H10       -67.7700   -7.8548  -47.9681 H         1 Z67         0.2208
     39 H11       -71.9622   -3.8048  -47.2962 H         1 Z67         0.0468
     40 H12       -72.7385   -5.9004  -48.4460 H         1 Z67         0.0529
     41 H13       -69.5175   -3.4545  -46.8156 H         1 Z67         0.0529
@<TRIPOS>BOND
     1    1    2 2  
     2    1    5 1  
     3    6    1 1  
     4    2    3 1  
     5    2    7 1  
     6    4    3 2  
     7    5    4 1  
     8    4    8 1  
     9    6    9 2  
    10   20    6 am 
    11    8   13 1  
    12   11   10 ar 
    13   15   10 ar 
    14   10   16 1  
    15   12   11 ar 
    16   13   12 ar 
    17   13   14 ar 
    18   14   15 ar 
    19   16   17 2  
    20   16   18 am 
    21   16   19 2  
    22   24   20 1  
    23   22   21 ar 
    24   21   26 ar 
    25   23   22 ar 
    26   23   24 ar 
    27   23   28 1  
    28   24   25 ar 
    29   25   26 ar 
    30   25   27 1  
    31    7   29 1  
    32    7   30 1  
    33    8   31 1  
    34   11   32 1  
    35   12   33 1  
    36   14   34 1  
    37   15   35 1  
    38   18   36 1  
    39   18   37 1  
    40   20   38 1  
    41   21   39 1  
    42   22   40 1  
    43   26   41 1  
@<TRIPOS>SUBSTRUCTURE
     1 Z67         1

