### 
### Created by X-TOOL on Mon Sep 10 21:13:10 2018
### 

@<TRIPOS>MOLECULE
3r9n_ligand
   44    46     1     0     0
SMALL
GAST_HUCK


@<TRIPOS>ATOM
      1 C1         94.8620   76.6930  -45.8750 C.ar      1 Z68        -0.0283
      2 N1         94.9440   78.9130  -44.7530 N.2       1 Z68        -0.2164
      3 O1         94.8530   80.2470  -44.7500 O.2       1 Z68        -0.4885
      4 S1         92.1840   80.5770  -48.3090 S.3       1 Z68         0.2443
      5 C2         94.7740   78.2150  -45.8330 C.ar      1 Z68         0.0853
      6 N2         91.8030   81.6670  -50.6500 N.2       1 Z68        -0.1073
      7 O2         95.1920   78.3960  -43.6880 O.2       1 Z68        -0.4885
      8 C3         94.4670   78.8940  -47.1590 C.ar      1 Z68        -0.0083
      9 N3         90.5050   82.6090  -48.8930 N.pl3     1 Z68        -0.2233
     10 O3         94.5990   78.4450  -50.6810 O.3       1 Z68        -0.3223
     11 C4         94.2690   78.1860  -48.3590 C.ar      1 Z68         0.0555
     12 N4         93.2430   80.4430  -52.0780 N.pl3     1 Z68        -0.2309
     13 C5         94.3710   76.6540  -48.3270 C.ar      1 Z68        -0.0366
     14 C6         94.6480   75.9630  -47.1650 C.ar      1 Z68        -0.0529
     15 C7         93.9930   78.8440  -49.5550 C.3       1 Z68         0.2510
     16 C8         93.0320   79.9930  -49.6790 C.2       1 Z68         0.3348
     17 C9         92.7130   80.6940  -50.8440 C.2       1 Z68         0.3469
     18 C10        91.4280   81.7140  -49.3460 C.2       1 Z68         0.3201
     19 C11        89.9070   82.4370  -47.5640 C.3       1 Z68         0.0677
     20 C12        88.8040   81.2880  -47.5510 C.3       1 Z68        -0.0240
     21 C13        88.1840   81.1220  -46.1390 C.3       1 Z68        -0.0505
     22 C14        87.5940   82.4860  -45.6290 C.3       1 Z68        -0.0529
     23 C15        88.6370   83.6490  -45.6870 C.3       1 Z68        -0.0505
     24 C16        89.2830   83.7890  -47.0990 C.3       1 Z68        -0.0240
     25 H1         95.0799   76.1385  -44.9694 H         1 Z68         0.0687
     26 H2         94.3974   79.9755  -47.1807 H         1 Z68         0.0690
     27 H3         90.2273   83.4059  -49.4835 H         1 Z68         0.2332
     28 H4         94.3091   78.9878  -51.4048 H         1 Z68         0.2270
     29 H5         93.9377   79.6920  -52.1970 H         1 Z68         0.2391
     30 H6         92.9478   81.0048  -52.8893 H         1 Z68         0.2391
     31 H7         94.2208   76.0983  -49.2455 H         1 Z68         0.0661
     32 H8         94.7113   74.8811  -47.1862 H         1 Z68         0.0634
     33 H9         94.8099   79.5495  -49.3433 H         1 Z68         0.1541
     34 H10        90.7037   82.1557  -46.8596 H         1 Z68         0.0630
     35 H11        89.2712   80.3386  -47.8516 H         1 Z68         0.0293
     36 H12        88.0077   81.5469  -48.2643 H         1 Z68         0.0293
     37 H13        88.9624   80.7813  -45.4404 H         1 Z68         0.0266
     38 H14        87.3786   80.3742  -46.1837 H         1 Z68         0.0266
     39 H15        87.2639   82.3600  -44.5873 H         1 Z68         0.0265
     40 H16        86.7316   82.7541  -46.2570 H         1 Z68         0.0265
     41 H17        89.4310   83.4501  -44.9521 H         1 Z68         0.0266
     42 H18        88.1308   84.5922  -45.4337 H         1 Z68         0.0266
     43 H19        88.5103   84.0954  -47.8194 H         1 Z68         0.0293
     44 H20        90.0718   84.5547  -47.0595 H         1 Z68         0.0293
@<TRIPOS>BOND
     1    5    1 ar 
     2   14    1 ar 
     3    2    3 2  
     4    5    2 1  
     5    2    7 2  
     6   16    4 1  
     7    4   18 1  
     8    8    5 ar 
     9    6   17 1  
    10   18    6 2  
    11   11    8 ar 
    12   18    9 1  
    13    9   19 1  
    14   15   10 1  
    15   11   13 ar 
    16   15   11 1  
    17   17   12 1  
    18   13   14 ar 
    19   15   16 1  
    20   16   17 2  
    21   19   20 1  
    22   19   24 1  
    23   20   21 1  
    24   21   22 1  
    25   22   23 1  
    26   23   24 1  
    27    1   25 1  
    28    8   26 1  
    29    9   27 1  
    30   10   28 1  
    31   12   29 1  
    32   12   30 1  
    33   13   31 1  
    34   14   32 1  
    35   15   33 1  
    36   19   34 1  
    37   20   35 1  
    38   20   36 1  
    39   21   37 1  
    40   21   38 1  
    41   22   39 1  
    42   22   40 1  
    43   23   41 1  
    44   23   42 1  
    45   24   43 1  
    46   24   44 1  
@<TRIPOS>SUBSTRUCTURE
     1 Z68         1

