### 
### Created by X-TOOL on Mon Sep 10 21:13:11 2018
### 

@<TRIPOS>MOLECULE
3r9o_ligand
   41    43     1     0     0
SMALL
GAST_HUCK


@<TRIPOS>ATOM
      1 C1        -67.0380  -80.7910  -13.9380 C.2       1 Z71         0.1127
      2 C2        -66.5180  -81.5330  -14.9690 C.2       1 Z71         0.0848
      3 N3        -65.3600  -82.2210  -14.6460 N.2       1 Z71        -0.2728
      4 C4        -64.9810  -82.0130  -13.3980 C.2       1 Z71         0.2029
      5 S5        -66.0630  -80.9450  -12.4740 S.3       1 Z71         0.0108
      6 C6        -68.2420  -79.9240  -13.9240 C.2       1 Z71         0.2031
      7 N7        -67.0450  -81.6180  -16.2460 N.pl3     1 Z71        -0.3325
      8 N8        -63.8170  -82.5640  -12.9120 N.pl3     1 Z71        -0.2331
      9 O9        -68.8630  -79.7700  -14.9790 O.2       1 Z71        -0.4034
     10 C10       -61.5270  -82.2010   -9.4740 C.ar      1 Z71         0.0965
     11 C11       -61.3650  -83.3590  -10.3100 C.ar      1 Z71        -0.0445
     12 C12       -62.1630  -83.5020  -11.4700 C.ar      1 Z71        -0.0355
     13 C13       -63.1240  -82.4860  -11.7870 C.ar      1 Z71         0.0698
     14 C14       -63.2770  -81.3360  -10.9250 C.ar      1 Z71        -0.0355
     15 C15       -62.4850  -81.1950   -9.7720 C.ar      1 Z71        -0.0445
     16 S16       -60.4940  -81.9970   -8.0680 S.o2      1 Z71         0.0609
     17 O17       -59.4260  -81.0740   -8.4640 O.2       1 Z71        -0.1519
     18 N18       -61.4360  -81.2670   -6.8510 N.am      1 Z71        -0.2621
     19 O19       -60.1260  -83.3660   -7.6150 O.2       1 Z71        -0.1519
     20 N20       -68.5890  -79.3420  -12.7500 N.am      1 Z71        -0.2437
     21 C21       -71.8740  -76.7220  -11.8860 C.ar      1 Z71        -0.0105
     22 C22       -70.6860  -76.7060  -11.0810 C.ar      1 Z71         0.1174
     23 C23       -69.5930  -77.5850  -11.3820 C.ar      1 Z71        -0.0127
     24 C24       -69.6930  -78.4830  -12.4900 C.ar      1 Z71         0.0602
     25 C25       -70.8930  -78.4860  -13.2890 C.ar      1 Z71        -0.0127
     26 C26       -71.9710  -77.6140  -12.9910 C.ar      1 Z71         0.1174
     27 F27       -70.5970  -75.8540  -10.0450 F         1 Z71        -0.1886
     28 F28       -73.0860  -77.6380  -13.7660 F         1 Z71        -0.1886
     29 H1        -66.5825  -82.2034  -16.9561 H         1 Z71         0.1740
     30 H2        -67.8997  -81.0958  -16.4862 H         1 Z71         0.1740
     31 H3        -63.3743  -83.1952  -13.5950 H         1 Z71         0.2240
     32 H4        -60.6355  -84.1187  -10.0533 H         1 Z71         0.0607
     33 H5        -62.0492  -84.3688  -12.1109 H         1 Z71         0.0540
     34 H6        -64.0092  -80.5751  -11.1698 H         1 Z71         0.0540
     35 H7        -62.6030  -80.3351   -9.1227 H         1 Z71         0.0607
     36 H8        -61.0306  -81.0626   -5.9600 H         1 Z71         0.1633
     37 H9        -62.3944  -81.0428   -7.0275 H         1 Z71         0.1633
     38 H10       -67.9956  -79.5410  -11.9701 H         1 Z71         0.2229
     39 H11       -72.6965  -76.0555  -11.6528 H         1 Z71         0.0463
     40 H12       -68.6965  -77.5684  -10.7729 H         1 Z71         0.0452
     41 H13       -70.9725  -79.1650  -14.1302 H         1 Z71         0.0452
@<TRIPOS>BOND
     1    1    2 2  
     2    1    5 1  
     3    6    1 1  
     4    2    3 1  
     5    2    7 1  
     6    4    3 2  
     7    5    4 1  
     8    4    8 1  
     9    6    9 2  
    10   20    6 am 
    11    8   13 1  
    12   11   10 ar 
    13   15   10 ar 
    14   10   16 1  
    15   12   11 ar 
    16   13   12 ar 
    17   13   14 ar 
    18   14   15 ar 
    19   16   17 2  
    20   16   18 am 
    21   16   19 2  
    22   24   20 1  
    23   22   21 ar 
    24   21   26 ar 
    25   23   22 ar 
    26   22   27 1  
    27   23   24 ar 
    28   24   25 ar 
    29   25   26 ar 
    30   26   28 1  
    31    7   29 1  
    32    7   30 1  
    33    8   31 1  
    34   11   32 1  
    35   12   33 1  
    36   14   34 1  
    37   15   35 1  
    38   18   36 1  
    39   18   37 1  
    40   20   38 1  
    41   21   39 1  
    42   23   40 1  
    43   25   41 1  
@<TRIPOS>SUBSTRUCTURE
     1 Z71         1

