### 
### Created by X-TOOL on Mon Sep 10 21:13:10 2018
### 

@<TRIPOS>MOLECULE
3rah_ligand
   48    51     1     0     0
SMALL
GAST_HUCK


@<TRIPOS>ATOM
      1 C1         94.6170   77.1240  -46.0520 C.ar      1 O1Z        -0.0224
      2 S1         92.2410   81.0180  -48.5450 S.3       1 O1Z        -0.0017
      3 C2         94.3600   76.3890  -47.2640 C.ar      1 O1Z        -0.0567
      4 N2         91.8650   82.0740  -50.8890 N.2       1 O1Z        -0.3077
      5 C3         94.1630   77.0890  -48.5100 C.ar      1 O1Z        -0.0533
      6 N3         90.5810   83.0760  -49.1280 N.pl3     1 O1Z        -0.2858
      7 O3         94.6080   78.7620  -50.8850 O.3       1 O1Z        -0.3728
      8 C4         94.4910   79.2960  -47.3520 C.ar      1 O1Z        -0.0518
      9 N4         93.2810   80.7850  -52.3010 N.pl3     1 O1Z        -0.3522
     10 C5         94.6870   78.6160  -46.0970 C.ar      1 O1Z        -0.0261
     11 C6         94.8060   76.4420  -44.7880 C.ar      1 O1Z        -0.0569
     12 C7         95.0590   77.2070  -43.5860 C.ar      1 O1Z        -0.0636
     13 C8         95.1290   78.6510  -43.6280 C.ar      1 O1Z        -0.0639
     14 C9         94.9460   79.3590  -44.8750 C.ar      1 O1Z        -0.0580
     15 C10        94.2200   78.5460  -48.5900 C.ar      1 O1Z        -0.0088
     16 C11        94.0010   79.2080  -49.7530 C.3       1 O1Z         0.1150
     17 C12        93.0700   80.3800  -49.8980 C.2       1 O1Z         0.0568
     18 C13        92.7630   81.0710  -51.0710 C.2       1 O1Z         0.0515
     19 C14        91.4960   82.1530  -49.5780 C.2       1 O1Z         0.1687
     20 C15        89.9970   82.9140  -47.7880 C.3       1 O1Z         0.0429
     21 C16        88.9240   81.7720  -47.7610 C.3       1 O1Z        -0.0294
     22 C17        88.3210   81.6020  -46.3440 C.3       1 O1Z        -0.0509
     23 C18        87.7250   82.9360  -45.8250 C.3       1 O1Z        -0.0529
     24 C19        88.7400   84.1050  -45.9040 C.3       1 O1Z        -0.0509
     25 C20        89.3600   84.2490  -47.3170 C.3       1 O1Z        -0.0294
     26 H1         94.3145   75.3062  -47.2397 H         1 O1Z         0.0619
     27 H2         93.9675   76.5183  -49.4107 H         1 O1Z         0.0588
     28 H3         90.3079   83.8715  -49.7226 H         1 O1Z         0.1882
     29 H4         94.3638   79.3193  -51.6145 H         1 O1Z         0.2152
     30 H5         94.5439   80.3782  -47.3855 H         1 O1Z         0.0529
     31 H6         93.9604   80.0183  -52.4081 H         1 O1Z         0.1624
     32 H7         92.9925   81.3359  -53.1221 H         1 O1Z         0.1624
     33 H8         94.7580   75.3600  -44.7426 H         1 O1Z         0.0619
     34 H9         95.1978   76.6915  -42.6426 H         1 O1Z         0.0597
     35 H10        95.3202   79.2068  -42.7172 H         1 O1Z         0.0611
     36 H11        95.0018   80.4413  -44.8986 H         1 O1Z         0.0602
     37 H12        94.8385   79.8855  -49.5305 H         1 O1Z         0.0850
     38 H13        90.8043   82.6458  -47.0906 H         1 O1Z         0.0562
     39 H14        89.3982   80.8271  -48.0647 H         1 O1Z         0.0288
     40 H15        88.1175   82.0209  -48.4664 H         1 O1Z         0.0288
     41 H16        89.1116   81.2701  -45.6550 H         1 O1Z         0.0266
     42 H17        87.5250   80.8438  -46.3813 H         1 O1Z         0.0266
     43 H18        87.4200   82.8028  -44.7766 H         1 O1Z         0.0265
     44 H19        86.8447   83.1904  -46.4335 H         1 O1Z         0.0265
     45 H20        89.5477   83.9221  -45.1800 H         1 O1Z         0.0266
     46 H21        88.2225   85.0411  -45.6474 H         1 O1Z         0.0266
     47 H22        88.5719   84.5409  -48.0267 H         1 O1Z         0.0288
     48 H23        90.1365   85.0277  -47.2906 H         1 O1Z         0.0288
@<TRIPOS>BOND
     1    3    1 ar 
     2   10    1 ar 
     3    1   11 ar 
     4   17    2 1  
     5    2   19 1  
     6    5    3 ar 
     7    4   18 1  
     8   19    4 2  
     9   15    5 ar 
    10   19    6 1  
    11    6   20 1  
    12   16    7 1  
    13    8   10 ar 
    14   15    8 ar 
    15   18    9 1  
    16   10   14 ar 
    17   11   12 ar 
    18   13   12 ar 
    19   14   13 ar 
    20   16   15 1  
    21   16   17 1  
    22   17   18 2  
    23   20   21 1  
    24   20   25 1  
    25   21   22 1  
    26   22   23 1  
    27   23   24 1  
    28   24   25 1  
    29    3   26 1  
    30    5   27 1  
    31    6   28 1  
    32    7   29 1  
    33    8   30 1  
    34    9   31 1  
    35    9   32 1  
    36   11   33 1  
    37   12   34 1  
    38   13   35 1  
    39   14   36 1  
    40   16   37 1  
    41   20   38 1  
    42   21   39 1  
    43   21   40 1  
    44   22   41 1  
    45   22   42 1  
    46   23   43 1  
    47   23   44 1  
    48   24   45 1  
    49   24   46 1  
    50   25   47 1  
    51   25   48 1  
@<TRIPOS>SUBSTRUCTURE
     1 O1Z         1

