### 
### Created by X-TOOL on Mon Sep 10 21:13:10 2018
### 

@<TRIPOS>MOLECULE
3rak_ligand
   41    43     1     0     0
SMALL
GAST_HUCK


@<TRIPOS>ATOM
      1 C1         96.1980   76.8310  -46.7750 C.ar      1 03Z        -0.0689
      2 N1         92.2740   81.7580  -50.8000 N.2       1 03Z        -0.3021
      3 O1         86.2390   80.4640  -44.9080 O.2       1 03Z        -0.1520
      4 S1         92.9750   80.4930  -48.6640 S.3       1 03Z         0.0022
      5 C2         97.1760   77.6060  -47.5250 C.ar      1 03Z        -0.0686
      6 N2         93.8050   80.9550  -52.3990 N.pl3     1 03Z        -0.3518
      7 O2         86.8720   82.8280  -43.8860 O.2       1 03Z        -0.1520
      8 S2         87.4250   81.4030  -44.3890 S.o2      1 03Z         0.0607
      9 C3         96.7780   78.4020  -48.6470 C.ar      1 03Z        -0.0570
     10 N3         90.9190   82.3440  -48.9990 N.pl3     1 03Z        -0.2419
     11 O3         95.5740   79.1170  -51.3980 O.3       1 03Z        -0.3728
     12 C4         94.3860   77.6580  -48.2990 C.ar      1 03Z        -0.0570
     13 N4         88.1810   80.6700  -43.2350 N.am      1 03Z        -0.2622
     14 C5         94.7780   76.8600  -47.1730 C.ar      1 03Z        -0.0686
     15 C10        95.3800   78.4450  -49.0520 C.ar      1 03Z        -0.0093
     16 C11        94.9520   79.2580  -50.2160 C.3       1 03Z         0.1155
     17 C12        93.8150   80.2220  -50.1130 C.2       1 03Z         0.0585
     18 C13        93.3200   80.9790  -51.1420 C.2       1 03Z         0.0542
     19 C14        91.9660   81.6150  -49.5100 C.2       1 03Z         0.1880
     20 C15        90.1340   82.0800  -47.8970 C.ar      1 03Z         0.0662
     21 C16        90.2920   80.8920  -47.0290 C.ar      1 03Z        -0.0365
     22 C17        89.4470   80.6750  -45.9200 C.ar      1 03Z        -0.0451
     23 C18        88.4100   81.6330  -45.6280 C.ar      1 03Z         0.0960
     24 C19        88.2420   82.8120  -46.4680 C.ar      1 03Z        -0.0451
     25 C20        89.0820   83.0350  -47.5790 C.ar      1 03Z        -0.0365
     26 H1         96.5125   76.2343  -45.9264 H         1 03Z         0.0557
     27 H2         98.2189   77.5802  -47.2304 H         1 03Z         0.0599
     28 H3         94.6055   80.3496  -52.6307 H         1 03Z         0.1623
     29 H4         93.3752   81.5420  -53.1281 H         1 03Z         0.1623
     30 H5         97.5183   78.9732  -49.1954 H         1 03Z         0.0557
     31 H6         90.6888   83.2078  -49.5106 H         1 03Z         0.2193
     32 H7         95.4830   78.2200  -51.6974 H         1 03Z         0.2152
     33 H8         93.3450   77.6827  -48.6003 H         1 03Z         0.0557
     34 H9         88.5837   79.7687  -43.3945 H         1 03Z         0.1633
     35 H10        88.2622   81.1021  -42.3368 H         1 03Z         0.1633
     36 H11        94.0410   76.2865  -46.6225 H         1 03Z         0.0599
     37 H12        95.6583   80.0496  -49.9253 H         1 03Z         0.0850
     38 H13        91.0731   80.1735  -47.2497 H         1 03Z         0.0535
     39 H14        89.5760   79.7986  -45.2952 H         1 03Z         0.0606
     40 H15        87.4611   83.5271  -46.2359 H         1 03Z         0.0606
     41 H16        88.9445   83.9162  -48.1952 H         1 03Z         0.0535
@<TRIPOS>BOND
     1    5    1 ar 
     2   14    1 ar 
     3    2   18 1  
     4   19    2 2  
     5    8    3 2  
     6    4   17 1  
     7   19    4 1  
     8    9    5 ar 
     9   18    6 1  
    10    8    7 2  
    11    8   13 am 
    12   23    8 1  
    13   15    9 ar 
    14   10   19 1  
    15   20   10 1  
    16   16   11 1  
    17   12   14 ar 
    18   15   12 ar 
    19   16   15 1  
    20   17   16 1  
    21   17   18 2  
    22   21   20 ar 
    23   20   25 ar 
    24   22   21 ar 
    25   22   23 ar 
    26   23   24 ar 
    27   24   25 ar 
    28    1   26 1  
    29    5   27 1  
    30    6   28 1  
    31    6   29 1  
    32    9   30 1  
    33   10   31 1  
    34   11   32 1  
    35   12   33 1  
    36   13   34 1  
    37   13   35 1  
    38   14   36 1  
    39   16   37 1  
    40   21   38 1  
    41   22   39 1  
    42   24   40 1  
    43   25   41 1  
@<TRIPOS>SUBSTRUCTURE
     1 03Z         1

