### 
### Created by X-TOOL on Mon Sep 10 21:13:10 2018
### 

@<TRIPOS>MOLECULE
3ral_ligand
   45    47     1     0     0
SMALL
GAST_HUCK


@<TRIPOS>ATOM
      1 C1         95.9080   77.3670  -46.5810 C.ar      1 04Z        -0.0403
      2 N1         92.1830   82.2250  -50.7910 N.2       1 04Z        -0.3022
      3 O1         86.0320   80.9820  -44.9520 O.2       1 04Z        -0.1520
      4 S1         92.8390   80.9390  -48.6460 S.3       1 04Z         0.0022
      5 C2         96.9100   78.2360  -47.1960 C.ar      1 04Z         0.0840
      6 N2         93.7360   81.4270  -52.3760 N.pl3     1 04Z        -0.3518
      7 O2         86.7200   83.3220  -43.8580 O.2       1 04Z        -0.1520
      8 S2         87.2540   81.8790  -44.4080 S.o2      1 04Z         0.0607
      9 C3         96.5820   79.0040  -48.3690 C.ar      1 04Z        -0.0290
     10 N3         90.8080   82.8040  -48.9980 N.pl3     1 04Z        -0.2419
     11 O3         95.5220   79.5680  -51.3300 O.3       1 04Z        -0.3730
     12 C4         94.2490   78.0420  -48.3230 C.ar      1 04Z        -0.0681
     13 N4         87.9830   81.1020  -43.2730 N.am      1 04Z        -0.2622
     14 C5         94.5620   77.2710  -47.1570 C.ar      1 04Z        -0.0772
     15 O6         98.2000   78.3500  -46.6630 O.3       1 04Z        -0.3231
     16 C7         98.6200   77.6970  -45.5780 C.3       1 04Z         0.0592
     17 C10        95.2440   78.9190  -48.9490 C.ar      1 04Z        -0.0183
     18 C11        94.8610   79.7120  -50.1590 C.3       1 04Z         0.1131
     19 C12        93.7160   80.6740  -50.0860 C.2       1 04Z         0.0583
     20 C13        93.2330   81.4430  -51.1270 C.2       1 04Z         0.0542
     21 C14        91.8540   82.0730  -49.5030 C.2       1 04Z         0.1880
     22 C15        90.0080   82.5480  -47.9000 C.ar      1 04Z         0.0662
     23 C16        90.1520   81.3600  -47.0210 C.ar      1 04Z        -0.0365
     24 C17        89.2910   81.1520  -45.9220 C.ar      1 04Z        -0.0451
     25 C18        88.2490   82.1150  -45.6420 C.ar      1 04Z         0.0960
     26 C19        88.0950   83.2940  -46.4870 C.ar      1 04Z        -0.0451
     27 C20        88.9580   83.5070  -47.5960 C.ar      1 04Z        -0.0365
     28 H1         96.1601   76.7922  -45.6972 H         1 04Z         0.0484
     29 H2         94.5371   80.8199  -52.6008 H         1 04Z         0.1623
     30 H3         93.3196   82.0218  -53.1066 H         1 04Z         0.1623
     31 H4         97.3288   79.6459  -48.8221 H         1 04Z         0.0479
     32 H5         90.5869   83.6690  -49.5117 H         1 04Z         0.2193
     33 H6         95.4486   78.6680  -51.6252 H         1 04Z         0.2152
     34 H7         93.2556   77.9758  -48.7518 H         1 04Z         0.0465
     35 H8         88.3683   80.1972  -43.4541 H         1 04Z         0.1633
     36 H9         88.0659   81.5077  -42.3628 H         1 04Z         0.1633
     37 H10        93.8157   76.6264  -46.7070 H         1 04Z         0.0571
     38 H11        99.6677   77.9622  -45.3731 H         1 04Z         0.0577
     39 H12        98.5430   76.6132  -45.7495 H         1 04Z         0.0577
     40 H13        97.9957   77.9772  -44.7168 H         1 04Z         0.0577
     41 H14        95.5595   80.5070  -49.8589 H         1 04Z         0.0849
     42 H15        90.9339   80.6381  -47.2274 H         1 04Z         0.0535
     43 H16        89.4099   80.2773  -45.2928 H         1 04Z         0.0606
     44 H17        87.3153   84.0142  -46.2671 H         1 04Z         0.0606
     45 H18        88.8331   84.3867  -48.2169 H         1 04Z         0.0535
@<TRIPOS>BOND
     1    5    1 ar 
     2   14    1 ar 
     3    2   20 1  
     4   21    2 2  
     5    8    3 2  
     6    4   19 1  
     7   21    4 1  
     8    9    5 ar 
     9    5   15 1  
    10   20    6 1  
    11    8    7 2  
    12    8   13 am 
    13   25    8 1  
    14   17    9 ar 
    15   10   21 1  
    16   22   10 1  
    17   18   11 1  
    18   12   14 ar 
    19   17   12 ar 
    20   15   16 1  
    21   18   17 1  
    22   19   18 1  
    23   19   20 2  
    24   23   22 ar 
    25   22   27 ar 
    26   24   23 ar 
    27   24   25 ar 
    28   25   26 ar 
    29   26   27 ar 
    30    1   28 1  
    31    6   29 1  
    32    6   30 1  
    33    9   31 1  
    34   10   32 1  
    35   11   33 1  
    36   12   34 1  
    37   13   35 1  
    38   13   36 1  
    39   14   37 1  
    40   16   38 1  
    41   16   39 1  
    42   16   40 1  
    43   18   41 1  
    44   23   42 1  
    45   24   43 1  
    46   26   44 1  
    47   27   45 1  
@<TRIPOS>SUBSTRUCTURE
     1 04Z         1

