### 
### Created by X-TOOL on Mon Sep 10 21:13:07 2018
### 

@<TRIPOS>MOLECULE
3rcd_ligand
   63    66     1     0     0
SMALL
GAST_HUCK


@<TRIPOS>ATOM
      1 N1         14.8150   -0.4470   28.2390 N.ar      1 03P        -0.2703
      2 N3         15.5000    4.5940   24.2390 N.am      1 03P        -0.2842
      3 C4         17.9260    1.0920   25.3590 C.2       1 03P         0.0345
      4 C5         18.0610   -0.2180   25.7530 C.2       1 03P        -0.0449
      5 C6         16.3730    2.9680   25.8160 C.3       1 03P         0.0744
      6 C7         15.7840    3.2000   24.4470 C.3       1 03P         0.0579
      7 C8         14.4340    5.2280   24.8470 C.2       1 03P         0.1788
      8 C10        13.2580    1.9850   28.4970 C.ar      1 03P         0.0548
      9 C13        11.1620    2.2060   30.2300 C.ar      1 03P         0.1200
     10 C15        12.0190    2.3740   28.0230 C.ar      1 03P        -0.0448
     11 C17         7.9020    1.7640   31.2890 C.ar      1 03P         0.0005
     12 C20         8.5260   -0.9110   31.3460 C.ar      1 03P         0.0394
     13 C21         9.5440    0.0130   31.2270 C.ar      1 03P         0.0004
     14 C22         8.8230   -2.3620   31.3740 C.3       1 03P         0.3740
     15 C24        16.4580    7.5740   23.6620 C.3       1 03P        -0.0342
     16 F2          9.7760   -2.7010   32.2850 F         1 03P        -0.2206
     17 F           7.7380   -3.1180   31.6860 F         1 03P        -0.2206
     18 F1          9.2440   -2.7820   30.1520 F         1 03P        -0.2206
     19 C19         7.2120   -0.5080   31.4320 C.ar      1 03P        -0.0409
     20 C18         6.8990    0.8310   31.4030 C.ar      1 03P        -0.0385
     21 C16         9.2060    1.3450   31.1980 C.ar      1 03P         0.1418
     22 O1         10.1270    2.3400   31.1030 O.3       1 03P        -0.2571
     23 C12        12.3990    1.8320   30.7110 C.ar      1 03P         0.0641
     24 CL         12.7440    1.4780   32.3680 Cl        1 03P        -0.0803
     25 C11        13.4450    1.7220   29.8340 C.ar      1 03P        -0.0311
     26 C14        10.9600    2.4870   28.8970 C.ar      1 03P        -0.0363
     27 N4         14.3790    1.8600   27.6800 N.pl3     1 03P        -0.2596
     28 C1         15.1250    0.6810   27.5830 C.ar      1 03P         0.1675
     29 C          15.6100   -1.5070   28.0550 C.ar      1 03P         0.0451
     30 C3         16.2370    0.6480   26.7720 C.ar      1 03P         0.1396
     31 C2         16.9980   -0.4950   26.6440 C.ar      1 03P         0.0383
     32 N          16.7030   -1.6310   27.2950 N.ar      1 03P        -0.3130
     33 N2         16.8230    1.5990   25.9800 N.pl3     1 03P        -0.2518
     34 O          13.7160    4.7360   25.7110 O.2       1 03P        -0.3970
     35 C9         14.2050    6.6200   24.2950 C.3       1 03P         0.0655
     36 C23        15.2720    7.6740   24.6010 C.3       1 03P         0.0771
     37 O2         15.7590    7.5690   25.9310 O.3       1 03P        -0.3868
     38 C25        14.6490    9.0450   24.4560 C.3       1 03P        -0.0342
     39 H          16.1065    5.1333   23.6212 H         1 03P         0.1852
     40 H          18.5822    1.6286   24.6738 H         1 03P         0.1013
     41 H          18.8401   -0.9122   25.4382 H         1 03P         0.0320
     42 H          15.6023    3.1682   26.5604 H         1 03P         0.0629
     43 H          17.2311    3.6290   25.9377 H         1 03P         0.0629
     44 H          16.5037    2.8735   23.6963 H         1 03P         0.0547
     45 H          14.8540    2.6373   24.3660 H         1 03P         0.0547
     46 H          11.8807    2.5901   26.9636 H         1 03P         0.0517
     47 H           7.6639    2.8275   31.2710 H         1 03P         0.0802
     48 H          10.5847   -0.3038   31.1581 H         1 03P         0.0767
     49 H          16.9149    6.5892   23.7594 H         1 03P         0.0259
     50 H          16.1206    7.7195   22.6358 H         1 03P         0.0259
     51 H          17.1882    8.3417   23.9180 H         1 03P         0.0259
     52 H           6.4194   -1.2507   31.5231 H         1 03P         0.0774
     53 H           5.8593    1.1512   31.4702 H         1 03P         0.0675
     54 H          14.4290    1.4250   30.1967 H         1 03P         0.0519
     55 H           9.9774    2.7941   28.5389 H         1 03P         0.0527
     56 H          14.6695    2.6660   27.1265 H         1 03P         0.2135
     57 H          15.3243   -2.4027   28.6066 H         1 03P         0.0963
     58 H          13.2892    6.9791   24.7645 H         1 03P         0.0531
     59 H          14.1962    6.5120   23.2104 H         1 03P         0.0531
     60 H          16.4236    8.2452   26.0816 H         1 03P         0.2103
     61 H          15.3866    9.8065   24.7095 H         1 03P         0.0259
     62 H          14.3187    9.1856   23.4268 H         1 03P         0.0259
     63 H          13.7945    9.1272   25.1276 H         1 03P         0.0259
@<TRIPOS>BOND
     1   28    1 ar 
     2    1   29 ar 
     3    2    6 1  
     4    7    2 am 
     5    3    4 2  
     6   33    3 1  
     7   31    4 1  
     8    6    5 1  
     9    5   33 1  
    10    7   34 2  
    11   35    7 1  
    12    8   10 ar 
    13    8   25 ar 
    14   27    8 1  
    15    9   22 1  
    16   23    9 ar 
    17   26    9 ar 
    18   10   26 ar 
    19   11   20 ar 
    20   21   11 ar 
    21   13   12 ar 
    22   12   14 1  
    23   12   19 ar 
    24   21   13 ar 
    25   14   16 1  
    26   14   17 1  
    27   14   18 1  
    28   36   15 1  
    29   20   19 ar 
    30   22   21 1  
    31   23   24 1  
    32   25   23 ar 
    33   28   27 1  
    34   30   28 ar 
    35   32   29 ar 
    36   30   31 ar 
    37   33   30 1  
    38   31   32 ar 
    39   35   36 1  
    40   36   37 1  
    41   36   38 1  
    42    2   39 1  
    43    3   40 1  
    44    4   41 1  
    45    5   42 1  
    46    5   43 1  
    47    6   44 1  
    48    6   45 1  
    49   10   46 1  
    50   11   47 1  
    51   13   48 1  
    52   15   49 1  
    53   15   50 1  
    54   15   51 1  
    55   19   52 1  
    56   20   53 1  
    57   25   54 1  
    58   26   55 1  
    59   27   56 1  
    60   29   57 1  
    61   35   58 1  
    62   35   59 1  
    63   37   60 1  
    64   38   61 1  
    65   38   62 1  
    66   38   63 1  
@<TRIPOS>SUBSTRUCTURE
     1 03P         1

