### 
### Created by X-TOOL on Mon Sep 10 21:13:07 2018
### 

@<TRIPOS>MOLECULE
3rcj_ligand
   34    37     1     0     0
SMALL
GAST_HUCK


@<TRIPOS>ATOM
      1 C1        -14.1980  -26.7270   -8.9080 C.ar      1 3RC        -0.0504
      2 C2        -12.8720  -26.9930   -8.5130 C.ar      1 3RC        -0.0055
      3 N3        -12.1740  -26.1000   -7.7970 N.ar      1 3RC        -0.2857
      4 C4        -14.7880  -25.5030   -8.5380 C.ar      1 3RC        -0.0545
      5 C5        -14.0290  -24.5710   -7.7790 C.ar      1 3RC         0.0082
      6 C6        -12.6870  -24.9130   -7.4170 C.ar      1 3RC         0.1363
      7 N7        -12.1820  -23.8680   -6.7030 N.pl3     1 3RC        -0.2662
      8 C8        -13.1110  -22.8790   -6.5800 C.2       1 3RC         0.0330
      9 C9        -14.2660  -23.2280   -7.2050 C.2       1 3RC        -0.0081
     10 C10       -15.4990  -22.3870   -7.2590 C.2       1 3RC         0.0475
     11 N11       -15.6460  -21.1700   -6.7040 N.2       1 3RC        -0.2262
     12 N12       -16.8360  -20.7400   -6.9380 N.2       1 3RC        -0.0948
     13 N13       -17.4980  -21.6030   -7.6210 N.pl3     1 3RC        -0.1640
     14 C14       -16.6990  -22.6710   -7.8550 C.2       1 3RC         0.0761
     15 C15       -18.8900  -21.4570   -8.0720 C.3       1 3RC         0.1109
     16 C16       -18.9440  -20.4530   -9.1900 C.ar      1 3RC        -0.0098
     17 C17       -18.8830  -20.8880  -10.5270 C.ar      1 3RC        -0.0575
     18 C18       -18.9300  -19.9510  -11.5750 C.ar      1 3RC        -0.0685
     19 C19       -19.0400  -18.5760  -11.2850 C.ar      1 3RC        -0.0687
     20 C20       -19.1030  -18.1350   -9.9440 C.ar      1 3RC        -0.0685
     21 C21       -19.0550  -19.0760   -8.8960 C.ar      1 3RC        -0.0575
     22 H1        -14.7556  -27.4535   -9.4879 H         1 3RC         0.0598
     23 H2        -12.4097  -27.9329   -8.7920 H         1 3RC         0.0751
     24 H3        -15.8072  -25.2746   -8.8281 H         1 3RC         0.0674
     25 H4        -11.2303  -23.8309   -6.3108 H         1 3RC         0.2304
     26 H5        -12.9502  -21.9392   -6.0538 H         1 3RC         0.0936
     27 H6        -16.9583  -23.5738   -8.4060 H         1 3RC         0.0970
     28 H7        -19.5136  -21.1097   -7.2350 H         1 3RC         0.0817
     29 H8        -19.2645  -22.4272   -8.4303 H         1 3RC         0.0817
     30 H9        -18.7998  -21.9457  -10.7493 H         1 3RC         0.0558
     31 H10       -18.8817  -20.2860  -12.6048 H         1 3RC         0.0599
     32 H11       -19.0764  -17.8546  -12.0933 H         1 3RC         0.0559
     33 H12       -19.1879  -17.0773   -9.7223 H         1 3RC         0.0599
     34 H13       -19.1032  -18.7434   -7.8654 H         1 3RC         0.0558
@<TRIPOS>BOND
     1    1    2 ar 
     2    1    4 ar 
     3    2    3 ar 
     4    3    6 ar 
     5    4    5 ar 
     6    5    6 ar 
     7    5    9 1  
     8    6    7 1  
     9    7    8 1  
    10    8    9 2  
    11    9   10 1  
    12   10   11 1  
    13   10   14 2  
    14   11   12 2  
    15   12   13 1  
    16   13   14 1  
    17   13   15 1  
    18   15   16 1  
    19   16   17 ar 
    20   16   21 ar 
    21   17   18 ar 
    22   18   19 ar 
    23   19   20 ar 
    24   20   21 ar 
    25    1   22 1  
    26    2   23 1  
    27    4   24 1  
    28    7   25 1  
    29    8   26 1  
    30   14   27 1  
    31   15   28 1  
    32   15   29 1  
    33   17   30 1  
    34   18   31 1  
    35   19   32 1  
    36   20   33 1  
    37   21   34 1  
@<TRIPOS>SUBSTRUCTURE
     1 3RC         1

