### 
### Created by X-TOOL on Mon Sep 10 21:13:09 2018
### 

@<TRIPOS>MOLECULE
3rde_ligand
   59    59     1     0     0
SMALL
GAST_HUCK


@<TRIPOS>ATOM
      1 C1        -13.4790  -41.8670  -46.0450 C.ar      1 OYP        -0.0646
      2 O1        -14.6870  -44.9130  -48.2740 O.co2     1 OYP        -0.5689
      3 C2        -14.3280  -41.0010  -45.3650 C.ar      1 OYP        -0.0242
      4 O2        -16.8910  -44.6380  -48.2960 O.co2     1 OYP        -0.5689
      5 C3        -15.4230  -41.5030  -44.6810 C.ar      1 OYP        -0.0646
      6 O3        -13.5500  -39.1440  -44.2910 O.3       1 OYP        -0.3560
      7 C4        -15.6310  -42.8880  -44.7060 C.ar      1 OYP        -0.0666
      8 C5        -14.7880  -43.7470  -45.3910 C.ar      1 OYP        -0.0481
      9 C6        -13.7240  -43.2400  -46.0910 C.ar      1 OYP        -0.0666
     10 C7        -14.9950  -45.2400  -45.3870 C.3       1 OYP        -0.0107
     11 C8        -16.0620  -45.6190  -46.3600 C.3       1 OYP         0.0090
     12 C9        -15.8950  -45.0240  -47.7120 C.2       1 OYP         0.0366
     13 C10       -13.9700  -39.5730  -45.4820 C.3       1 OYP         0.0798
     14 C11       -13.3450  -37.7450  -44.1100 C.3       1 OYP         0.1107
     15 C12       -11.9180  -37.4940  -43.8210 C.1       1 OYP        -0.0738
     16 C13       -10.7610  -37.2650  -43.7480 C.1       1 OYP        -0.0999
     17 C14        -9.3490  -36.9300  -43.5090 C.3       1 OYP         0.0092
     18 C15        -8.3730  -38.0910  -43.6220 C.3       1 OYP        -0.0422
     19 C16        -8.4830  -38.8670  -44.8790 C.3       1 OYP        -0.0522
     20 C17        -7.6380  -40.1650  -44.9960 C.3       1 OYP        -0.0530
     21 C18        -7.6250  -40.7730  -46.3790 C.3       1 OYP        -0.0531
     22 C19        -6.6500  -41.9590  -46.5240 C.3       1 OYP        -0.0531
     23 C20        -7.0010  -42.7230  -47.8230 C.3       1 OYP        -0.0531
     24 C21        -6.1660  -43.9530  -48.1700 C.3       1 OYP        -0.0533
     25 C22        -6.1040  -44.9450  -46.9970 C.3       1 OYP        -0.0559
     26 C23        -5.3860  -46.2550  -47.3970 C.3       1 OYP        -0.0653
     27 H1        -12.6076  -41.4668  -46.5505 H         1 OYP         0.0540
     28 H2        -16.0970  -40.8454  -44.1439 H         1 OYP         0.0540
     29 H3        -16.4792  -43.3007  -44.1719 H         1 OYP         0.0540
     30 H4        -13.0835  -43.8948  -46.6707 H         1 OYP         0.0540
     31 H5        -15.2930  -45.5621  -44.3783 H         1 OYP         0.0431
     32 H6        -14.0549  -45.7372  -45.6679 H         1 OYP         0.0431
     33 H7        -17.0303  -45.2892  -45.9555 H         1 OYP         0.0451
     34 H8        -16.0614  -46.7142  -46.4630 H         1 OYP         0.0451
     35 H9        -14.8510  -38.9939  -45.7956 H         1 OYP         0.0711
     36 H10       -13.1677  -39.4510  -46.2246 H         1 OYP         0.0711
     37 H11       -13.9583  -37.3895  -43.2689 H         1 OYP         0.0699
     38 H12       -13.6339  -37.2097  -45.0265 H         1 OYP         0.0699
     39 H13        -9.2662  -36.5152  -42.4936 H         1 OYP         0.0397
     40 H14        -9.0530  -36.1657  -44.2427 H         1 OYP         0.0397
     41 H15        -8.5536  -38.7747  -42.7795 H         1 OYP         0.0274
     42 H16        -7.3514  -37.6886  -43.5552 H         1 OYP         0.0274
     43 H17        -8.1834  -38.2033  -45.7034 H         1 OYP         0.0266
     44 H18        -9.5392  -39.1492  -45.0008 H         1 OYP         0.0266
     45 H19        -8.0484  -40.9081  -44.2964 H         1 OYP         0.0265
     46 H20        -6.6016  -39.9286  -44.7134 H         1 OYP         0.0265
     47 H21        -7.3337  -39.9937  -47.0986 H         1 OYP         0.0265
     48 H22        -8.6399  -41.1269  -46.6126 H         1 OYP         0.0265
     49 H23        -6.7509  -42.6309  -45.6590 H         1 OYP         0.0265
     50 H24        -5.6167  -41.5859  -46.5800 H         1 OYP         0.0265
     51 H25        -6.9037  -42.0136  -48.6580 H         1 OYP         0.0265
     52 H26        -8.0481  -43.0496  -47.7394 H         1 OYP         0.0265
     53 H27        -5.1441  -43.6317  -48.4200 H         1 OYP         0.0265
     54 H28        -6.6153  -44.4558  -49.0391 H         1 OYP         0.0265
     55 H29        -7.1289  -45.1832  -46.6763 H         1 OYP         0.0263
     56 H30        -5.5580  -44.4788  -46.1636 H         1 OYP         0.0263
     57 H31        -5.3613  -46.9376  -46.5348 H         1 OYP         0.0230
     58 H32        -4.3576  -46.0274  -47.7140 H         1 OYP         0.0230
     59 H33        -5.9284  -46.7319  -48.2267 H         1 OYP         0.0230
@<TRIPOS>BOND
     1    1    3 ar 
     2    9    1 ar 
     3   12    2 ar 
     4    5    3 ar 
     5    3   13 1  
     6   12    4 ar 
     7    7    5 ar 
     8   13    6 1  
     9    6   14 1  
    10    8    7 ar 
    11    8    9 ar 
    12   10    8 1  
    13   11   10 1  
    14   11   12 1  
    15   14   15 1  
    16   15   16 3  
    17   16   17 1  
    18   17   18 1  
    19   18   19 1  
    20   19   20 1  
    21   20   21 1  
    22   21   22 1  
    23   22   23 1  
    24   23   24 1  
    25   24   25 1  
    26   25   26 1  
    27    1   27 1  
    28    5   28 1  
    29    7   29 1  
    30    9   30 1  
    31   10   31 1  
    32   10   32 1  
    33   11   33 1  
    34   11   34 1  
    35   13   35 1  
    36   13   36 1  
    37   14   37 1  
    38   14   38 1  
    39   17   39 1  
    40   17   40 1  
    41   18   41 1  
    42   18   42 1  
    43   19   43 1  
    44   19   44 1  
    45   20   45 1  
    46   20   46 1  
    47   21   47 1  
    48   21   48 1  
    49   22   49 1  
    50   22   50 1  
    51   23   51 1  
    52   23   52 1  
    53   24   53 1  
    54   24   54 1  
    55   25   55 1  
    56   25   56 1  
    57   26   57 1  
    58   26   58 1  
    59   26   59 1  
@<TRIPOS>SUBSTRUCTURE
     1 OYP         1

