### 
### Created by X-TOOL on Mon Sep 10 21:13:05 2018
### 

@<TRIPOS>MOLECULE
3rdo_ligand
   31    32     1     0     0
SMALL
GAST_HUCK


@<TRIPOS>ATOM
      1 C11       -24.4410  -19.6750   14.3640 C.2       1 BTN         0.0348
      2 O11       -23.8120  -20.7430   14.1980 O.co2     1 BTN        -0.5690
      3 O12       -25.4260  -19.6630   15.1460 O.co2     1 BTN        -0.5690
      4 C10       -23.9890  -18.4020   13.6940 C.3       1 BTN         0.0002
      5 C9        -25.1660  -17.5860   13.1570 C.3       1 BTN        -0.0414
      6 C8        -25.8300  -18.2890   11.9640 C.3       1 BTN        -0.0505
      7 C7        -26.9730  -17.4360   11.4130 C.3       1 BTN        -0.0389
      8 C2        -27.5900  -18.0400   10.1280 C.3       1 BTN         0.0302
      9 S1        -26.6390  -17.9760    8.6980 S.3       1 BTN        -0.1527
     10 C6        -28.0780  -18.5030    7.7250 C.3       1 BTN         0.0190
     11 C5        -29.2640  -17.7400    8.3090 C.3       1 BTN         0.0750
     12 N1        -29.4290  -16.4380    7.7140 N.am      1 BTN        -0.2671
     13 C3        -29.1930  -15.4960    8.5970 C.2       1 BTN         0.2580
     14 O3        -29.2060  -14.1630    8.2800 O.2       1 BTN        -0.4008
     15 N2        -28.9660  -15.9710    9.8160 N.am      1 BTN        -0.2668
     16 C4        -28.9560  -17.4300    9.7770 C.3       1 BTN         0.0775
     17 H1        -23.3238  -18.6587   12.8564 H         1 BTN         0.0430
     18 H2        -23.4388  -17.7920   14.4256 H         1 BTN         0.0430
     19 H3        -24.8015  -16.5995   12.8347 H         1 BTN         0.0283
     20 H4        -25.9094  -17.4586   13.9577 H         1 BTN         0.0283
     21 H5        -26.2280  -19.2608   12.2913 H         1 BTN         0.0267
     22 H6        -25.0815  -18.4467   11.1735 H         1 BTN         0.0267
     23 H7        -26.5860  -16.4327   11.1817 H         1 BTN         0.0277
     24 H8        -27.7580  -17.3585   12.1796 H         1 BTN         0.0277
     25 H9        -27.7509  -19.1048   10.3522 H         1 BTN         0.0435
     26 H10       -28.2324  -19.5877    7.8229 H         1 BTN         0.0399
     27 H11       -27.9401  -18.2465    6.6643 H         1 BTN         0.0399
     28 H12       -30.1820  -18.3367    8.2034 H         1 BTN         0.0584
     29 H13       -29.6871  -16.2750    6.7617 H         1 BTN         0.1849
     30 H14       -28.8238  -15.4147   10.6347 H         1 BTN         0.1849
     31 H15       -29.7254  -17.8401   10.4477 H         1 BTN         0.0587
@<TRIPOS>BOND
     1    1    2 ar 
     2    1    3 ar 
     3    1    4 1  
     4    4    5 1  
     5    5    6 1  
     6    6    7 1  
     7    7    8 1  
     8    8    9 1  
     9    8   16 1  
    10    9   10 1  
    11   10   11 1  
    12   11   12 1  
    13   11   16 1  
    14   12   13 am 
    15   13   14 2  
    16   13   15 am 
    17   15   16 1  
    18    4   17 1  
    19    4   18 1  
    20    5   19 1  
    21    5   20 1  
    22    6   21 1  
    23    6   22 1  
    24    7   23 1  
    25    7   24 1  
    26    8   25 1  
    27   10   26 1  
    28   10   27 1  
    29   11   28 1  
    30   12   29 1  
    31   15   30 1  
    32   16   31 1  
@<TRIPOS>SUBSTRUCTURE
     1 BTN         1

