### 
### Created by X-TOOL on Mon Sep 10 21:13:05 2018
### 

@<TRIPOS>MOLECULE
3rdq_ligand
   32    32     1     0     0
SMALL
GAST_HUCK


@<TRIPOS>ATOM
      1 CN         15.4890   28.8780   -8.5450 C.2       1 DTB         0.2580
      2 O          14.2310   29.1070   -8.2630 O.2       1 DTB        -0.4008
      3 N2         15.9200   28.3420   -9.6280 N.am      1 DTB        -0.2679
      4 CR         17.3930   28.4730   -9.7300 C.3       1 DTB         0.0647
      5 CS         17.7610   28.9460   -8.3010 C.3       1 DTB         0.0622
      6 N1         16.4590   29.2480   -7.7170 N.am      1 DTB        -0.2682
      7 CT         18.4750   27.8900   -7.4800 C.3       1 DTB        -0.0401
      8 CE         17.9330   27.1070  -10.1580 C.3       1 DTB        -0.0280
      9 CD         17.5570   26.7890  -11.6120 C.3       1 DTB        -0.0508
     10 CG         18.3290   25.5810  -12.1590 C.3       1 DTB        -0.0515
     11 CB         17.6020   25.0070  -13.3870 C.3       1 DTB        -0.0414
     12 CA         18.4390   23.8930  -14.0620 C.3       1 DTB         0.0002
     13 C          19.7530   24.4100  -14.6200 C.2       1 DTB         0.0348
     14 OI1        20.8200   23.7920  -14.3990 O.co2     1 DTB        -0.5690
     15 OI2        19.7370   25.4410  -15.3610 O.co2     1 DTB        -0.5690
     16 H1         15.3409   27.8963  -10.3107 H         1 DTB         0.1849
     17 H2         17.6940   29.2290  -10.4701 H         1 DTB         0.0575
     18 H3         18.3909   29.8466   -8.3468 H         1 DTB         0.0573
     19 H4         16.3173   29.6722   -6.8226 H         1 DTB         0.1849
     20 H5         18.7040   28.2937   -6.4827 H         1 DTB         0.0252
     21 H6         19.4104   27.6044   -7.9835 H         1 DTB         0.0252
     22 H7         17.8287   27.0058   -7.3780 H         1 DTB         0.0252
     23 H8         17.5101   26.3327   -9.5011 H         1 DTB         0.0288
     24 H9         19.0289   27.1094  -10.0637 H         1 DTB         0.0288
     25 H10        17.7829   27.6660  -12.2363 H         1 DTB         0.0266
     26 H11        16.4796   26.5723  -11.6601 H         1 DTB         0.0266
     27 H12        18.3953   24.8073  -11.3799 H         1 DTB         0.0266
     28 H13        19.3419   25.8966  -12.4495 H         1 DTB         0.0266
     29 H14        17.4293   25.8157  -14.1124 H         1 DTB         0.0283
     30 H15        16.6363   24.5874  -13.0688 H         1 DTB         0.0283
     31 H16        17.8519   23.4606  -14.8856 H         1 DTB         0.0430
     32 H17        18.6548   23.1133  -13.3167 H         1 DTB         0.0430
@<TRIPOS>BOND
     1    1    2 2  
     2    1    3 am 
     3    1    6 am 
     4    3    4 1  
     5    4    5 1  
     6    4    8 1  
     7    5    6 1  
     8    5    7 1  
     9    8    9 1  
    10    9   10 1  
    11   10   11 1  
    12   11   12 1  
    13   12   13 1  
    14   13   14 ar 
    15   13   15 ar 
    16    3   16 1  
    17    4   17 1  
    18    5   18 1  
    19    6   19 1  
    20    7   20 1  
    21    7   21 1  
    22    7   22 1  
    23    8   23 1  
    24    8   24 1  
    25    9   25 1  
    26    9   26 1  
    27   10   27 1  
    28   10   28 1  
    29   11   29 1  
    30   11   30 1  
    31   12   31 1  
    32   12   32 1  
@<TRIPOS>SUBSTRUCTURE
     1 DTB         1

