### 
### Created by X-TOOL on Fri Sep 26 17:34:51 2014
### 

@<TRIPOS>MOLECULE
3rdv_ligand
  123   125     1     0     0
SMALL
GAST_HUCK


@<TRIPOS>ATOM
      1 N          16.6690  -21.4050  -14.4150 N.4       1 ASP         0.2391
      2 CA         15.5040  -22.2760  -14.3970 C.3       1 ASP         0.0764
      3 C          14.2280  -21.5090  -14.7530 C.2       1 ASP         0.2285
      4 O          14.2420  -20.2840  -14.8420 O.2       1 ASP        -0.3906
      5 CB         15.3640  -22.9440  -13.0350 C.3       1 ASP         0.0607
      6 CG         14.3640  -24.0730  -13.0510 C.2       1 ASP         0.0425
      7 OD1        14.5520  -25.0160  -13.8470 O.co2     1 ASP        -0.5686
      8 OD2        13.3910  -24.0120  -12.2750 O.co2     1 ASP        -0.5686
      9 N          13.1290  -22.2370  -14.9450 N.am      1 ASP        -0.2588
     10 CA         11.9010  -21.6630  -15.5040 C.3       1 ASP         0.1540
     11 C          11.3140  -20.4980  -14.7160 C.2       1 ASP         0.2063
     12 O          10.7050  -19.6050  -15.2980 O.2       1 ASP        -0.3943
     13 CB         10.8320  -22.7380  -15.6990 C.3       1 ASP         0.0843
     14 OG         11.1630  -23.5850  -16.7820 O.3       1 ASP        -0.3903
     15 N          11.4790  -20.5090  -13.3980 N.am      1 ASP        -0.2626
     16 CA         10.9360  -19.4330  -12.5710 C.3       1 ASP         0.1352
     17 C          11.4600  -18.0580  -12.9980 C.2       1 ASP         0.2052
     18 O          10.8310  -17.0320  -12.7170 O.2       1 ASP        -0.3942
     19 CB         11.2200  -19.6860  -11.0860 C.3       1 ASP         0.0042
     20 CG         12.6650  -19.5660  -10.7150 C.2       1 ASP        -0.0418
     21 CD1        13.6020  -20.5540  -10.7440 C.2       1 ASP         0.0167
     22 CD2        13.3370  -18.3870  -10.2490 C.ar      1 ASP        -0.0214
     23 NE1        14.8160  -20.0640  -10.3360 N.pl3     1 ASP        -0.2890
     24 CE2        14.6810  -18.7370  -10.0240 C.ar      1 ASP         0.0603
     25 CE3        12.9330  -17.0690  -10.0040 C.ar      1 ASP        -0.0747
     26 CZ2        15.6240  -17.8190   -9.5580 C.ar      1 ASP        -0.0443
     27 CZ3        13.8690  -16.1600   -9.5450 C.ar      1 ASP        -0.0792
     28 CH2        15.1990  -16.5380   -9.3300 C.ar      1 ASP        -0.0768
     29 N          12.5990  -18.0440  -13.6920 N.am      1 ASP        -0.2636
     30 CA         13.2350  -16.7940  -14.1170 C.3       1 ASP         0.1310
     31 C          12.7830  -16.3330  -15.4940 C.2       1 ASP         0.2040
     32 O          13.2650  -15.3200  -16.0070 O.2       1 ASP        -0.3944
     33 CB         14.7590  -16.9210  -14.0990 C.3       1 ASP        -0.0122
     34 CG         15.3440  -17.0740  -12.7180 C.3       1 ASP        -0.0440
     35 CD         16.8670  -17.0290  -12.7490 C.3       1 ASP        -0.0124
     36 CE         17.4380  -18.1600  -13.5880 C.3       1 ASP        -0.0354
     37 NZ         18.8870  -18.3680  -13.3120 N.4       1 ASP         0.2185
     38 N          11.8710  -17.0840  -16.1030 N.am      1 ASP        -0.2622
     39 CA         11.2420  -16.6460  -17.3360 C.3       1 ASP         0.1423
     40 C          10.5200  -15.3270  -17.0950 C.2       1 ASP         0.2054
     41 O           9.8200  -15.1710  -16.0910 O.2       1 ASP        -0.3943
     42 CB         10.2480  -17.7020  -17.8340 C.3       1 ASP         0.0406
     43 CG         10.9350  -18.9460  -18.3460 C.2       1 ASP         0.0393
     44 OD1        12.1850  -18.9880  -18.3120 O.co2     1 ASP        -0.5688
     45 OD2        10.2270  -19.8810  -18.7850 O.co2     1 ASP        -0.5688
     46 N          10.6980  -14.3740  -18.0070 N.am      1 ASP        -0.2663
     47 CA         10.0220  -13.0970  -17.8980 C.3       1 ASP         0.1201
     48 C          10.6780  -12.1900  -16.8730 C.2       1 ASP         0.2008
     49 O          10.0970  -11.1870  -16.4760 O.2       1 ASP        -0.3947
     50 N          11.8750  -12.5710  -16.4340 N.am      1 ASP        -0.2632
     51 CA         12.6810  -11.7720  -15.5180 C.3       1 ASP         0.1396
     52 C          13.9300  -11.2920  -16.2220 C.2       1 ASP         0.2043
     53 O          14.3060  -11.8270  -17.2640 O.2       1 ASP        -0.3944
     54 CB         13.1200  -12.6060  -14.3150 C.3       1 ASP         0.0311
     55 SG         11.8040  -13.0130  -13.1850 S.3       1 ASP        -0.1735
     56 N          14.5960  -10.3020  -15.6360 N.am      1 ASP        -0.2679
     57 CA         15.8490   -9.8040  -16.1950 C.3       1 ASP         0.1025
     58 C          16.9500   -9.8460  -15.1500 C.2       1 ASP         0.0619
     59 O          16.6870  -10.0310  -13.9570 O.co2     1 ASP        -0.5665
     60 CB         15.6960   -8.3770  -16.7460 C.3       1 ASP         0.0108
     61 CG         14.8230   -8.2970  -17.9790 C.ar      1 ASP        -0.0499
     62 CD1        15.3860   -8.2080  -19.2380 C.ar      1 ASP        -0.0686
     63 CD2        13.4420   -8.3220  -17.8770 C.ar      1 ASP        -0.0686
     64 CE1        14.5950   -8.1490  -20.3680 C.ar      1 ASP        -0.0398
     65 CE2        12.6340   -8.2800  -19.0030 C.ar      1 ASP        -0.0398
     66 CZ         13.2200   -8.1850  -20.2430 C.ar      1 ASP         0.0805
     67 OH         12.4360   -8.1230  -21.3650 O.3       1 ASP        -0.3376
     68 OXT        18.1280   -9.6950  -15.4840 O.co2     1 ASP        -0.5665
     69 H1         17.4908  -21.9381  -14.1772 H         1 ASP         0.2016
     70 H2         16.5442  -20.6630  -13.7443 H         1 ASP         0.2016
     71 H3         16.7794  -21.0105  -15.3360 H         1 ASP         0.2016
     72 H4         15.6522  -23.0613  -15.1529 H         1 ASP         0.1117
     73 H5         15.0354  -22.1908  -12.3037 H         1 ASP         0.0512
     74 H6         16.3438  -23.3437  -12.7347 H         1 ASP         0.0512
     75 H7         13.1419  -23.2064  -14.6999 H         1 ASP         0.1885
     76 H8         12.1641  -21.2725  -16.4981 H         1 ASP         0.0823
     77 H9          9.8659  -22.2531  -15.9027 H         1 ASP         0.0606
     78 H10        10.7541  -23.3397  -14.7815 H         1 ASP         0.0606
     79 H11        10.4867  -24.2442  -16.8852 H         1 ASP         0.2097
     80 H12        11.9793  -21.2603  -12.9676 H         1 ASP         0.1884
     81 H13         9.8446  -19.4290  -12.7079 H         1 ASP         0.0815
     82 H14        10.8821  -20.7028  -10.8372 H         1 ASP         0.0397
     83 H15        10.6490  -18.9549  -10.4949 H         1 ASP         0.0397
     84 H16        13.4144  -21.5830  -11.0470 H         1 ASP         0.0795
     85 H17        15.6893  -20.6067  -10.2741 H         1 ASP         0.2216
     86 H18        11.9055  -16.7666  -10.1710 H         1 ASP         0.0540
     87 H19        16.6536  -18.1097   -9.3834 H         1 ASP         0.0541
     88 H20        13.5672  -15.1376   -9.3485 H         1 ASP         0.0510
     89 H21        15.9088  -15.7997   -8.9749 H         1 ASP         0.0530
     90 H22        13.0323  -18.9133  -13.9296 H         1 ASP         0.1883
     91 H23        12.9481  -16.0168  -13.3934 H         1 ASP         0.0800
     92 H24        15.1871  -16.0177  -14.5581 H         1 ASP         0.0312
     93 H25        15.0399  -17.8028  -14.6935 H         1 ASP         0.0312
     94 H26        15.0233  -18.0391  -12.2988 H         1 ASP         0.0269
     95 H27        14.9751  -16.2567  -12.0809 H         1 ASP         0.0269
     96 H28        17.2487  -17.1179  -11.7212 H         1 ASP         0.0317
     97 H29        17.1881  -16.0682  -13.1776 H         1 ASP         0.0317
     98 H30        17.3087  -17.9155  -14.6527 H         1 ASP         0.0813
     99 H31        16.8935  -19.0871  -13.3559 H         1 ASP         0.0813
    100 H32        19.2329  -19.1230  -13.8834 H         1 ASP         0.1994
    101 H33        19.0141  -18.5977  -12.3388 H         1 ASP         0.1994
    102 H34        19.3946  -17.5241  -13.5271 H         1 ASP         0.1994
    103 H35        11.6140  -17.9649  -15.7055 H         1 ASP         0.1884
    104 H36        12.0180  -16.4975  -18.1014 H         1 ASP         0.0819
    105 H37         9.6508  -17.2678  -18.6493 H         1 ASP         0.0478
    106 H38         9.5846  -17.9821  -17.0025 H         1 ASP         0.0478
    107 H39        11.3088  -14.5422  -18.7807 H         1 ASP         0.1881
    108 H40         8.9779  -13.2726  -17.5997 H         1 ASP         0.0763
    109 H41        10.0444  -12.5988  -18.8785 H         1 ASP         0.0763
    110 H42        12.2396  -13.4478  -16.7474 H         1 ASP         0.1884
    111 H43        12.0910  -10.9095  -15.1745 H         1 ASP         0.0808
    112 H44        13.8845  -12.0392  -13.7635 H         1 ASP         0.0422
    113 H45        13.5567  -13.5444  -14.6874 H         1 ASP         0.0422
    114 H46        12.1737  -13.5607  -12.4238 H         1 ASP         0.1019
    115 H47        14.2330   -9.8921  -14.7992 H         1 ASP         0.1877
    116 H48        16.1366  -10.4629  -17.0275 H         1 ASP         0.0747
    117 H49        16.6948   -7.9932  -17.0010 H         1 ASP         0.0446
    118 H50        15.2502   -7.7470  -15.9622 H         1 ASP         0.0446
    119 H51        16.4649   -8.1842  -19.3398 H         1 ASP         0.0530
    120 H52        12.9832   -8.3755  -16.8963 H         1 ASP         0.0530
    121 H53        15.0509   -8.0748  -21.3487 H         1 ASP         0.0525
    122 H54        11.5551   -8.3215  -18.9069 H         1 ASP         0.0525
    123 H55        12.9901   -8.0606  -22.1341 H         1 ASP         0.2458
@<TRIPOS>BOND
     1    1    2 1  
     2    2    3 1  
     3    2    5 1  
     4    3    4 2  
     5    3    9 am 
     6    5    6 1  
     7    6    7 ar 
     8    6    8 ar 
     9    9   10 1  
    10   10   11 1  
    11   10   13 1  
    12   11   12 2  
    13   11   15 am 
    14   13   14 1  
    15   15   16 1  
    16   16   17 1  
    17   16   19 1  
    18   17   18 2  
    19   17   29 am 
    20   19   20 1  
    21   20   21 2  
    22   20   22 1  
    23   21   23 1  
    24   22   24 ar 
    25   22   25 ar 
    26   23   24 1  
    27   24   26 ar 
    28   25   27 ar 
    29   26   28 ar 
    30   27   28 ar 
    31   29   30 1  
    32   30   31 1  
    33   30   33 1  
    34   31   32 2  
    35   31   38 am 
    36   33   34 1  
    37   34   35 1  
    38   35   36 1  
    39   36   37 1  
    40   38   39 1  
    41   39   40 1  
    42   39   42 1  
    43   40   41 2  
    44   40   46 am 
    45   42   43 1  
    46   43   44 ar 
    47   43   45 ar 
    48   46   47 1  
    49   47   48 1  
    50   48   49 2  
    51   48   50 am 
    52   50   51 1  
    53   51   52 1  
    54   51   54 1  
    55   52   53 2  
    56   52   56 am 
    57   54   55 1  
    58   56   57 1  
    59   57   58 1  
    60   57   60 1  
    61   58   59 ar 
    62   58   68 ar 
    63   60   61 1  
    64   61   62 ar 
    65   61   63 ar 
    66   62   64 ar 
    67   63   65 ar 
    68   64   66 ar 
    69   65   66 ar 
    70   66   67 1  
    71    1   69 1  
    72    1   70 1  
    73    1   71 1  
    74    2   72 1  
    75    5   73 1  
    76    5   74 1  
    77    9   75 1  
    78   10   76 1  
    79   13   77 1  
    80   13   78 1  
    81   14   79 1  
    82   15   80 1  
    83   16   81 1  
    84   19   82 1  
    85   19   83 1  
    86   21   84 1  
    87   23   85 1  
    88   25   86 1  
    89   26   87 1  
    90   27   88 1  
    91   28   89 1  
    92   29   90 1  
    93   30   91 1  
    94   33   92 1  
    95   33   93 1  
    96   34   94 1  
    97   34   95 1  
    98   35   96 1  
    99   35   97 1  
   100   36   98 1  
   101   36   99 1  
   102   37  100 1  
   103   37  101 1  
   104   37  102 1  
   105   38  103 1  
   106   39  104 1  
   107   42  105 1  
   108   42  106 1  
   109   46  107 1  
   110   47  108 1  
   111   47  109 1  
   112   50  110 1  
   113   51  111 1  
   114   54  112 1  
   115   54  113 1  
   116   55  114 1  
   117   56  115 1  
   118   57  116 1  
   119   60  117 1  
   120   60  118 1  
   121   62  119 1  
   122   63  120 1  
   123   64  121 1  
   124   65  122 1  
   125   67  123 1  
@<TRIPOS>SUBSTRUCTURE
     1 ASP         1

