### 
### Created by X-TOOL on Mon Sep 10 21:13:11 2018
### 

@<TRIPOS>MOLECULE
3re4_ligand
   34    36     1     0     0
SMALL
GAST_HUCK


@<TRIPOS>ATOM
      1 C           7.6150    2.1430   25.3360 C.3       1 TO1         0.2017
      2 N           8.4730    2.2490   26.5260 N.pl3     1 TO1        -0.2018
      3 O           7.3230    0.7890   24.9830 O.3       1 TO1        -0.3363
      4 C2          8.4550    3.3000   27.3520 C.ar      1 TO1         0.1521
      5 N2          7.7570    4.4380   27.3360 N.ar      1 TO1        -0.2731
      6 O2          7.1600    3.3050   23.2260 O.3       1 TO1        -0.3835
      7 C3          7.8870    5.3800   28.2490 C.ar      1 TO1         0.0522
      8 N3          8.7660    5.2100   29.2390 N.ar      1 TO1        -0.2714
      9 O3          8.4710    1.9290   21.9510 O.3       1 TO1        -0.3864
     10 C4          9.5430    4.1360   29.4310 C.ar      1 TO1         0.1201
     11 N4         11.8030    0.6450   29.3760 N.1       1 TO1        -0.3628
     12 O4         10.1110   -0.4940   24.1190 O.3       1 TO1        -0.3924
     13 C5          9.4170    3.0680   28.4440 C.ar      1 TO1         0.0772
     14 N5         10.4240    3.9780   30.4450 N.pl3     1 TO1        -0.3158
     15 C6          9.9800    1.7500   28.0930 C.2       1 TO1         0.1081
     16 C7          9.3460    1.2600   26.8910 C.2       1 TO1         0.0822
     17 C8         10.8890    1.0860   28.8100 C.1       1 TO1         0.0623
     18 C9          8.1970    2.7860   24.0920 C.3       1 TO1         0.1391
     19 C10         8.7600    1.6430   23.3130 C.3       1 TO1         0.1146
     20 C11         7.9180    0.4490   23.7190 C.3       1 TO1         0.1136
     21 C12         8.7320   -0.8220   23.8840 C.3       1 TO1         0.0730
     22 H1          6.6701    2.6524   25.5762 H         1 TO1         0.1005
     23 H2          7.5578    3.6996   22.4588 H         1 TO1         0.2101
     24 H3          7.2874    6.2816   28.1964 H         1 TO1         0.0985
     25 H4          7.5305    1.9972   21.8356 H         1 TO1         0.2100
     26 H5         10.6127   -1.2942   24.2210 H         1 TO1         0.2095
     27 H6         10.9815    3.1146   30.5130 H         1 TO1         0.1821
     28 H7         10.5374    4.7211   31.1492 H         1 TO1         0.1821
     29 H8          9.5237    0.3117   26.3860 H         1 TO1         0.1205
     30 H9          8.9439    3.5536   24.3425 H         1 TO1         0.0677
     31 H10         9.8339    1.4858   23.4919 H         1 TO1         0.0648
     32 H11         7.1372    0.2772   22.9635 H         1 TO1         0.0647
     33 H12         8.3431   -1.3956   24.7382 H         1 TO1         0.0584
     34 H13         8.6521   -1.4273   22.9690 H         1 TO1         0.0584
@<TRIPOS>BOND
     1    1    2 1  
     2    3    1 1  
     3   18    1 1  
     4    2    4 1  
     5    2   16 1  
     6   20    3 1  
     7    4    5 ar 
     8    4   13 ar 
     9    5    7 ar 
    10   18    6 1  
    11    7    8 ar 
    12   10    8 ar 
    13   19    9 1  
    14   13   10 ar 
    15   10   14 1  
    16   17   11 3  
    17   21   12 1  
    18   15   13 1  
    19   16   15 2  
    20   15   17 1  
    21   19   18 1  
    22   20   19 1  
    23   20   21 1  
    24    1   22 1  
    25    6   23 1  
    26    7   24 1  
    27    9   25 1  
    28   12   26 1  
    29   14   27 1  
    30   14   28 1  
    31   16   29 1  
    32   18   30 1  
    33   19   31 1  
    34   20   32 1  
    35   21   33 1  
    36   21   34 1  
@<TRIPOS>SUBSTRUCTURE
     1 TO1         1

