### 
### Created by X-TOOL on Mon Sep 10 21:13:08 2018
### 

@<TRIPOS>MOLECULE
3rey_ligand
   60    62     1     0     0
SMALL
GAST_HUCK


@<TRIPOS>ATOM
      1 C1         48.9990   24.1270   30.3690 C.2       1 XAC         0.2049
      2 N1         47.4200   21.9500   31.2320 N.am      1 XAC        -0.1674
      3 O1         49.7200   25.0800   30.0490 O.2       1 XAC        -0.4062
      4 C2         47.2530   22.4800   29.9710 C.2       1 XAC         0.3279
      5 N2         48.0220   23.5680   29.5920 N.am      1 XAC        -0.1722
      6 O2         46.4130   21.9920   29.2000 O.2       1 XAC        -0.3836
      7 C3         49.7100   23.0270   33.7450 C.2       1 XAC         0.1204
      8 N3         48.7440   22.1450   33.4190 N.pl3     1 XAC        -0.2297
      9 O3         52.1770   23.4190   38.8610 O.3       1 XAC        -0.2968
     10 C4         48.3930   22.4870   32.1110 C.2       1 XAC         0.2053
     11 N4         49.9710   23.8670   32.7210 N.2       1 XAC        -0.3304
     12 O4         53.4690   23.0250   41.5130 O.2       1 XAC        -0.3941
     13 C5         49.1320   23.5200   31.6790 C.2       1 XAC         0.1116
     14 N5         51.5090   23.9920   42.0740 N.am      1 XAC        -0.2796
     15 C6         47.7400   24.2150   28.2900 C.3       1 XAC         0.0585
     16 N6         51.1610   25.9650   45.2170 N.4       1 XAC         0.2200
     17 C7         46.6940   25.3380   28.4360 C.3       1 XAC        -0.0310
     18 C8         46.5800   20.8480   31.7220 C.3       1 XAC         0.0635
     19 C9         47.2750   19.4840   31.5650 C.3       1 XAC        -0.0292
     20 C10        46.4900   18.3500   32.2330 C.3       1 XAC        -0.0629
     21 C11        46.2680   25.9340   27.0910 C.3       1 XAC        -0.0631
     22 C12        51.5720   23.2420   37.6350 C.ar      1 XAC         0.0954
     23 C13        50.5720   22.2760   37.3650 C.ar      1 XAC        -0.0317
     24 C14        49.9740   22.1990   36.0920 C.ar      1 XAC        -0.0591
     25 C15        50.3680   23.0770   35.0560 C.ar      1 XAC         0.0080
     26 C16        51.3910   24.0170   35.3160 C.ar      1 XAC        -0.0591
     27 C17        51.9840   24.0960   36.5930 C.ar      1 XAC        -0.0317
     28 C18        51.6400   22.7210   39.9810 C.3       1 XAC         0.1593
     29 C19        52.2840   23.2610   41.2620 C.2       1 XAC         0.2072
     30 C20        51.9250   24.5800   43.3390 C.3       1 XAC         0.0708
     31 C21        50.7600   25.3700   43.9570 C.3       1 XAC        -0.0148
     32 H          48.3575   21.3980   33.9961 H         1 XAC         0.2365
     33 H          50.5449   24.1501   41.7809 H         1 XAC         0.1854
     34 H          47.3470   23.4621   27.6068 H         1 XAC         0.0575
     35 H          48.6650   24.6501   27.9117 H         1 XAC         0.0575
     36 H          50.3766   26.4841   45.6114 H         1 XAC         0.1995
     37 H          51.4432   25.2292   45.8645 H         1 XAC         0.1995
     38 H          51.9443   26.5988   45.0583 H         1 XAC         0.1995
     39 H          47.1429   26.1365   29.0268 H         1 XAC         0.0286
     40 H          45.8087   24.9094   28.9057 H         1 XAC         0.0286
     41 H          45.6604   20.8327   31.1370 H         1 XAC         0.0599
     42 H          46.3843   21.0122   32.7816 H         1 XAC         0.0599
     43 H          48.2524   19.5458   32.0434 H         1 XAC         0.0288
     44 H          47.3482   19.2627   30.5002 H         1 XAC         0.0288
     45 H          46.3899   18.5576   33.2984 H         1 XAC         0.0231
     46 H          45.5007   18.2792   31.7808 H         1 XAC         0.0231
     47 H          47.0229   17.4095   32.0933 H         1 XAC         0.0231
     48 H          47.1394   26.3542   26.5889 H         1 XAC         0.0231
     49 H          45.8316   25.1515   26.4702 H         1 XAC         0.0231
     50 H          45.5308   26.7189   27.2600 H         1 XAC         0.0231
     51 H          50.2623   21.5857   38.1496 H         1 XAC         0.0547
     52 H          49.1998   21.4552   35.9036 H         1 XAC         0.0595
     53 H          51.7243   24.6864   34.5229 H         1 XAC         0.0595
     54 H          52.7713   24.8272   36.7762 H         1 XAC         0.0547
     55 H          51.8502   21.6558   39.8851 H         1 XAC         0.0860
     56 H          50.5608   22.8680   40.0224 H         1 XAC         0.0860
     57 H          52.7635   25.2541   43.1637 H         1 XAC         0.0573
     58 H          52.2241   23.7861   44.0234 H         1 XAC         0.0573
     59 H          50.4656   26.1626   43.2691 H         1 XAC         0.0833
     60 H          49.9269   24.6902   44.1359 H         1 XAC         0.0833
@<TRIPOS>BOND
     1    1    3 2  
     2    1    5 am 
     3   13    1 1  
     4    2    4 am 
     5   10    2 1  
     6    2   18 1  
     7    5    4 am 
     8    4    6 2  
     9    5   15 1  
    10    7    8 1  
    11    7   11 2  
    12   25    7 1  
    13    8   10 1  
    14    9   22 1  
    15   28    9 1  
    16   13   10 2  
    17   11   13 1  
    18   29   12 2  
    19   14   29 am 
    20   30   14 1  
    21   15   17 1  
    22   31   16 1  
    23   17   21 1  
    24   18   19 1  
    25   19   20 1  
    26   22   23 ar 
    27   22   27 ar 
    28   23   24 ar 
    29   24   25 ar 
    30   26   25 ar 
    31   27   26 ar 
    32   29   28 1  
    33   30   31 1  
    34    8   32 1  
    35   14   33 1  
    36   15   34 1  
    37   15   35 1  
    38   16   36 1  
    39   16   37 1  
    40   16   38 1  
    41   17   39 1  
    42   17   40 1  
    43   18   41 1  
    44   18   42 1  
    45   19   43 1  
    46   19   44 1  
    47   20   45 1  
    48   20   46 1  
    49   20   47 1  
    50   21   48 1  
    51   21   49 1  
    52   21   50 1  
    53   23   51 1  
    54   24   52 1  
    55   26   53 1  
    56   27   54 1  
    57   28   55 1  
    58   28   56 1  
    59   30   57 1  
    60   30   58 1  
    61   31   59 1  
    62   31   60 1  
@<TRIPOS>SUBSTRUCTURE
     1 XAC         1

