### 
### Created by X-TOOL on Mon Sep 10 21:13:05 2018
### 

@<TRIPOS>MOLECULE
3rf4_ligand
   31    32     1     0     0
SMALL
GAST_HUCK


@<TRIPOS>ATOM
      1 N1        -50.8250   48.7010   12.8980 N.am      1 FUN        -0.2623
      2 S1        -50.1660   47.8100   13.8770 S.o2      1 FUN         0.0611
      3 O1        -51.1520   46.9120   14.5080 O.2       1 FUN        -0.1521
      4 O2        -49.2080   48.5740   14.7760 O.2       1 FUN        -0.1521
      5 C1        -49.1590   46.7810   13.0010 C.ar      1 FUN         0.1120
      6 C2        -48.0870   47.2760   12.0780 C.ar      1 FUN         0.0581
      7 CL1       -47.8000   48.7710   11.8270 Cl        1 FUN        -0.0697
      8 C3        -47.3210   46.3680   11.3290 C.ar      1 FUN        -0.0247
      9 C4        -47.5260   44.9880   11.4800 C.ar      1 FUN         0.0555
     10 N2        -46.7520   44.0570   10.7580 N.pl3     1 FUN        -0.3059
     11 C5        -45.9250   44.6450    9.6700 C.3       1 FUN         0.0880
     12 C6        -46.7150   44.9890    8.4510 C.2       1 FUN         0.1166
     13 C7        -47.4070   44.0500    7.7020 C.2       1 FUN        -0.0686
     14 C8        -48.0280   44.7270    6.6670 C.2       1 FUN        -0.0808
     15 C9        -47.7030   46.0600    6.7940 C.2       1 FUN         0.0669
     16 O3        -46.9000   46.2720    7.9350 O.3       1 FUN        -0.2668
     17 C10       -48.5390   44.5270   12.4150 C.ar      1 FUN         0.0294
     18 C11       -49.3230   45.4110   13.2360 C.ar      1 FUN        -0.0321
     19 C12       -48.6830   43.0520   12.6430 C.2       1 FUN         0.0560
     20 O4        -49.3420   42.6860   13.6280 O.co2     1 FUN        -0.5650
     21 O5        -48.1290   42.2760   11.8520 O.co2     1 FUN        -0.5650
     22 H1        -51.4818   48.3261   12.2437 H         1 FUN         0.1633
     23 H2        -50.6138   49.6784   12.8902 H         1 FUN         0.1633
     24 H3        -46.5723   46.7327   10.6351 H         1 FUN         0.0528
     25 H4        -46.7585   43.0485   10.9673 H         1 FUN         0.1799
     26 H5        -45.1483   43.9183    9.3896 H         1 FUN         0.0707
     27 H6        -45.4497   45.5619   10.0487 H         1 FUN         0.0707
     28 H7        -47.4533   42.9788    7.8926 H         1 FUN         0.0219
     29 H8        -48.6574   44.2873    5.8947 H         1 FUN         0.0296
     30 H9        -48.0222   46.8430    6.1077 H         1 FUN         0.0854
     31 H10       -50.0022   45.0372   13.9936 H         1 FUN         0.0636
@<TRIPOS>BOND
     1    1    2 am 
     2    2    3 2  
     3    2    4 2  
     4    2    5 1  
     5    5    6 ar 
     6    5   18 ar 
     7    6    7 1  
     8    6    8 ar 
     9    8    9 ar 
    10    9   10 1  
    11    9   17 ar 
    12   10   11 1  
    13   11   12 1  
    14   12   13 2  
    15   12   16 1  
    16   13   14 1  
    17   14   15 2  
    18   15   16 1  
    19   17   18 ar 
    20   17   19 1  
    21   19   20 ar 
    22   19   21 ar 
    23    1   22 1  
    24    1   23 1  
    25    8   24 1  
    26   10   25 1  
    27   11   26 1  
    28   11   27 1  
    29   13   28 1  
    30   14   29 1  
    31   15   30 1  
    32   18   31 1  
@<TRIPOS>SUBSTRUCTURE
     1 FUN         1

