### 
### Created by X-TOOL on Mon Sep 10 21:13:05 2018
### 

@<TRIPOS>MOLECULE
3rf5_ligand
   26    27     1     0     0
SMALL
GAST_HUCK


@<TRIPOS>ATOM
      1 OAA        25.8020  -20.3750   30.8610 O.co2     1 FUZ        -0.5650
      2 OAB        24.8190  -21.4220   32.5720 O.co2     1 FUZ        -0.5650
      3 CAC        21.3700  -17.9520   31.2760 C.ar      1 FUZ        -0.0709
      4 CAD        21.3500  -18.9790   32.2320 C.ar      1 FUZ        -0.0714
      5 CAE        22.4450  -18.0460   25.7690 C.2       1 FUZ        -0.0808
      6 CAF        23.3280  -19.0300   25.5810 C.2       1 FUZ         0.0669
      7 CAG        22.7960  -17.3510   26.8760 C.2       1 FUZ        -0.0686
      8 CAH        22.4840  -17.7740   30.4430 C.ar      1 FUZ        -0.0403
      9 CAI        22.4810  -19.8160   32.3690 C.ar      1 FUZ        -0.0592
     10 CAJ        24.6590  -17.3910   28.6540 C.3       1 FUZ         0.0880
     11 NAK        24.6840  -18.4220   29.7430 N.pl3     1 FUZ        -0.3059
     12 OAL        24.3090  -18.9590   26.6140 O.3       1 FUZ        -0.2668
     13 CAM        24.8520  -20.5460   31.6660 C.2       1 FUZ         0.0559
     14 CAN        23.9030  -17.8830   27.4040 C.2       1 FUZ         0.1166
     15 CAO        23.6030  -18.6000   30.5460 C.ar      1 FUZ         0.0550
     16 CAP        23.6040  -19.6140   31.5250 C.ar      1 FUZ         0.0275
     17 H1         20.5167  -17.2903   31.1805 H         1 FUZ         0.0604
     18 H2         20.4778  -19.1288   32.8580 H         1 FUZ         0.0513
     19 H3         21.5841  -17.8371   25.1357 H         1 FUZ         0.0296
     20 H4         23.3033  -19.7625   24.7755 H         1 FUZ         0.0854
     21 H5         22.2596  -16.4913   27.2750 H         1 FUZ         0.0219
     22 H6         22.4752  -16.9797   29.7054 H         1 FUZ         0.0523
     23 H7         22.4904  -20.6051   33.1121 H         1 FUZ         0.0616
     24 H8         25.6941  -17.1503   28.3701 H         1 FUZ         0.0707
     25 H9         24.1632  -16.4858   29.0344 H         1 FUZ         0.0707
     26 H10        25.5260  -18.9986   29.8828 H         1 FUZ         0.1799
@<TRIPOS>BOND
     1   13    1 ar 
     2   13    2 ar 
     3    4    3 ar 
     4    3    8 ar 
     5    9    4 ar 
     6    6    5 2  
     7    7    5 1  
     8   12    6 1  
     9   14    7 2  
    10    8   15 ar 
    11   16    9 ar 
    12   11   10 1  
    13   10   14 1  
    14   15   11 1  
    15   14   12 1  
    16   13   16 1  
    17   15   16 ar 
    18    3   17 1  
    19    4   18 1  
    20    5   19 1  
    21    6   20 1  
    22    7   21 1  
    23    8   22 1  
    24    9   23 1  
    25   10   24 1  
    26   10   25 1  
    27   11   26 1  
@<TRIPOS>SUBSTRUCTURE
     1 FUZ         1

