### 
### Created by X-TOOL on Mon Sep 10 21:13:07 2018
### 

@<TRIPOS>MOLECULE
3rhk_ligand
   45    50     1     0     0
SMALL
GAST_HUCK


@<TRIPOS>ATOM
      1 C1         -7.7550   12.1690   -3.6380 C.3       1 M97         0.0943
      2 N1        -10.8150   10.5170   -4.6180 N.pl3     1 M97        -0.2884
      3 O1         -7.8460   13.0860   -5.8700 O.2       1 M97        -0.3841
      4 C2         -6.4790   11.4310   -1.5800 C.2       1 M97        -0.0220
      5 N2         -5.8660   12.3950   -4.9580 N.am      1 M97        -0.1970
      6 O2         -4.3140   11.4900   -3.5640 O.2       1 M97        -0.3841
      7 C3         -6.8900   10.4140   -0.7330 C.2       1 M97         0.0325
      8 N3         -6.6600   10.8460    0.5200 N.pl3     1 M97        -0.2481
      9 C4         -9.0870   11.5240   -3.7760 C.2       1 M97        -0.0203
     10 C5         -9.5690   10.9590   -4.9370 C.2       1 M97         0.0197
     11 C6         -6.6350   11.2830   -3.0620 C.3       1 M97         0.0937
     12 C7         -7.1840   12.6030   -4.9540 C.2       1 M97         0.2164
     13 C8         -5.4630   11.7240   -3.8720 C.2       1 M97         0.2164
     14 C9        -11.0950   10.7980   -3.3180 C.ar      1 M97         0.0606
     15 C10       -10.0060   11.4580   -2.7620 C.ar      1 M97        -0.0189
     16 C11        -9.9760   11.8930   -1.4390 C.ar      1 M97        -0.0745
     17 C12       -11.0990   11.6590   -0.6470 C.ar      1 M97        -0.0792
     18 C13       -12.2050   11.0040   -1.1940 C.ar      1 M97        -0.0767
     19 C14       -12.2180   10.5740   -2.5230 C.ar      1 M97        -0.0443
     20 C15        -5.7960   12.8340    1.5510 C.ar      1 M97        -0.0123
     21 C16        -5.9720   12.2850    2.9540 C.3       1 M97        -0.0026
     22 C17        -6.5320   10.8540    3.0290 C.2       1 M97        -0.0573
     23 C18        -6.9360   10.1090    1.7560 C.2       1 M97         0.0376
     24 C19        -6.1590   12.0790    0.4590 C.ar      1 M97         0.0843
     25 C20        -6.0210   12.5150   -0.8440 C.ar      1 M97        -0.0227
     26 C21        -5.5080   13.7720   -1.1120 C.ar      1 M97        -0.0849
     27 C22        -5.1380   14.5580   -0.0130 C.ar      1 M97        -0.0903
     28 C23        -5.2680   14.1050    1.3100 C.ar      1 M97        -0.0757
     29 H1         -7.8877   13.0452   -2.9863 H         1 M97         0.0666
     30 H2        -11.4545   10.0382   -5.2681 H         1 M97         0.2218
     31 H3         -5.2527   12.7034   -5.6852 H         1 M97         0.2258
     32 H4         -7.3152    9.4547   -1.0243 H         1 M97         0.0794
     33 H5         -9.0633   10.8832   -5.8985 H         1 M97         0.0804
     34 H6         -6.8477   10.2234   -3.2667 H         1 M97         0.0666
     35 H7         -9.1052   12.3985   -1.0373 H         1 M97         0.0540
     36 H8        -11.1140   11.9834    0.3872 H         1 M97         0.0510
     37 H9        -13.0745   10.8250   -0.5719 H         1 M97         0.0530
     38 H10       -13.0889   10.0733   -2.9303 H         1 M97         0.0541
     39 H11        -6.6610   12.9494    3.4961 H         1 M97         0.0527
     40 H12        -4.9896   12.2929    3.4488 H         1 M97         0.0527
     41 H13        -6.6417   10.3674    3.9970 H         1 M97         0.0472
     42 H14        -7.3887    9.1186    1.7671 H         1 M97         0.0868
     43 H15        -5.3973   14.1328   -2.1282 H         1 M97         0.0449
     44 H16        -4.7377   15.5497   -0.1898 H         1 M97         0.0484
     45 H17        -4.9615   14.7357    2.1367 H         1 M97         0.0425
@<TRIPOS>BOND
     1    1    9 1  
     2   11    1 1  
     3    1   12 1  
     4   10    2 1  
     5   14    2 1  
     6   12    3 2  
     7    7    4 2  
     8    4   11 1  
     9    4   25 1  
    10    5   12 am 
    11   13    5 am 
    12   13    6 2  
    13    8    7 1  
    14    8   23 1  
    15   24    8 1  
    16    9   10 2  
    17    9   15 1  
    18   11   13 1  
    19   15   14 ar 
    20   14   19 ar 
    21   15   16 ar 
    22   16   17 ar 
    23   17   18 ar 
    24   19   18 ar 
    25   20   21 1  
    26   20   24 ar 
    27   20   28 ar 
    28   21   22 1  
    29   22   23 2  
    30   24   25 ar 
    31   25   26 ar 
    32   26   27 ar 
    33   27   28 ar 
    34    1   29 1  
    35    2   30 1  
    36    5   31 1  
    37    7   32 1  
    38   10   33 1  
    39   11   34 1  
    40   16   35 1  
    41   17   36 1  
    42   18   37 1  
    43   19   38 1  
    44   21   39 1  
    45   21   40 1  
    46   22   41 1  
    47   23   42 1  
    48   26   43 1  
    49   27   44 1  
    50   28   45 1  
@<TRIPOS>SUBSTRUCTURE
     1 M97         1

