### 
### Created by X-TOOL on Mon Sep 10 21:13:07 2018
### 

@<TRIPOS>MOLECULE
3rhx_ligand
   36    39     1     0     0
SMALL
GAST_HUCK


@<TRIPOS>ATOM
      1 C1         65.8830    2.2490    9.0100 C.ar      1 3RH         0.0532
      2 C2         66.8610    1.7570    9.8750 C.ar      1 3RH         0.0048
      3 N3         65.3680    1.4540    8.0620 N.ar      1 3RH        -0.2606
      4 C4         65.7880    0.1880    7.9590 C.ar      1 3RH         0.1782
      5 N5         65.1920   -0.5550    6.9960 N.pl3     1 3RH        -0.3071
      6 N6         66.7370   -0.3080    8.7910 N.ar      1 3RH        -0.2651
      7 C7         67.2890    0.4470    9.7380 C.ar      1 3RH         0.0138
      8 C8         67.4360    2.6620   10.9270 C.3       1 3RH         0.0086
      9 C9         66.4000    3.7130   11.4200 C.3       1 3RH         0.0380
     10 C10        67.1120    4.6270   12.3340 C.ar      1 3RH        -0.0260
     11 C11        65.6270    4.3470   10.3130 C.ar      1 3RH        -0.0134
     12 C12        65.3720    3.6350    9.1400 C.ar      1 3RH         0.0054
     13 C13        68.0520    5.5720   11.8550 C.ar      1 3RH        -0.0577
     14 C14        68.6980    6.3660   12.7920 C.ar      1 3RH        -0.0681
     15 C15        68.4370    6.2300   14.1720 C.ar      1 3RH        -0.0684
     16 C16        67.5070    5.2970   14.6810 C.ar      1 3RH        -0.0681
     17 C17        66.8650    4.4950   13.7230 C.ar      1 3RH        -0.0577
     18 C18        65.1200    5.6370   10.4100 C.ar      1 3RH        -0.0540
     19 C19        64.3810    6.2250    9.3730 C.ar      1 3RH        -0.0655
     20 C20        64.1300    5.4970    8.2110 C.ar      1 3RH        -0.0650
     21 C21        64.6240    4.1890    8.1060 C.ar      1 3RH        -0.0556
     22 H1         64.4758   -0.1320    6.3885 H         1 3RH         0.1804
     23 H2         65.4549   -1.5430    6.8712 H         1 3RH         0.1804
     24 H3         68.0574    0.0450   10.3884 H         1 3RH         0.0823
     25 H4         68.3044    3.1897   10.5058 H         1 3RH         0.0476
     26 H5         67.7579    2.0516   11.7836 H         1 3RH         0.0476
     27 H6         65.6554    3.1775   12.0273 H         1 3RH         0.0652
     28 H7         68.2591    5.6713   10.7956 H         1 3RH         0.0561
     29 H8         69.4170    7.1050   12.4573 H         1 3RH         0.0600
     30 H9         68.9710    6.8663   14.8684 H         1 3RH         0.0561
     31 H10        67.3020    5.2057   15.7415 H         1 3RH         0.0600
     32 H11        66.1548    3.7479   14.0585 H         1 3RH         0.0561
     33 H12        65.3011    6.2062   11.3146 H         1 3RH         0.0567
     34 H13        64.0079    7.2377    9.4744 H         1 3RH         0.0621
     35 H14        63.5607    5.9361    7.3997 H         1 3RH         0.0570
     36 H15        64.4220    3.6063    7.2145 H         1 3RH         0.0628
@<TRIPOS>BOND
     1    1    2 ar 
     2    1    3 ar 
     3    1   12 1  
     4    2    7 ar 
     5    2    8 1  
     6    3    4 ar 
     7    4    5 1  
     8    4    6 ar 
     9    6    7 ar 
    10    8    9 1  
    11    9   10 1  
    12    9   11 1  
    13   10   13 ar 
    14   10   17 ar 
    15   11   12 ar 
    16   11   18 ar 
    17   12   21 ar 
    18   13   14 ar 
    19   14   15 ar 
    20   15   16 ar 
    21   16   17 ar 
    22   18   19 ar 
    23   19   20 ar 
    24   20   21 ar 
    25    5   22 1  
    26    5   23 1  
    27    7   24 1  
    28    8   25 1  
    29    8   26 1  
    30    9   27 1  
    31   13   28 1  
    32   14   29 1  
    33   15   30 1  
    34   16   31 1  
    35   17   32 1  
    36   18   33 1  
    37   19   34 1  
    38   20   35 1  
    39   21   36 1  
@<TRIPOS>SUBSTRUCTURE
     1 3RH         1

