### 
### Created by X-TOOL on Mon Sep 10 21:13:07 2018
### 

@<TRIPOS>MOLECULE
3ri1_ligand
   36    39     1     0     0
SMALL
GAST_HUCK


@<TRIPOS>ATOM
      1 C1        -29.4740   16.4670  -23.5900 C.ar      1 3RH         0.0532
      2 C2        -28.3280   16.6210  -24.3640 C.ar      1 3RH         0.0048
      3 N3        -30.3770   15.5180  -23.9340 N.ar      1 3RH        -0.2606
      4 C4        -30.1570   14.7380  -25.0240 C.ar      1 3RH         0.1782
      5 N5        -31.0660   13.7930  -25.3610 N.pl3     1 3RH        -0.3071
      6 N6        -29.0420   14.8880  -25.7840 N.ar      1 3RH        -0.2651
      7 C7        -28.1220   15.8100  -25.4780 C.ar      1 3RH         0.0138
      8 C8        -27.3120   17.6750  -23.9880 C.3       1 3RH         0.0086
      9 C9        -27.2070   17.7690  -22.4630 C.3       1 3RH         0.0380
     10 C10       -26.1560   18.7700  -22.1400 C.ar      1 3RH        -0.0260
     11 C11       -28.5580   17.9970  -21.8460 C.ar      1 3RH        -0.0134
     12 C12       -29.6680   17.3490  -22.3940 C.ar      1 3RH         0.0054
     13 C13       -26.3060   20.1270  -22.4550 C.ar      1 3RH        -0.0577
     14 C14       -25.2930   21.0370  -22.1490 C.ar      1 3RH        -0.0681
     15 C15       -24.1240   20.5840  -21.5370 C.ar      1 3RH        -0.0684
     16 C16       -23.9680   19.2290  -21.2300 C.ar      1 3RH        -0.0681
     17 C17       -24.9810   18.3220  -21.5330 C.ar      1 3RH        -0.0577
     18 C18       -28.7350   18.8160  -20.7230 C.ar      1 3RH        -0.0540
     19 C19       -30.0070   18.9990  -20.1660 C.ar      1 3RH        -0.0655
     20 C20       -31.1150   18.3590  -20.7250 C.ar      1 3RH        -0.0650
     21 C21       -30.9390   17.5330  -21.8370 C.ar      1 3RH        -0.0556
     22 H         -31.9078   13.6713  -24.7980 H         1 3RH         0.1804
     23 H         -30.9091   13.2027  -26.1779 H         1 3RH         0.1804
     24 H         -27.2270   15.9246  -26.0895 H         1 3RH         0.0823
     25 H         -27.6256   18.6388  -24.3889 H         1 3RH         0.0476
     26 H         -26.3404   17.4043  -24.4013 H         1 3RH         0.0476
     27 H         -26.8864   16.8305  -22.0108 H         1 3RH         0.0652
     28 H         -27.2179   20.4735  -22.9412 H         1 3RH         0.0561
     29 H         -25.4143   22.0939  -22.3864 H         1 3RH         0.0600
     30 H         -23.3287   21.2897  -21.2971 H         1 3RH         0.0561
     31 H         -23.0518   18.8815  -20.7526 H         1 3RH         0.0600
     32 H         -24.8567   17.2652  -21.2968 H         1 3RH         0.0561
     33 H         -27.8743   19.3156  -20.2785 H         1 3RH         0.0567
     34 H         -30.1322   19.6420  -19.2948 H         1 3RH         0.0621
     35 H         -32.1074   18.5027  -20.2976 H         1 3RH         0.0570
     36 H         -31.7991   17.0269  -22.2753 H         1 3RH         0.0628
@<TRIPOS>BOND
     1    1    2 ar 
     2    1    3 ar 
     3    1   12 1  
     4    2    7 ar 
     5    2    8 1  
     6    3    4 ar 
     7    4    5 1  
     8    4    6 ar 
     9    6    7 ar 
    10    8    9 1  
    11    9   10 1  
    12    9   11 1  
    13   10   13 ar 
    14   10   17 ar 
    15   11   12 ar 
    16   11   18 ar 
    17   12   21 ar 
    18   13   14 ar 
    19   14   15 ar 
    20   15   16 ar 
    21   16   17 ar 
    22   18   19 ar 
    23   19   20 ar 
    24   20   21 ar 
    25    5   22 1  
    26    5   23 1  
    27    7   24 1  
    28    8   25 1  
    29    8   26 1  
    30    9   27 1  
    31   13   28 1  
    32   14   29 1  
    33   15   30 1  
    34   16   31 1  
    35   17   32 1  
    36   18   33 1  
    37   19   34 1  
    38   20   35 1  
    39   21   36 1  
@<TRIPOS>SUBSTRUCTURE
     1 3RH         1

