### 
### Created by X-TOOL on Mon Sep 10 21:13:09 2018
### 

@<TRIPOS>MOLECULE
3rik_ligand
   32    32     1     0     0
SMALL
GAST_HUCK


@<TRIPOS>ATOM
      1 OAA        10.0930   -5.8000   37.6670 O.3       1 3RI        -0.3898
      2 OAB         9.7280  -11.8710   38.3290 O.3       1 3RI        -0.3838
      3 OAC        13.1520   -8.4060   41.2000 O.3       1 3RI        -0.3838
      4 OAD        11.8580  -12.7500   39.5230 O.3       1 3RI        -0.3864
      5 OAE        13.3330  -11.4830   41.3050 O.3       1 3RI        -0.3864
      6 CAF         9.2950   -6.9430   38.0300 C.3       1 3RI         0.0841
      7 CAG         9.4740   -7.3710   39.5080 C.3       1 3RI        -0.0080
      8 CAH         9.6280   -9.7830   39.2170 C.3       1 3RI        -0.0025
      9 CAI        10.7700   -8.7080   41.0580 C.3       1 3RI        -0.0025
     10 CAJ        10.5970  -10.8560   38.7680 C.3       1 3RI         0.1230
     11 CAK        12.1300   -9.3910   41.3230 C.3       1 3RI         0.1230
     12 CAL        11.3570  -11.4830   39.9440 C.3       1 3RI         0.1144
     13 CAM        12.5210  -10.6330   40.4870 C.3       1 3RI         0.1144
     14 NAN        10.3560   -8.5680   39.6450 N.4       1 3RI         0.2406
     15 H1         11.0120   -6.0025   37.7975 H         1 3RI         0.2096
     16 H2         10.2376  -12.6102   38.0184 H         1 3RI         0.2101
     17 H3         13.1342   -8.0405   40.3232 H         1 3RI         0.2101
     18 H4         12.3329  -13.1553   40.2390 H         1 3RI         0.2100
     19 H5         13.5839  -12.2530   40.8083 H         1 3RI         0.2100
     20 H6          9.5805   -7.7871   37.3851 H         1 3RI         0.0610
     21 H7          8.2360   -6.6964   37.8638 H         1 3RI         0.0610
     22 H8          8.4864   -7.6084   39.9303 H         1 3RI         0.0837
     23 H9          9.9208   -6.5358   40.0672 H         1 3RI         0.0837
     24 H10         9.0330  -10.1635   40.0603 H         1 3RI         0.0841
     25 H11         8.9591   -9.5279   38.3819 H         1 3RI         0.0841
     26 H12        10.8146   -7.6986   41.4928 H         1 3RI         0.0841
     27 H13         9.9967   -9.2958   41.5742 H         1 3RI         0.0841
     28 H14        11.2838  -10.4934   37.9891 H         1 3RI         0.0674
     29 H15        12.1038   -9.7277   42.3699 H         1 3RI         0.0674
     30 H16        10.6422  -11.6351   40.7661 H         1 3RI         0.0648
     31 H17        13.1102  -10.2833   39.6265 H         1 3RI         0.0648
     32 H18        11.1730   -8.4489   39.0668 H         1 3RI         0.2036
@<TRIPOS>BOND
     1    6    1 1  
     2   10    2 1  
     3   11    3 1  
     4   12    4 1  
     5   13    5 1  
     6    7    6 1  
     7   14    7 1  
     8    8   10 1  
     9   14    8 1  
    10   11    9 1  
    11    9   14 1  
    12   10   12 1  
    13   11   13 1  
    14   12   13 1  
    15    1   15 1  
    16    2   16 1  
    17    3   17 1  
    18    4   18 1  
    19    5   19 1  
    20    6   20 1  
    21    6   21 1  
    22    7   22 1  
    23    7   23 1  
    24    8   24 1  
    25    8   25 1  
    26    9   26 1  
    27    9   27 1  
    28   10   28 1  
    29   11   29 1  
    30   12   30 1  
    31   13   31 1  
    32   14   32 1  
@<TRIPOS>SUBSTRUCTURE
     1 3RI         1

