### 
### Created by X-TOOL on Mon Sep 10 21:13:09 2018
### 

@<TRIPOS>MOLECULE
3ril_ligand
   25    25     1     0     0
SMALL
GAST_HUCK


@<TRIPOS>ATOM
      1 OAA       -14.8550   -4.8250   38.8600 O.3       1 3RK        -0.3838
      2 OAB       -12.6150   -8.2940   42.8100 O.3       1 3RK        -0.3838
      3 OAC       -15.8630   -7.7900   39.3770 O.3       1 3RK        -0.3864
      4 OAD       -14.7420   -9.0830   41.4580 O.3       1 3RK        -0.3864
      5 CAE       -12.6680   -5.8880   39.3610 C.3       1 3RK        -0.0044
      6 CAF       -12.0620   -6.3760   41.6890 C.3       1 3RK        -0.0044
      7 NAG       -12.4010   -5.3830   40.6960 N.4       1 3RK         0.2308
      8 CAH       -14.1760   -6.0740   39.1200 C.3       1 3RK         0.1229
      9 CAI       -13.2480   -7.2450   42.1050 C.3       1 3RK         0.1229
     10 CAJ       -14.9240   -6.9840   40.1310 C.3       1 3RK         0.1144
     11 CAK       -14.0130   -7.9330   40.9550 C.3       1 3RK         0.1144
     12 H1        -15.7794   -4.9919   38.7183 H         1 3RK         0.2101
     13 H2        -13.2714   -8.9064   43.1208 H         1 3RK         0.2101
     14 H3        -16.3378   -8.3596   39.9708 H         1 3RK         0.2100
     15 H4        -15.2087   -9.4984   40.7424 H         1 3RK         0.2100
     16 H5        -12.1641   -6.8581   39.2383 H         1 3RK         0.0840
     17 H6        -12.2735   -5.1739   38.6231 H         1 3RK         0.0840
     18 H7        -11.6773   -5.8603   42.5812 H         1 3RK         0.0840
     19 H8        -11.2787   -7.0289   41.2765 H         1 3RK         0.0840
     20 H9        -13.2254   -4.8975   41.0134 H         1 3RK         0.2015
     21 H10       -11.6323   -4.7341   40.6329 H         1 3RK         0.2015
     22 H11       -14.2320   -6.6266   38.1706 H         1 3RK         0.0674
     23 H12       -13.9470   -6.6711   42.7311 H         1 3RK         0.0674
     24 H13       -15.4721   -6.3404   40.8348 H         1 3RK         0.0648
     25 H14       -13.2533   -8.3128   40.2561 H         1 3RK         0.0648
@<TRIPOS>BOND
     1    8    1 1  
     2    9    2 1  
     3   10    3 1  
     4   11    4 1  
     5    7    5 1  
     6    5    8 1  
     7    6    7 1  
     8    9    6 1  
     9    8   10 1  
    10    9   11 1  
    11   10   11 1  
    12    1   12 1  
    13    2   13 1  
    14    3   14 1  
    15    4   15 1  
    16    5   16 1  
    17    5   17 1  
    18    6   18 1  
    19    6   19 1  
    20    7   20 1  
    21    7   21 1  
    22    8   22 1  
    23    9   23 1  
    24   10   24 1  
    25   11   25 1  
@<TRIPOS>SUBSTRUCTURE
     1 3RK         1

