### 
### Created by X-TOOL on Mon Sep 10 21:13:12 2018
### 

@<TRIPOS>MOLECULE
3rin_ligand
   51    55     1     0     0
SMALL
GAST_HUCK


@<TRIPOS>ATOM
      1 CAA         6.7160   30.3910   30.9070 C.ar      1 I2O        -0.0475
      2 CAB         5.4810   31.0160   31.2310 C.ar      1 I2O        -0.0236
      3 CAC         4.3200   30.7030   30.4910 C.ar      1 I2O         0.0066
      4 CAD         4.4290   29.7660   29.4330 C.ar      1 I2O        -0.0316
      5 CAE         5.6370   29.1050   29.1050 C.ar      1 I2O         0.0496
      6 CAF         6.7980   29.4660   29.8580 C.ar      1 I2O        -0.0430
      7 CAG         5.4150   32.0470   32.3830 C.3       1 I2O        -0.0245
      8 CAH         5.6950   28.1280   27.8940 C.2       1 I2O         0.2019
      9 NAI         6.6040   27.1490   27.8530 N.am      1 I2O        -0.2839
     10 CAJ         6.6480   26.3060   26.6740 C.3       1 I2O         0.0416
     11 CAK         7.0640   27.0440   25.3930 C.3       1 I2O        -0.0279
     12 CAL         8.0390   26.0590   26.0350 C.3       1 I2O        -0.0279
     13 OAM         4.9850   28.3140   26.9170 O.2       1 I2O        -0.3874
     14 CAN         3.0320   31.2990   30.7310 C.ar      1 I2O        -0.0052
     15 CAO         2.8580   32.6150   30.3220 C.ar      1 I2O        -0.0061
     16 CAP         1.6660   33.3110   30.4610 C.ar      1 I2O         0.0898
     17 CAQ         0.5640   32.6620   31.0120 C.ar      1 I2O        -0.0332
     18 CAR         0.6840   31.3000   31.4270 C.ar      1 I2O        -0.0566
     19 CAS         1.9180   30.6260   31.2740 C.ar      1 I2O        -0.0424
     20 NAT         1.3940   34.5770   30.1080 N.am      1 I2O        -0.2233
     21 CAU         0.1070   34.8740   30.3620 C.2       1 I2O         0.2011
     22 CAV        -0.6050   33.7050   30.9930 C.3       1 I2O         0.0275
     23 OAW        -0.4430   35.9340   30.0910 O.2       1 I2O        -0.3256
     24 CAX        -1.2500   34.0470   32.3570 C.3       1 I2O        -0.0788
     25 CAY        -2.6690   34.4630   31.9370 C.3       1 I2O        -0.0653
     26 CAZ        -3.0390   33.3960   30.9280 C.3       1 I2O        -0.0653
     27 CBA        -1.7830   33.2770   30.0470 C.3       1 I2O        -0.0788
     28 H           7.6098   30.6343   31.4815 H         1 I2O         0.0584
     29 H           3.5396   29.5437   28.8434 H         1 I2O         0.0706
     30 H           7.7596   29.0154   29.6125 H         1 I2O         0.0697
     31 H           5.7221   31.5701   33.3138 H         1 I2O         0.0420
     32 H           6.0828   32.8797   32.1623 H         1 I2O         0.0420
     33 H           4.3937   32.4149   32.4815 H         1 I2O         0.0420
     34 H           7.2486   26.9991   28.6292 H         1 I2O         0.1846
     35 H           5.8297   25.6568   26.9855 H         1 I2O         0.0555
     36 H           7.0760   28.0658   25.0136 H         1 I2O         0.0288
     37 H           6.6515   27.2489   24.4051 H         1 I2O         0.0288
     38 H           8.6666   25.2182   25.7396 H         1 I2O         0.0288
     39 H           9.0850   26.0233   26.3393 H         1 I2O         0.0288
     40 H           3.7045   33.1291   29.8668 H         1 I2O         0.0571
     41 H          -0.1721   30.7825   31.8598 H         1 I2O         0.0763
     42 H           2.0083   29.5828   31.5768 H         1 I2O         0.0594
     43 H           2.0700   35.2246   29.7030 H         1 I2O         0.2390
     44 H          -0.7159   34.8214   32.9076 H         1 I2O         0.0117
     45 H          -1.2324   33.2186   33.0652 H         1 I2O         0.0117
     46 H          -2.7142   35.4720   31.5272 H         1 I2O         0.0253
     47 H          -3.3636   34.5169   32.7753 H         1 I2O         0.0253
     48 H          -3.9274   33.6572   30.3530 H         1 I2O         0.0253
     49 H          -3.3066   32.4511   31.4009 H         1 I2O         0.0253
     50 H          -1.6498   32.2684   29.6557 H         1 I2O         0.0117
     51 H          -1.8442   33.9042   29.1576 H         1 I2O         0.0117
@<TRIPOS>BOND
     1    1    2 ar 
     2    1    6 ar 
     3    2    3 ar 
     4    2    7 1  
     5    3    4 ar 
     6    3   14 1  
     7    4    5 ar 
     8    5    6 ar 
     9    5    8 1  
    10    8    9 am 
    11    8   13 2  
    12    9   10 1  
    13   10   11 1  
    14   10   12 1  
    15   11   12 1  
    16   14   15 ar 
    17   14   19 ar 
    18   15   16 ar 
    19   16   17 ar 
    20   16   20 1  
    21   17   18 ar 
    22   17   22 1  
    23   18   19 ar 
    24   20   21 am 
    25   21   22 1  
    26   21   23 2  
    27   22   24 1  
    28   22   27 1  
    29   24   25 1  
    30   25   26 1  
    31   26   27 1  
    32    1   28 1  
    33    4   29 1  
    34    6   30 1  
    35    7   31 1  
    36    7   32 1  
    37    7   33 1  
    38    9   34 1  
    39   10   35 1  
    40   11   36 1  
    41   11   37 1  
    42   12   38 1  
    43   12   39 1  
    44   15   40 1  
    45   18   41 1  
    46   19   42 1  
    47   20   43 1  
    48   24   44 1  
    49   24   45 1  
    50   25   46 1  
    51   25   47 1  
    52   26   48 1  
    53   26   49 1  
    54   27   50 1  
    55   27   51 1  
@<TRIPOS>SUBSTRUCTURE
     1 I2O         1

