### 
### Created by X-TOOL on Mon Sep 10 21:13:11 2018
### 

@<TRIPOS>MOLECULE
3rjc_ligand
   34    36     1     0     0
SMALL
GAST_HUCK


@<TRIPOS>ATOM
      1 F         114.0100   49.0010  -44.7830 F         1 06Z        -0.1865
      2 N1        118.3270   46.1870  -49.8130 N.2       1 06Z        -0.2715
      3 C2        119.4320   45.4120  -50.0910 C.2       1 06Z         0.0846
      4 N3        119.9130   45.3890  -51.3240 N.pl3     1 06Z        -0.3317
      5 C4        119.9790   44.6580  -49.0250 C.2       1 06Z         0.0923
      6 C5        121.1320   43.7530  -49.1220 C.2       1 06Z         0.1300
      7 C6        121.6050   42.9450  -47.9310 C.ar      1 06Z         0.0233
      8 C7        120.6640   42.1670  -47.1220 C.ar      1 06Z        -0.0450
      9 C8        121.1120   41.3910  -46.0040 C.ar      1 06Z        -0.0566
     10 C9        122.5130   41.3730  -45.6730 C.ar      1 06Z        -0.0578
     11 C10       123.4600   42.1330  -46.4620 C.ar      1 06Z        -0.0566
     12 C11       123.0100   42.9180  -47.5900 C.ar      1 06Z        -0.0450
     13 O12       121.7370   43.6010  -50.2120 O.2       1 06Z        -0.4023
     14 S13       119.0150   45.0010  -47.6040 S.3       1 06Z         0.0099
     15 C14       117.9920   46.0660  -48.5620 C.2       1 06Z         0.2036
     16 N15       116.8920   46.7440  -48.0830 N.pl3     1 06Z        -0.2335
     17 C16       116.2540   46.8220  -46.8120 C.ar      1 06Z         0.0680
     18 C17       115.4060   47.9440  -46.4370 C.ar      1 06Z        -0.0042
     19 C18       114.7900   47.9490  -45.1120 C.ar      1 06Z         0.1234
     20 C19       114.9870   46.8850  -44.1570 C.ar      1 06Z        -0.0395
     21 C20       115.8310   45.7620  -44.5380 C.ar      1 06Z        -0.0728
     22 C21       116.4580   45.7260  -45.8500 C.ar      1 06Z        -0.0413
     23 H1        120.7384   44.8136  -51.5441 H         1 06Z         0.1746
     24 H2        119.4618   45.9465  -52.0633 H         1 06Z         0.1746
     25 H3        119.6097   42.1785  -47.3736 H         1 06Z         0.0665
     26 H4        120.4028   40.8228  -45.4130 H         1 06Z         0.0628
     27 H5        122.8606   40.7878  -44.8293 H         1 06Z         0.0651
     28 H6        124.5130   42.1133  -46.2054 H         1 06Z         0.0628
     29 H7        123.7234   43.4842  -48.1779 H         1 06Z         0.0665
     30 H8        116.4303   47.3203  -48.8011 H         1 06Z         0.2242
     31 H9        115.2345   48.7612  -47.1283 H         1 06Z         0.0524
     32 H10       114.5181   46.9213  -43.1803 H         1 06Z         0.0510
     33 H11       115.9931   44.9483  -43.8404 H         1 06Z         0.0579
     34 H12       117.0824   44.8829  -46.1226 H         1 06Z         0.0506
@<TRIPOS>BOND
     1   19    1 1  
     2    2    3 1  
     3   15    2 2  
     4    3    4 1  
     5    5    3 2  
     6    5    6 1  
     7   14    5 1  
     8    6    7 1  
     9    6   13 2  
    10    7    8 ar 
    11    7   12 ar 
    12    8    9 ar 
    13    9   10 ar 
    14   11   10 ar 
    15   12   11 ar 
    16   15   14 1  
    17   16   15 1  
    18   17   16 1  
    19   18   17 ar 
    20   17   22 ar 
    21   18   19 ar 
    22   19   20 ar 
    23   20   21 ar 
    24   21   22 ar 
    25    4   23 1  
    26    4   24 1  
    27    8   25 1  
    28    9   26 1  
    29   10   27 1  
    30   11   28 1  
    31   12   29 1  
    32   16   30 1  
    33   18   31 1  
    34   20   32 1  
    35   21   33 1  
    36   22   34 1  
@<TRIPOS>SUBSTRUCTURE
     1 06Z         1

