### 
### Created by X-TOOL on Mon Sep 10 21:13:06 2018
### 

@<TRIPOS>MOLECULE
3rjm_ligand
   87    87     1     0     0
SMALL
GAST_HUCK


@<TRIPOS>ATOM
      1 C          -3.2040  -19.1050   31.5750 C.2       1 ACE         0.1751
      2 O          -4.2420  -19.5790   32.0350 O.2       1 ACE        -0.3972
      3 CH3        -2.5280  -19.7670   30.4130 C.3       1 ACE         0.0258
      4 N          -2.8100  -17.8550   31.8310 N.am      1 VAL        -0.2656
      5 CA         -3.3330  -17.0660   32.9570 C.3       1 VAL         0.1332
      6 C          -3.8520  -15.6840   32.4880 C.2       1 VAL         0.2042
      7 O          -3.4610  -15.1860   31.4180 O.2       1 VAL        -0.3944
      8 CB         -2.2800  -16.9080   34.1060 C.3       1 VAL        -0.0063
      9 CG1        -1.5630  -18.2150   34.3410 C.3       1 VAL        -0.0584
     10 CG2        -1.2830  -15.7980   33.8100 C.3       1 VAL        -0.0584
     11 N          -4.7380  -15.0790   33.2830 N.am      1 ASP        -0.2622
     12 CA         -5.3970  -13.8470   32.8850 C.3       1 ASP         0.1423
     13 C          -4.7120  -12.6480   33.5680 C.2       1 ASP         0.2056
     14 O          -4.4510  -12.6600   34.7750 O.2       1 ASP        -0.3943
     15 CB         -6.9020  -13.9310   33.1710 C.3       1 ASP         0.0406
     16 CG         -7.6300  -14.9260   32.2390 C.2       1 ASP         0.0393
     17 OD1        -7.3610  -14.9060   31.0240 O.co2     1 ASP        -0.5688
     18 OD2        -8.4870  -15.7200   32.6980 O.co2     1 ASP        -0.5688
     19 N          -4.3910  -11.6310   32.7670 N.am      1 VAL        -0.2634
     20 CA         -3.6930  -10.4420   33.2410 C.3       1 VAL         0.1334
     21 C          -4.4550   -9.1870   32.7740 C.2       1 VAL         0.2067
     22 O          -5.1810   -9.2260   31.7720 O.2       1 VAL        -0.3942
     23 CB         -2.1920  -10.3960   32.7510 C.3       1 VAL        -0.0062
     24 CG1        -1.3460  -11.5110   33.3970 C.3       1 VAL        -0.0584
     25 CG2        -2.0910  -10.4670   31.2320 C.3       1 VAL        -0.0584
     26 C          -4.4430   -6.0960   31.9890 C.2       1 3PX         0.2068
     27 N          -4.3140   -8.0740   33.5160 N.am      1 3PX        -0.2472
     28 O          -3.2380   -6.0910   31.7290 O.2       1 3PX        -0.3943
     29 CA         -4.9500   -6.7830   33.2250 C.3       1 3PX         0.1597
     30 CB         -4.6760   -5.8970   34.4360 C.3       1 3PX         0.1010
     31 CD         -3.6590   -7.9770   34.8430 C.3       1 3PX         0.0394
     32 CG         -3.4650   -6.4970   35.1070 C.3       1 3PX        -0.0015
     33 OB1        -5.8150   -5.9880   35.2870 O.3       1 3PX        -0.3691
     34 CB2        -5.7850   -5.1390   36.4430 C.3       1 3PX         0.0537
     35 CB3        -5.6900   -3.6660   36.0390 C.3       1 3PX        -0.0389
     36 CB4        -7.0240   -5.4150   37.2950 C.3       1 3PX        -0.0389
     37 C          -5.1440   -3.1540   30.3510 C.2       1 ASJ         0.1262
     38 N          -5.3650   -5.4820   31.2450 N.am      1 ASJ        -0.2634
     39 O          -4.3610   -2.3700   29.8430 O.2       1 ASJ        -0.3723
     40 CA         -5.0450   -4.6510   30.0690 C.3       1 ASJ         0.1241
     41 CB         -5.9940   -4.9910   28.9040 C.3       1 ASJ         0.0393
     42 CG         -5.2550   -5.3580   27.6290 C.2       1 ASJ         0.0393
     43 OD1        -4.0250   -5.5540   27.6850 O.co2     1 ASJ        -0.5688
     44 OD2        -5.9060   -5.4610   26.5670 O.co2     1 ASJ        -0.5688
     45 H          -2.2545  -20.7862   30.6859 H         1 ACE         0.0467
     46 H          -3.2086  -19.7876   29.5619 H         1 ACE         0.0467
     47 H          -1.6309  -19.2070   30.1490 H         1 ACE         0.0467
     48 H          -2.1152  -17.4281   31.2183 H         1 VAL         0.1883
     49 H          -4.1769  -17.6224   33.3648 H         1 VAL         0.0802
     50 H          -2.8178  -16.6297   35.0123 H         1 VAL         0.0343
     51 H          -0.9919  -18.4797   33.4512 H         1 VAL         0.0234
     52 H          -0.8875  -18.1098   35.1899 H         1 VAL         0.0234
     53 H          -2.2936  -18.9961   34.5510 H         1 VAL         0.0234
     54 H          -0.6064  -15.6837   34.6569 H         1 VAL         0.0234
     55 H          -0.7108  -16.0536   32.9182 H         1 VAL         0.0234
     56 H          -1.8198  -14.8641   33.6435 H         1 VAL         0.0234
     57 H          -4.9570  -15.4911   34.1900 H         1 ASP         0.1884
     58 H          -5.2986  -13.6988   31.8096 H         1 ASP         0.0819
     59 H          -7.3303  -12.9423   33.0060 H         1 ASP         0.0478
     60 H          -7.0295  -14.2776   34.1965 H         1 ASP         0.0478
     61 H          -4.6447  -11.6875   31.7807 H         1 VAL         0.1883
     62 H          -3.6662  -10.4747   34.3302 H         1 VAL         0.0803
     63 H          -1.7892   -9.4355   33.0725 H         1 VAL         0.0343
     64 H          -1.3573  -11.3924   34.4805 H         1 VAL         0.0234
     65 H          -1.7640  -12.4822   33.1322 H         1 VAL         0.0234
     66 H          -0.3206  -11.4441   33.0336 H         1 VAL         0.0234
     67 H          -2.5377  -11.3978   30.8826 H         1 VAL         0.0234
     68 H          -2.6210   -9.6213   30.7940 H         1 VAL         0.0234
     69 H          -1.0423  -10.4325   30.9369 H         1 VAL         0.0234
     70 H          -6.0088   -6.9601   33.0363 H         1 3PX         0.0829
     71 H          -4.4988   -4.8507   34.1870 H         1 3PX         0.0646
     72 H          -2.7069   -8.5075   34.8527 H         1 3PX         0.0525
     73 H          -4.2692   -8.4394   35.6188 H         1 3PX         0.0525
     74 H          -3.3939   -6.2534   36.1670 H         1 3PX         0.0312
     75 H          -2.5218   -6.1098   34.7215 H         1 3PX         0.0312
     76 H          -4.8965   -5.3587   37.0349 H         1 3PX         0.0590
     77 H          -4.7781   -3.5065   35.4635 H         1 3PX         0.0254
     78 H          -6.5554   -3.4006   35.4318 H         1 3PX         0.0254
     79 H          -5.6690   -3.0455   36.9349 H         1 3PX         0.0254
     80 H          -7.9196   -5.2081   36.7092 H         1 3PX         0.0254
     81 H          -7.0246   -6.4599   37.6053 H         1 3PX         0.0254
     82 H          -7.0081   -4.7731   38.1758 H         1 3PX         0.0254
     83 H1         -5.9236   -2.7820   31.0141 H         1 ASJ         0.1375
     84 H          -6.3453   -5.5935   31.5038 H         1 ASJ         0.1886
     85 H          -4.0110   -4.8774   29.8090 H         1 ASJ         0.0809
     86 H          -6.5974   -4.1072   28.6969 H         1 ASJ         0.0479
     87 H          -6.5924   -5.8519   29.2020 H         1 ASJ         0.0479
@<TRIPOS>BOND
     1    1    2 2  
     2    1    3 1  
     3    4    1 am 
     4    5    4 1  
     5    6    5 1  
     6    5    8 1  
     7    6    7 2  
     8   11    6 am 
     9    8    9 1  
    10    8   10 1  
    11   12   11 1  
    12   13   12 1  
    13   12   15 1  
    14   13   14 2  
    15   19   13 am 
    16   15   16 1  
    17   16   17 ar 
    18   16   18 ar 
    19   20   19 1  
    20   21   20 1  
    21   20   23 1  
    22   21   22 2  
    23   27   21 am 
    24   23   24 1  
    25   23   25 1  
    26   26   28 2  
    27   26   29 1  
    28   38   26 am 
    29   29   27 1  
    30   27   31 1  
    31   29   30 1  
    32   30   32 1  
    33   30   33 1  
    34   32   31 1  
    35   33   34 1  
    36   34   35 1  
    37   34   36 1  
    38   37   39 2  
    39   40   37 1  
    40   38   40 1  
    41   40   41 1  
    42   41   42 1  
    43   42   43 ar 
    44   42   44 ar 
    45    3   45 1  
    46    3   46 1  
    47    3   47 1  
    48    4   48 1  
    49    5   49 1  
    50    8   50 1  
    51    9   51 1  
    52    9   52 1  
    53    9   53 1  
    54   10   54 1  
    55   10   55 1  
    56   10   56 1  
    57   11   57 1  
    58   12   58 1  
    59   15   59 1  
    60   15   60 1  
    61   19   61 1  
    62   20   62 1  
    63   23   63 1  
    64   24   64 1  
    65   24   65 1  
    66   24   66 1  
    67   25   67 1  
    68   25   68 1  
    69   25   69 1  
    70   29   70 1  
    71   30   71 1  
    72   31   72 1  
    73   31   73 1  
    74   32   74 1  
    75   32   75 1  
    76   34   76 1  
    77   35   77 1  
    78   35   78 1  
    79   35   79 1  
    80   36   80 1  
    81   36   81 1  
    82   36   82 1  
    83   37   83 1  
    84   38   84 1  
    85   40   85 1  
    86   41   86 1  
    87   41   87 1  
@<TRIPOS>SUBSTRUCTURE
     1 ACE         1

