### 
### Created by X-TOOL on Mon Sep 10 21:13:10 2018
### 

@<TRIPOS>MOLECULE
3rk5_ligand
   37    39     1     0     0
SMALL
GAST_HUCK


@<TRIPOS>ATOM
      1 C1         89.6130  118.4450  -47.8730 C.ar      1 07Z         0.0692
      2 N2         90.2480  118.5180  -49.0850 N.pl3     1 07Z        -0.2401
      3 C3         91.3690  117.8580  -49.5200 C.2       1 07Z         0.1889
      4 N4         91.7760  118.0740  -50.7720 N.2       1 07Z        -0.3016
      5 C5         92.8530  117.3570  -51.0730 C.2       1 07Z         0.0548
      6 C6         93.3040  116.5530  -50.0320 C.2       1 07Z         0.0600
      7 S7         92.3430  116.7290  -48.6230 S.3       1 07Z         0.0027
      8 N8         93.3860  117.4180  -52.2380 N.pl3     1 07Z        -0.3517
      9 C9         94.4760  115.6300  -50.1010 C.3       1 07Z         0.1216
     10 C10        94.8990  114.7500  -48.9710 C.ar      1 07Z         0.0187
     11 C11        93.9340  113.9810  -48.2180 C.ar      1 07Z        -0.0372
     12 C12        94.3430  113.1320  -47.1500 C.ar      1 07Z        -0.0406
     13 C13        95.7150  113.0480  -46.8380 C.ar      1 07Z         0.0038
     14 N14        96.6290  113.7830  -47.5690 N.ar      1 07Z        -0.3046
     15 C15        96.2680  114.6230  -48.6160 C.ar      1 07Z         0.0158
     16 O16        95.1740  115.5730  -51.2560 O.3       1 07Z        -0.3714
     17 C17        88.7260  119.5170  -47.5240 C.ar      1 07Z        -0.0345
     18 C18        88.0160  119.5020  -46.3060 C.ar      1 07Z        -0.0574
     19 C19        88.1620  118.4130  -45.3840 C.ar      1 07Z        -0.0019
     20 C20        89.0480  117.3350  -45.7170 C.ar      1 07Z        -0.0574
     21 C21        89.7610  117.3470  -46.9420 C.ar      1 07Z        -0.0345
     22 C22        87.3920  118.4270  -44.1090 C.2       1 07Z         0.0551
     23 O23        86.5640  119.4730  -43.8570 O.co2     1 07Z        -0.5639
     24 O24        87.4930  117.3880  -43.1600 O.co2     1 07Z        -0.5639
     25 H1         89.8223  119.1611  -49.7677 H         1 07Z         0.2204
     26 H2         94.2210  116.8544  -52.4525 H         1 07Z         0.1624
     27 H3         92.9790  118.0306  -52.9591 H         1 07Z         0.1624
     28 H4         95.1290  116.4298  -49.7218 H         1 07Z         0.0867
     29 H5         92.8821  114.0516  -48.4702 H         1 07Z         0.0678
     30 H6         93.6129  112.5612  -46.5877 H         1 07Z         0.0692
     31 H7         96.0515  112.4101  -46.0288 H         1 07Z         0.0764
     32 H8         97.0261  115.1771  -49.1576 H         1 07Z         0.0766
     33 H9         95.1339  114.6907  -51.6057 H         1 07Z         0.2154
     34 H10        88.5999  120.3500  -48.2061 H         1 07Z         0.0543
     35 H11        87.3517  120.3235  -46.0634 H         1 07Z         0.0621
     36 H12        89.1728  116.5072  -45.0284 H         1 07Z         0.0621
     37 H13        90.4245  116.5246  -47.1841 H         1 07Z         0.0543
@<TRIPOS>BOND
     1    1    2 1  
     2    1   17 ar 
     3    1   21 ar 
     4    2    3 1  
     5    3    4 2  
     6    3    7 1  
     7    4    5 1  
     8    5    6 2  
     9    5    8 1  
    10    6    7 1  
    11    6    9 1  
    12    9   10 1  
    13    9   16 1  
    14   10   11 ar 
    15   10   15 ar 
    16   11   12 ar 
    17   12   13 ar 
    18   13   14 ar 
    19   14   15 ar 
    20   17   18 ar 
    21   18   19 ar 
    22   19   20 ar 
    23   19   22 1  
    24   20   21 ar 
    25   22   23 ar 
    26   22   24 ar 
    27    2   25 1  
    28    8   26 1  
    29    8   27 1  
    30    9   28 1  
    31   11   29 1  
    32   12   30 1  
    33   13   31 1  
    34   15   32 1  
    35   16   33 1  
    36   17   34 1  
    37   18   35 1  
    38   20   36 1  
    39   21   37 1  
@<TRIPOS>SUBSTRUCTURE
     1 07Z         1

