### 
### Created by X-TOOL on Mon Sep 10 21:13:10 2018
### 

@<TRIPOS>MOLECULE
3rk7_ligand
   39    41     1     0     0
SMALL
GAST_HUCK


@<TRIPOS>ATOM
      1 C1         90.2690  118.4390  -47.6000 C.ar      1 08Z         0.0712
      2 N2         90.8270  118.5070  -48.8550 N.pl3     1 08Z        -0.2390
      3 C3         91.9270  117.8440  -49.3480 C.2       1 08Z         0.1894
      4 N4         92.2760  118.0470  -50.6280 N.2       1 08Z        -0.3013
      5 C5         93.3480  117.3120  -50.9620 C.2       1 08Z         0.0550
      6 C6         93.8360  116.5240  -49.9360 C.2       1 08Z         0.0602
      7 S7         92.9550  116.7230  -48.4980 S.3       1 08Z         0.0029
      8 N8         93.8390  117.3380  -52.1350 N.pl3     1 08Z        -0.3516
      9 C9         94.9960  115.5970  -50.0580 C.3       1 08Z         0.1217
     10 C10        95.4480  114.7020  -48.9530 C.ar      1 08Z         0.0187
     11 C11        94.4710  113.9440  -48.1900 C.ar      1 08Z        -0.0372
     12 C12        94.8730  113.0720  -47.1520 C.ar      1 08Z        -0.0406
     13 C13        96.2550  112.9450  -46.8720 C.ar      1 08Z         0.0038
     14 N14        97.1790  113.6680  -47.6110 N.ar      1 08Z        -0.3046
     15 C15        96.8220  114.5360  -48.6390 C.ar      1 08Z         0.0158
     16 O16        95.6430  115.5510  -51.2240 O.3       1 08Z        -0.3714
     17 C17        89.5510  119.5920  -47.1060 C.ar      1 08Z        -0.0323
     18 C18        88.9390  119.5700  -45.8230 C.ar      1 08Z        -0.0517
     19 C19        89.0190  118.3950  -44.9930 C.ar      1 08Z         0.0373
     20 C20        89.7270  117.2500  -45.4780 C.ar      1 08Z        -0.0517
     21 C21        90.3410  117.2690  -46.7580 C.ar      1 08Z        -0.0323
     22 C22        88.3620  118.3870  -43.6490 C.2       1 08Z         0.1936
     23 O23        87.7050  119.4950  -43.2390 O.2       1 08Z        -0.3905
     24 N24        88.4010  117.3480  -42.8650 N.am      1 08Z        -0.3019
     25 H1         90.3570  119.1413  -49.5166 H         1 08Z         0.2211
     26 H2         94.6627  116.7625  -52.3614 H         1 08Z         0.1624
     27 H3         93.4129  117.9346  -52.8585 H         1 08Z         0.1624
     28 H4         95.6686  116.3872  -49.6929 H         1 08Z         0.0867
     29 H5         93.4169  114.0487  -48.4202 H         1 08Z         0.0678
     30 H6         94.1390  112.5129  -46.5830 H         1 08Z         0.0692
     31 H7         96.5902  112.2837  -46.0812 H         1 08Z         0.0764
     32 H8         97.5819  115.0769  -49.1913 H         1 08Z         0.0766
     33 H9         95.5833  114.6738  -51.5836 H         1 08Z         0.2154
     34 H10        89.4784  120.4824  -47.7199 H         1 08Z         0.0549
     35 H11        88.4076  120.4448  -45.4661 H         1 08Z         0.0639
     36 H12        89.7952  116.3602  -44.8627 H         1 08Z         0.0639
     37 H13        90.8720  116.3913  -47.1083 H         1 08Z         0.0549
     38 H14        87.9505  117.3777  -41.9727 H         1 08Z         0.1804
     39 H15        88.8814  116.5204  -43.1552 H         1 08Z         0.1804
@<TRIPOS>BOND
     1    1    2 1  
     2    1   17 ar 
     3    1   21 ar 
     4    2    3 1  
     5    3    4 2  
     6    3    7 1  
     7    4    5 1  
     8    5    6 2  
     9    5    8 1  
    10    6    7 1  
    11    6    9 1  
    12    9   10 1  
    13    9   16 1  
    14   10   11 ar 
    15   10   15 ar 
    16   11   12 ar 
    17   12   13 ar 
    18   13   14 ar 
    19   14   15 ar 
    20   17   18 ar 
    21   18   19 ar 
    22   19   20 ar 
    23   19   22 1  
    24   20   21 ar 
    25   22   23 2  
    26   22   24 am 
    27    2   25 1  
    28    8   26 1  
    29    8   27 1  
    30    9   28 1  
    31   11   29 1  
    32   12   30 1  
    33   13   31 1  
    34   15   32 1  
    35   16   33 1  
    36   17   34 1  
    37   18   35 1  
    38   20   36 1  
    39   21   37 1  
    40   24   38 1  
    41   24   39 1  
@<TRIPOS>SUBSTRUCTURE
     1 08Z         1

