### 
### Created by X-TOOL on Mon Sep 10 21:13:11 2018
### 

@<TRIPOS>MOLECULE
3rk9_ligand
   34    35     1     0     0
SMALL
GAST_HUCK


@<TRIPOS>ATOM
      1 C1        -35.8730  -83.6810  -83.0850 C.3       1 09Z        -0.0418
      2 C2        -36.7130  -82.4730  -83.5880 C.3       1 09Z         0.0373
      3 C3        -35.8030  -81.2220  -83.6980 C.3       1 09Z        -0.0418
      4 N4        -37.2740  -82.8280  -84.9060 N.pl3     1 09Z        -0.2863
      5 C5        -38.3130  -82.1010  -85.4720 C.2       1 09Z         0.1687
      6 N6        -38.6380  -82.2620  -86.7830 N.2       1 09Z        -0.3076
      7 C7        -39.6590  -81.4630  -87.1120 C.2       1 09Z         0.0516
      8 C8        -40.1190  -80.6870  -86.0820 C.2       1 09Z         0.0579
      9 S9        -39.2630  -80.9690  -84.6400 S.3       1 09Z        -0.0016
     10 N10       -40.1420  -81.4320  -88.3100 N.pl3     1 09Z        -0.3522
     11 C11       -41.2510  -79.6910  -86.2060 C.3       1 09Z         0.1207
     12 C12       -41.7070  -78.8200  -85.0940 C.ar      1 09Z         0.0184
     13 C13       -40.7260  -78.1020  -84.2910 C.ar      1 09Z        -0.0373
     14 C14       -41.1310  -77.2390  -83.2080 C.ar      1 09Z        -0.0406
     15 C15       -42.5200  -77.0910  -82.9320 C.ar      1 09Z         0.0038
     16 N16       -43.4650  -77.7760  -83.7100 N.ar      1 09Z        -0.3046
     17 C17       -43.1120  -78.6400  -84.7900 C.ar      1 09Z         0.0158
     18 O18       -41.8640  -79.5700  -87.4050 O.3       1 09Z        -0.3717
     19 H1        -35.4416  -83.4434  -82.1014 H         1 09Z         0.0252
     20 H2        -35.0633  -83.8878  -83.8002 H         1 09Z         0.0252
     21 H3        -36.5199  -84.5664  -82.9974 H         1 09Z         0.0252
     22 H4        -37.5310  -82.2667  -82.8821 H         1 09Z         0.0557
     23 H5        -36.3966  -80.3670  -84.0538 H         1 09Z         0.0252
     24 H6        -34.9875  -81.4231  -84.4083 H         1 09Z         0.0252
     25 H7        -35.3796  -80.9886  -82.7100 H         1 09Z         0.0252
     26 H8        -36.8861  -83.6333  -85.4177 H         1 09Z         0.1881
     27 H9        -40.9290  -80.8056  -88.5320 H         1 09Z         0.1624
     28 H10       -39.7401  -82.0337  -89.0431 H         1 09Z         0.1624
     29 H11       -41.9671  -80.4652  -85.8932 H         1 09Z         0.0863
     30 H12       -39.6711  -78.2185  -84.5116 H         1 09Z         0.0678
     31 H13       -40.3914  -76.7129  -82.6153 H         1 09Z         0.0692
     32 H14       -42.8468  -76.4496  -82.1215 H         1 09Z         0.0764
     33 H15       -43.8755  -79.1483  -85.3678 H         1 09Z         0.0766
     34 H16       -41.7549  -78.6829  -87.7271 H         1 09Z         0.2154
@<TRIPOS>BOND
     1    1    2 1  
     2    2    3 1  
     3    2    4 1  
     4    4    5 1  
     5    5    6 2  
     6    5    9 1  
     7    6    7 1  
     8    7    8 2  
     9    7   10 1  
    10    8    9 1  
    11    8   11 1  
    12   11   12 1  
    13   11   18 1  
    14   12   13 ar 
    15   12   17 ar 
    16   13   14 ar 
    17   14   15 ar 
    18   15   16 ar 
    19   16   17 ar 
    20    1   19 1  
    21    1   20 1  
    22    1   21 1  
    23    2   22 1  
    24    3   23 1  
    25    3   24 1  
    26    3   25 1  
    27    4   26 1  
    28   10   27 1  
    29   10   28 1  
    30   11   29 1  
    31   13   30 1  
    32   14   31 1  
    33   15   32 1  
    34   17   33 1  
    35   18   34 1  
@<TRIPOS>SUBSTRUCTURE
     1 09Z         1

