### 
### Created by X-TOOL on Mon Sep 10 21:13:10 2018
### 

@<TRIPOS>MOLECULE
3rkb_ligand
   39    41     1     0     0
SMALL
GAST_HUCK


@<TRIPOS>ATOM
      1 C1        -93.8840  -44.8330  -49.7350 C.2       1 12Z         0.0925
      2 C2        -93.3740  -45.5890  -50.7440 C.2       1 12Z         0.0828
      3 N3        -92.3210  -46.4070  -50.3590 N.2       1 12Z        -0.2767
      4 C4        -92.0240  -46.2780  -49.0780 C.2       1 12Z         0.1848
      5 S5        -93.0280  -45.1410  -48.2220 S.3       1 12Z         0.0065
      6 C6        -95.0020  -43.8540  -49.8160 C.2       1 12Z         0.1369
      7 N7        -93.8170  -45.5820  -52.0490 N.pl3     1 12Z        -0.3318
      8 N8        -91.0150  -46.9460  -48.4550 N.pl3     1 12Z        -0.2766
      9 O9        -95.6690  -43.7890  -50.8710 O.2       1 12Z        -0.4000
     10 C10       -96.0460  -41.2670  -46.5090 C.ar      1 12Z         0.0152
     11 N11       -97.0290  -41.9190  -47.2130 N.ar      1 12Z        -0.2908
     12 C12       -96.6730  -42.7390  -48.2620 C.ar      1 12Z         0.0282
     13 C13       -95.3090  -42.9460  -48.6590 C.ar      1 12Z         0.0511
     14 C14       -94.2910  -42.2460  -47.9100 C.ar      1 12Z        -0.0255
     15 C15       -94.6550  -41.3980  -46.8200 C.ar      1 12Z        -0.0288
     16 C16       -89.0640  -45.4970  -45.5100 C.3       1 12Z        -0.0509
     17 C17       -89.6220  -45.6220  -46.9480 C.3       1 12Z        -0.0288
     18 C18       -90.5440  -46.8860  -47.0970 C.3       1 12Z         0.0461
     19 C19       -89.7510  -48.1660  -46.7100 C.3       1 12Z        -0.0288
     20 C20       -89.2370  -48.0590  -45.2460 C.3       1 12Z        -0.0509
     21 C21       -88.3360  -46.8030  -45.0650 C.3       1 12Z        -0.0529
     22 H1        -93.3685  -46.1908  -52.7484 H         1 12Z         0.1747
     23 H2        -94.5965  -44.9679  -52.3250 H         1 12Z         0.1747
     24 H3        -90.5022  -47.6057  -49.0573 H         1 12Z         0.1935
     25 H4        -96.3358  -40.6267  -45.6837 H         1 12Z         0.0856
     26 H5        -97.4563  -43.2494  -48.8107 H         1 12Z         0.0874
     27 H6        -93.2470  -42.3649  -48.1764 H         1 12Z         0.0785
     28 H7        -93.9017  -40.8703  -46.2464 H         1 12Z         0.0721
     29 H8        -89.8967  -45.2986  -44.8192 H         1 12Z         0.0266
     30 H9        -88.3509  -44.6602  -45.4745 H         1 12Z         0.0266
     31 H10       -88.7812  -45.7073  -47.6521 H         1 12Z         0.0288
     32 H11       -90.2081  -44.7216  -47.1841 H         1 12Z         0.0288
     33 H12       -91.4075  -46.7887  -46.4225 H         1 12Z         0.0569
     34 H13       -88.8929  -48.2806  -47.3886 H         1 12Z         0.0288
     35 H14       -90.4096  -49.0424  -46.8004 H         1 12Z         0.0288
     36 H15       -88.6535  -48.9591  -45.0023 H         1 12Z         0.0266
     37 H16       -90.0986  -47.9853  -44.5661 H         1 12Z         0.0266
     38 H17       -88.0604  -46.7128  -44.0039 H         1 12Z         0.0265
     39 H18       -87.4264  -46.9274  -45.6709 H         1 12Z         0.0265
@<TRIPOS>BOND
     1    1    2 2  
     2    5    1 1  
     3    1    6 1  
     4    3    2 1  
     5    2    7 1  
     6    4    3 2  
     7    4    5 1  
     8    8    4 1  
     9    6    9 2  
    10    6   13 1  
    11   18    8 1  
    12   11   10 ar 
    13   15   10 ar 
    14   12   11 ar 
    15   13   12 ar 
    16   13   14 ar 
    17   14   15 ar 
    18   17   16 1  
    19   16   21 1  
    20   17   18 1  
    21   18   19 1  
    22   19   20 1  
    23   20   21 1  
    24    7   22 1  
    25    7   23 1  
    26    8   24 1  
    27   10   25 1  
    28   12   26 1  
    29   14   27 1  
    30   15   28 1  
    31   16   29 1  
    32   16   30 1  
    33   17   31 1  
    34   17   32 1  
    35   18   33 1  
    36   19   34 1  
    37   19   35 1  
    38   20   36 1  
    39   20   37 1  
    40   21   38 1  
    41   21   39 1  
@<TRIPOS>SUBSTRUCTURE
     1 12Z         1

