### 
### Created by X-TOOL on Mon Sep 10 21:13:05 2018
### 

@<TRIPOS>MOLECULE
3rkz_ligand
   76    79     1     0     0
SMALL
GAST_HUCK


@<TRIPOS>ATOM
      1 C1          7.1670    9.3410   23.3280 C.3       1 06T        -0.0557
      2 C2          6.0010   10.2120   23.7110 C.2       1 06T        -0.0613
      3 C3          4.6750    9.8430   23.7850 C.2       1 06T         0.0458
      4 N1          3.9470   10.9650   24.1740 N.pl3     1 06T        -0.2308
      5 C4          4.8190   12.0230   24.3350 C.2       1 06T         0.0668
      6 C5          6.0960   11.5740   24.0570 C.2       1 06T         0.0074
      7 C6          7.2570   12.4600   24.1670 C.2       1 06T         0.0957
      8 O1          8.4020   12.0160   24.0970 O.2       1 06T        -0.4028
      9 C7          6.9980   13.8760   24.6770 C.3       1 06T         0.0212
     10 C8          5.6950   14.0270   25.4910 C.3       1 06T        -0.0089
     11 C9          4.4800   13.4220   24.7580 C.3       1 06T         0.0114
     12 C10         5.8840   13.3240   26.8530 C.3       1 06T        -0.0559
     13 C11         5.4300   15.5100   25.7620 C.3       1 06T        -0.0559
     14 C12         2.5480   11.0730   24.3930 C.ar      1 06T         0.0846
     15 C13         1.7470   11.9880   23.7220 C.ar      1 06T        -0.0353
     16 C14         0.3690   11.9840   23.9660 C.ar      1 06T        -0.0574
     17 C15        -0.2070   11.0790   24.8800 C.ar      1 06T         0.0591
     18 C16         0.6090   10.1610   25.5490 C.ar      1 06T         0.0544
     19 C17         2.0010   10.1970   25.3140 C.ar      1 06T        -0.0057
     20 N2          0.1290    9.2450   26.4590 N.pl3     1 06T        -0.3169
     21 C18         0.8490    8.0400   26.8200 C.3       1 06T         0.0380
     22 C19         1.2460    7.2030   25.5710 C.3       1 06T        -0.0011
     23 C20         2.4330    6.2600   25.8630 C.3       1 06T         0.0388
     24 N3          3.4640    6.3550   24.8100 N.am      1 06T        -0.2668
     25 C21         4.2500    7.6010   24.7530 C.3       1 06T         0.0419
     26 C22         4.0510    8.4960   23.5220 C.3       1 06T         0.0127
     27 C23         3.7000    5.3480   23.9200 C.2       1 06T         0.2268
     28 O2          4.5570    5.4560   23.0320 O.2       1 06T        -0.3907
     29 C24         2.9050    4.0570   23.9900 C.3       1 06T         0.0622
     30 C25         3.5350    3.1280   25.0090 C.3       1 06T        -0.0040
     31 N4          3.0430    3.4210   22.6370 N.4       1 06T         0.2377
     32 C26         0.0720    6.4530   24.9470 C.3       1 06T        -0.0585
     33 C27         0.0530    7.3000   27.9020 C.3       1 06T        -0.0421
     34 C28        -1.6860   11.1130   25.1590 C.2       1 06T         0.1889
     35 O3         -2.1860   10.6570   26.2000 O.2       1 06T        -0.3957
     36 N5         -2.4510   11.7200   24.2350 N.am      1 06T        -0.3034
     37 H1          6.8086    8.3246   23.1077 H         1 06T         0.0298
     38 H2          7.8859    9.3040   24.1598 H         1 06T         0.0298
     39 H3          7.6587    9.7576   22.4366 H         1 06T         0.0298
     40 H4          6.9430   14.5504   23.8097 H         1 06T         0.0483
     41 H5          7.8415   14.1714   25.3183 H         1 06T         0.0483
     42 H6          3.6120   13.4041   25.4334 H         1 06T         0.0457
     43 H7          4.2428   14.0291   23.8719 H         1 06T         0.0457
     44 H8          6.7510   13.7581   27.3724 H         1 06T         0.0238
     45 H9          6.0541   12.2495   26.6906 H         1 06T         0.0238
     46 H10         4.9815   13.4638   27.4662 H         1 06T         0.0238
     47 H11         5.2909   16.0381   24.8071 H         1 06T         0.0238
     48 H12         6.2865   15.9434   26.2993 H         1 06T         0.0238
     49 H13         4.5221   15.6144   26.3743 H         1 06T         0.0238
     50 H14         2.1814   12.6925   23.0220 H         1 06T         0.0488
     51 H15        -0.2665   12.6893   23.4428 H         1 06T         0.0618
     52 H16         2.6519    9.5272   25.8643 H         1 06T         0.0484
     53 H17        -0.7829    9.4245   26.9030 H         1 06T         0.1782
     54 H18         1.7954    8.3512   27.2864 H         1 06T         0.0551
     55 H19         1.5927    7.9219   24.8141 H         1 06T         0.0340
     56 H20         2.0648    5.2246   25.9118 H         1 06T         0.0526
     57 H21         2.8808    6.5359   26.8291 H         1 06T         0.0526
     58 H22         5.3138    7.3242   24.7932 H         1 06T         0.0540
     59 H23         3.9923    8.1966   25.6411 H         1 06T         0.0540
     60 H24         4.5312    8.0320   22.6479 H         1 06T         0.0415
     61 H25         2.9756    8.6200   23.3269 H         1 06T         0.0415
     62 H26         1.8514    4.2516   24.2390 H         1 06T         0.1095
     63 H27         2.9579    2.1929   25.0587 H         1 06T         0.0310
     64 H28         3.5341    3.6123   25.9966 H         1 06T         0.0310
     65 H29         4.5700    2.9047   24.7110 H         1 06T         0.0310
     66 H30         2.6305    4.0211   21.9400 H         1 06T         0.2015
     67 H31         2.5715    2.5301   22.6348 H         1 06T         0.2015
     68 H32         4.0196    3.2849   22.4277 H         1 06T         0.2015
     69 H33        -0.7515    7.1563   24.7542 H         1 06T         0.0234
     70 H34        -0.2703    5.6680   25.6374 H         1 06T         0.0234
     71 H35         0.3917    5.9943   23.9997 H         1 06T         0.0234
     72 H36         0.5875    6.3818   28.1869 H         1 06T         0.0252
     73 H37        -0.9417    7.0390   27.5115 H         1 06T         0.0252
     74 H38        -0.0577    7.9483   28.7837 H         1 06T         0.0252
     75 H39        -3.4412   11.7750   24.3634 H         1 06T         0.1801
     76 H40        -2.0298   12.1165   23.4193 H         1 06T         0.1801
@<TRIPOS>BOND
     1    1    2 1  
     2    2    3 2  
     3    2    6 1  
     4    3    4 1  
     5    3   26 1  
     6    4    5 1  
     7    4   14 1  
     8    5    6 2  
     9    5   11 1  
    10    6    7 1  
    11    7    8 2  
    12    7    9 1  
    13    9   10 1  
    14   10   11 1  
    15   10   12 1  
    16   10   13 1  
    17   14   15 ar 
    18   14   19 ar 
    19   15   16 ar 
    20   16   17 ar 
    21   17   18 ar 
    22   17   34 1  
    23   18   19 ar 
    24   18   20 1  
    25   20   21 1  
    26   21   22 1  
    27   21   33 1  
    28   22   23 1  
    29   22   32 1  
    30   23   24 1  
    31   24   25 1  
    32   24   27 am 
    33   25   26 1  
    34   27   28 2  
    35   27   29 1  
    36   29   30 1  
    37   29   31 1  
    38   34   35 2  
    39   34   36 am 
    40    1   37 1  
    41    1   38 1  
    42    1   39 1  
    43    9   40 1  
    44    9   41 1  
    45   11   42 1  
    46   11   43 1  
    47   12   44 1  
    48   12   45 1  
    49   12   46 1  
    50   13   47 1  
    51   13   48 1  
    52   13   49 1  
    53   15   50 1  
    54   16   51 1  
    55   19   52 1  
    56   20   53 1  
    57   21   54 1  
    58   22   55 1  
    59   23   56 1  
    60   23   57 1  
    61   25   58 1  
    62   25   59 1  
    63   26   60 1  
    64   26   61 1  
    65   29   62 1  
    66   30   63 1  
    67   30   64 1  
    68   30   65 1  
    69   31   66 1  
    70   31   67 1  
    71   31   68 1  
    72   32   69 1  
    73   32   70 1  
    74   32   71 1  
    75   33   72 1  
    76   33   73 1  
    77   33   74 1  
    78   36   75 1  
    79   36   76 1  
@<TRIPOS>SUBSTRUCTURE
     1 06T         1

