### 
### Created by X-TOOL on Mon Sep 10 21:13:07 2018
### 

@<TRIPOS>MOLECULE
3rl8_ligand
  100   100     1     0     0
SMALL
GAST_HUCK


@<TRIPOS>ATOM
      1 N          58.3730   -7.4220   50.7610 N.4       1 TYR         0.2392
      2 CA         59.7190   -7.6770   51.3880 C.3       1 TYR         0.0730
      3 C          60.8010   -6.7700   50.7930 C.2       1 TYR         0.2286
      4 O          61.5260   -6.1030   51.5260 O.2       1 TYR        -0.3905
      5 CB         60.1190   -9.1470   51.2670 C.3       1 TYR         0.0365
      6 CG         59.9820   -9.9610   52.5390 C.ar      1 TYR        -0.0460
      7 CD1        60.2630   -9.4030   53.7890 C.ar      1 TYR        -0.0684
      8 CD2        59.6150  -11.3080   52.4870 C.ar      1 TYR        -0.0684
      9 CE1        60.1510  -10.1570   54.9560 C.ar      1 TYR        -0.0398
     10 CE2        59.5080  -12.0760   53.6500 C.ar      1 TYR        -0.0398
     11 CZ         59.7780  -11.4940   54.8790 C.ar      1 TYR         0.0805
     12 OH         59.6710  -12.2420   56.0280 O.3       1 TYR        -0.3376
     13 N          60.9080   -6.7650   49.4660 N.am      1 LEU        -0.2609
     14 CA         61.6700   -5.7490   48.7380 C.3       1 LEU         0.1313
     15 C          60.7080   -4.7770   48.0280 C.2       1 LEU         0.2039
     16 O          61.0330   -3.6070   47.8180 O.2       1 LEU        -0.3944
     17 CB         62.6380   -6.4100   47.7390 C.3       1 LEU        -0.0101
     18 CG         63.8370   -5.7230   47.0450 C.3       1 LEU        -0.0425
     19 CD1        63.3950   -4.7810   45.9060 C.3       1 LEU        -0.0625
     20 CD2        64.7910   -5.0220   48.0250 C.3       1 LEU        -0.0625
     21 N          59.5190   -5.2470   47.6710 N.am      1 VAL        -0.2635
     22 CA         58.5750   -4.3740   46.9850 C.3       1 VAL         0.1333
     23 C          57.8570   -3.4610   47.9740 C.2       1 VAL         0.2042
     24 O          57.5300   -3.8480   49.0980 O.2       1 VAL        -0.3944
     25 CB         57.5660   -5.1260   46.0340 C.3       1 VAL        -0.0063
     26 CG1        58.3080   -5.8630   44.9130 C.3       1 VAL        -0.0584
     27 CG2        56.6610   -6.0710   46.7970 C.3       1 VAL        -0.0584
     28 N          57.6560   -2.2230   47.5530 N.am      1 THR        -0.2613
     29 CA         56.8630   -1.2860   48.3250 C.3       1 THR         0.1565
     30 C          55.5620   -1.0990   47.5480 C.2       1 THR         0.2065
     31 O          55.5640   -0.4780   46.4800 O.2       1 THR        -0.3943
     32 CB         57.6240    0.0400   48.5210 C.3       1 THR         0.0924
     33 OG1        58.8160   -0.2090   49.2890 O.3       1 THR        -0.3874
     34 CG2        56.7580    1.0650   49.2480 C.3       1 THR        -0.0346
     35 N          54.4690   -1.6090   48.1260 N.am      1 SER        -0.2615
     36 CA         53.1610   -1.6850   47.4690 C.3       1 SER         0.1539
     37 C          52.1440   -0.7230   48.0930 C.2       1 SER         0.2056
     38 O          51.9950   -0.6700   49.3130 O.2       1 SER        -0.3943
     39 CB         52.6380   -3.1300   47.5060 C.3       1 SER         0.0843
     40 OG         51.2440   -3.2090   47.2110 O.3       1 SER        -0.3903
     41 N          51.4490    0.0290   47.2460 N.am      1 VAL        -0.2692
     42 CA         50.4850    1.0310   47.6820 C.3       1 VAL         0.0967
     43 C          49.0630    0.6880   47.1800 C.2       1 VAL         0.0603
     44 O          48.0610    1.3490   47.5360 O.co2     1 VAL        -0.5666
     45 CB         50.9060    2.4970   47.2660 C.3       1 VAL        -0.0118
     46 CG1        52.2890    2.8870   47.8270 C.3       1 VAL        -0.0590
     47 CG2        50.8640    2.6950   45.7620 C.3       1 VAL        -0.0590
     48 OXT        48.8720   -0.2860   46.4210 O.co2     1 VAL        -0.5666
     49 H          58.1356   -6.4348   50.8581 H         1 TYR         0.2017
     50 H          58.4077   -7.6689   49.7719 H         1 TYR         0.2017
     51 H          57.6677   -7.9903   51.2300 H         1 TYR         0.2017
     52 H          59.6296   -7.4365   52.4474 H         1 TYR         0.1120
     53 H          61.1752   -9.1625   50.9981 H         1 TYR         0.0486
     54 H          59.4466   -9.5948   50.5353 H         1 TYR         0.0486
     55 H          60.5750   -8.3605   53.8525 H         1 TYR         0.0530
     56 H          59.4082  -11.7688   51.5211 H         1 TYR         0.0530
     57 H          60.3549   -9.7004   55.9245 H         1 TYR         0.0525
     58 H          59.2146  -13.1241   53.5911 H         1 TYR         0.0525
     59 H          59.8898  -11.6951   56.7861 H         1 TYR         0.2458
     60 H          60.4398   -7.4992   48.9348 H         1 LEU         0.1885
     61 H          62.2687   -5.1780   49.4477 H         1 LEU         0.0800
     62 H          61.9808   -6.6209   46.8954 H         1 LEU         0.0315
     63 H          63.1351   -7.1512   48.3648 H         1 LEU         0.0315
     64 H          64.4104   -6.5321   46.5925 H         1 LEU         0.0298
     65 H          62.8516   -5.3527   45.1537 H         1 LEU         0.0232
     66 H          62.7477   -4.0028   46.3104 H         1 LEU         0.0232
     67 H          64.2745   -4.3243   45.4520 H         1 LEU         0.0232
     68 H          64.2461   -4.2539   48.5739 H         1 LEU         0.0232
     69 H          65.1932   -5.7543   48.7250 H         1 LEU         0.0232
     70 H          65.6079   -4.5623   47.4687 H         1 LEU         0.0232
     71 H          59.2674   -6.2141   47.8757 H         1 VAL         0.1883
     72 H          59.1742   -3.7558   46.3165 H         1 VAL         0.0802
     73 H          56.9295   -4.3665   45.5799 H         1 VAL         0.0343
     74 H          58.8758   -5.1448   44.3215 H         1 VAL         0.0234
     75 H          58.9880   -6.5948   45.3491 H         1 VAL         0.0234
     76 H          57.5859   -6.3715   44.2742 H         1 VAL         0.0234
     77 H          57.2671   -6.8183   47.3091 H         1 VAL         0.0234
     78 H          56.0827   -5.5068   47.5287 H         1 VAL         0.0234
     79 H          55.9842   -6.5656   46.1003 H         1 VAL         0.0234
     80 H          58.0664   -1.9220   46.6690 H         1 THR         0.1884
     81 H          56.6559   -1.6558   49.3292 H         1 THR         0.0826
     82 H          57.8829    0.4414   47.5412 H         1 THR         0.0639
     83 H          59.2931    0.6147   49.4134 H         1 THR         0.2101
     84 H          55.8594    1.2601   48.6626 H         1 THR         0.0257
     85 H          56.4782    0.6739   50.2262 H         1 THR         0.0257
     86 H          57.3201    1.9906   49.3726 H         1 THR         0.0257
     87 H          54.5503   -1.9654   49.0783 H         1 SER         0.1884
     88 H          53.2924   -1.3777   46.4315 H         1 SER         0.0823
     89 H          52.7935   -3.5203   48.5118 H         1 SER         0.0606
     90 H          53.1764   -3.7040   46.7518 H         1 SER         0.0606
     91 H          50.9622   -4.1261   47.2454 H         1 SER         0.2097
     92 H          51.5971   -0.1011   46.2452 H         1 VAL         0.1875
     93 H          50.4747    1.0090   48.7717 H         1 VAL         0.0729
     94 H          50.1678    3.1634   47.7122 H         1 VAL         0.0336
     95 H          52.2654    2.8367   48.9156 H         1 VAL         0.0234
     96 H          53.0419    2.1968   47.4463 H         1 VAL         0.0234
     97 H          52.5335    3.9021   47.5141 H         1 VAL         0.0234
     98 H          51.5501    1.9949   45.2853 H         1 VAL         0.0234
     99 H          49.8511    2.5157   45.4014 H         1 VAL         0.0234
    100 H          51.1607    3.7162   45.5228 H         1 VAL         0.0234
@<TRIPOS>BOND
     1    1    2 1  
     2    2    3 1  
     3    2    5 1  
     4    3    4 2  
     5    3   13 am 
     6    5    6 1  
     7    6    7 ar 
     8    6    8 ar 
     9    7    9 ar 
    10    8   10 ar 
    11    9   11 ar 
    12   10   11 ar 
    13   11   12 1  
    14   13   14 1  
    15   14   15 1  
    16   14   17 1  
    17   15   16 2  
    18   15   21 am 
    19   17   18 1  
    20   18   19 1  
    21   18   20 1  
    22   21   22 1  
    23   22   23 1  
    24   22   25 1  
    25   23   24 2  
    26   23   28 am 
    27   25   26 1  
    28   25   27 1  
    29   28   29 1  
    30   29   30 1  
    31   29   32 1  
    32   30   31 2  
    33   30   35 am 
    34   32   33 1  
    35   32   34 1  
    36   35   36 1  
    37   36   37 1  
    38   36   39 1  
    39   37   38 2  
    40   37   41 am 
    41   39   40 1  
    42   41   42 1  
    43   42   43 1  
    44   42   45 1  
    45   43   44 ar 
    46   43   48 ar 
    47   45   46 1  
    48   45   47 1  
    49    1   49 1  
    50    1   50 1  
    51    1   51 1  
    52    2   52 1  
    53    5   53 1  
    54    5   54 1  
    55    7   55 1  
    56    8   56 1  
    57    9   57 1  
    58   10   58 1  
    59   12   59 1  
    60   13   60 1  
    61   14   61 1  
    62   17   62 1  
    63   17   63 1  
    64   18   64 1  
    65   19   65 1  
    66   19   66 1  
    67   19   67 1  
    68   20   68 1  
    69   20   69 1  
    70   20   70 1  
    71   21   71 1  
    72   22   72 1  
    73   25   73 1  
    74   26   74 1  
    75   26   75 1  
    76   26   76 1  
    77   27   77 1  
    78   27   78 1  
    79   27   79 1  
    80   28   80 1  
    81   29   81 1  
    82   32   82 1  
    83   33   83 1  
    84   34   84 1  
    85   34   85 1  
    86   34   86 1  
    87   35   87 1  
    88   36   88 1  
    89   39   89 1  
    90   39   90 1  
    91   40   91 1  
    92   41   92 1  
    93   42   93 1  
    94   45   94 1  
    95   46   95 1  
    96   46   96 1  
    97   46   97 1  
    98   47   98 1  
    99   47   99 1  
   100   47  100 1  
@<TRIPOS>SUBSTRUCTURE
     1 TYR         1

