### 
### Created by X-TOOL on Mon Sep 10 21:13:07 2018
### 

@<TRIPOS>MOLECULE
3rlb_ligand
   35    36     1     0     0
SMALL
GAST_HUCK


@<TRIPOS>ATOM
      1 CM2        37.0650  -25.2360   41.7910 C.3       1 VIB        -0.0029
      2 N4A        36.2090  -21.6970   44.8310 N.pl3     1 VIB        -0.3187
      3 CM4        33.0740  -21.9020   48.7990 C.3       1 VIB         0.0228
      4 O1         28.9960  -20.3490   48.8980 O.3       1 VIB        -0.3891
      5 C7         29.4930  -20.4020   47.5680 C.3       1 VIB         0.0735
      6 C6         30.9120  -19.8960   47.6810 C.3       1 VIB         0.0775
      7 C2         32.9770  -21.9370   45.1150 C.2       1 VIB         0.1352
      8 S1         31.7250  -20.7330   45.1530 S.3       1 VIB         0.1156
      9 C5         31.8150  -20.7910   46.8750 C.2       1 VIB         0.1726
     10 C4         32.7970  -21.7330   47.3410 C.2       1 VIB         0.1309
     11 N3         33.4340  -22.3470   46.3040 N.2       1 VIB        -0.2745
     12 C7A        34.4990  -23.3380   46.5240 C.3       1 VIB         0.0562
     13 C4A        35.9570  -22.9830   44.5080 C.ar      1 VIB         0.1223
     14 N3A        36.5220  -23.4680   43.4040 N.ar      1 VIB        -0.2610
     15 C2A        36.3950  -24.7750   43.0550 C.ar      1 VIB         0.0758
     16 N1A        35.6320  -25.6160   43.7720 N.ar      1 VIB        -0.2938
     17 C6A        35.0210  -25.1710   44.8890 C.ar      1 VIB         0.0074
     18 C5A        35.1580  -23.8310   45.2780 C.ar      1 VIB         0.0328
     19 H1         37.6393  -24.4046   41.3562 H         1 VIB         0.0449
     20 H2         36.3021  -25.5699   41.0723 H         1 VIB         0.0449
     21 H3         37.7440  -26.0707   42.0193 H         1 VIB         0.0449
     22 H4         35.7896  -21.2870   45.6777 H         1 VIB         0.1789
     23 H5         36.8207  -21.1256   44.2308 H         1 VIB         0.1789
     24 H6         32.3872  -21.2677   49.3786 H         1 VIB         0.0599
     25 H7         34.1124  -21.6077   49.0115 H         1 VIB         0.0599
     26 H8         32.9263  -22.9550   49.0807 H         1 VIB         0.0599
     27 H9         28.0968  -20.6554   48.9113 H         1 VIB         0.2100
     28 H10        28.9002  -19.7555   46.9042 H         1 VIB         0.0622
     29 H11        29.4761  -21.4335   47.1862 H         1 VIB         0.0622
     30 H12        31.2255  -19.9083   48.7353 H         1 VIB         0.0769
     31 H13        30.9694  -18.8682   47.2934 H         1 VIB         0.0769
     32 H14        33.3668  -22.3345   44.1790 H         1 VIB         0.1655
     33 H15        34.0610  -24.2021   47.0451 H         1 VIB         0.0563
     34 H16        35.2694  -22.8779   47.1603 H         1 VIB         0.0563
     35 H17        34.4235  -25.8500   45.4865 H         1 VIB         0.0791
@<TRIPOS>BOND
     1   15    1 1  
     2   13    2 1  
     3   10    3 1  
     4    5    4 1  
     5    6    5 1  
     6    9    6 1  
     7    7    8 1  
     8   11    7 2  
     9    9    8 1  
    10   10    9 2  
    11   11   10 1  
    12   12   11 1  
    13   18   12 1  
    14   14   13 ar 
    15   13   18 ar 
    16   14   15 ar 
    17   15   16 ar 
    18   16   17 ar 
    19   17   18 ar 
    20    1   19 1  
    21    1   20 1  
    22    1   21 1  
    23    2   22 1  
    24    2   23 1  
    25    3   24 1  
    26    3   25 1  
    27    3   26 1  
    28    4   27 1  
    29    5   28 1  
    30    5   29 1  
    31    6   30 1  
    32    6   31 1  
    33    7   32 1  
    34   12   33 1  
    35   12   34 1  
    36   17   35 1  
@<TRIPOS>SUBSTRUCTURE
     1 VIB         1

