### 
### Created by X-TOOL on Mon Sep 10 21:13:06 2018
### 

@<TRIPOS>MOLECULE
3rlp_ligand
   29    30     1     0     0
SMALL
GAST_HUCK


@<TRIPOS>ATOM
      1 N1         17.5980   -1.9320   49.9900 N.ar      1 3RP        -0.2586
      2 N3         17.5890    0.3940   49.5140 N.pl3     1 3RP        -0.3052
      3 C4         16.9790   -3.0210   50.5380 C.ar      1 3RP         0.0261
      4 C5         17.6790   -4.3490   50.4430 C.3       1 3RP        -0.0131
      5 C6         13.8330   -1.5150   51.8430 C.ar      1 3RP         0.0064
      6 C7         12.6620   -1.1740   51.0870 C.ar      1 3RP         0.0429
      7 C8         11.3990   -1.0650   51.7310 C.ar      1 3RP        -0.0381
      8 C10        12.4300   -1.6080   53.9260 C.ar      1 3RP         0.1093
      9 C11        13.6940   -1.7220   53.2580 C.ar      1 3RP        -0.0191
     10 C3         15.7460   -2.9430   51.1650 C.ar      1 3RP        -0.0180
     11 C9         11.2820   -1.2830   53.1350 C.ar      1 3RP         0.0723
     12 C2         15.1520   -1.6710   51.2130 C.ar      1 3RP         0.0428
     13 C1         16.9630   -0.7150   50.0710 C.ar      1 3RP         0.1760
     14 C12        13.3180   -2.1170   56.1500 C.3       1 3RP         0.0597
     15 N2         15.7410   -0.5540   50.6750 N.ar      1 3RP        -0.2621
     16 O1         12.2160   -1.7910   55.2900 O.3       1 3RP        -0.3194
     17 CL1        12.7250   -0.8880   49.3630 Cl        1 3RP        -0.0760
     18 CL2         9.7040   -1.1440   53.8430 Cl        1 3RP        -0.0751
     19 H1         18.5063    0.2920   49.0567 H         1 3RP         0.1824
     20 H2         17.1356    1.3178   49.5585 H         1 3RP         0.1824
     21 H3         17.0635   -5.1231   50.9246 H         1 3RP         0.0441
     22 H4         18.6532   -4.2871   50.9500 H         1 3RP         0.0441
     23 H5         17.8321   -4.6080   49.3849 H         1 3RP         0.0441
     24 H6         10.5187   -0.8143   51.1502 H         1 3RP         0.0611
     25 H7         14.5736   -1.9726   53.8399 H         1 3RP         0.0575
     26 H8         15.2664   -3.8150   51.5946 H         1 3RP         0.0602
     27 H9         12.9576   -2.2220   57.1840 H         1 3RP         0.0578
     28 H10        14.0693   -1.3150   56.1033 H         1 3RP         0.0578
     29 H11        13.7715   -3.0639   55.8219 H         1 3RP         0.0578
@<TRIPOS>BOND
     1    3    1 ar 
     2    1   13 ar 
     3   13    2 1  
     4    3    4 1  
     5   10    3 ar 
     6    5    6 ar 
     7    5    9 ar 
     8   12    5 1  
     9    6    7 ar 
    10    6   17 1  
    11    7   11 ar 
    12    9    8 ar 
    13    8   11 ar 
    14    8   16 1  
    15   10   12 ar 
    16   11   18 1  
    17   12   15 ar 
    18   13   15 ar 
    19   16   14 1  
    20    2   19 1  
    21    2   20 1  
    22    4   21 1  
    23    4   22 1  
    24    4   23 1  
    25    7   24 1  
    26    9   25 1  
    27   10   26 1  
    28   14   27 1  
    29   14   28 1  
    30   14   29 1  
@<TRIPOS>SUBSTRUCTURE
     1 3RP         1

