### 
### Created by X-TOOL on Mon Sep 10 21:13:06 2018
### 

@<TRIPOS>MOLECULE
3rlq_ligand
   32    34     1     0     0
SMALL
GAST_HUCK


@<TRIPOS>ATOM
      1 N1         17.5740   -2.2510   49.8550 N.ar      1 3RQ        -0.2572
      2 N3         17.5210    0.0570   49.1460 N.pl3     1 3RQ        -0.2417
      3 C4         12.5830   -1.2200   51.1210 C.ar      1 3RQ         0.0425
      4 C5         11.3640   -1.1260   51.8280 C.ar      1 3RQ        -0.0383
      5 C6         11.3350   -1.3100   53.2260 C.ar      1 3RQ         0.0721
      6 C7         13.5310   -2.0160   56.1540 C.3       1 3RQ         0.0597
      7 C8         15.1050   -1.6430   51.1220 C.ar      1 3RQ         0.0503
      8 C10        17.4080   -4.5430   50.7030 C.3       1 3RQ        -0.0022
      9 C13        15.6180    0.7690   50.0590 C.2       1 3RQ         0.1092
     10 C15        14.5520    1.6520   50.4270 C.1       1 3RQ         0.0627
     11 C2         13.7680   -1.6870   53.2290 C.ar      1 3RQ        -0.0196
     12 C14        16.6970    1.1470   49.2930 C.2       1 3RQ         0.0797
     13 C12        15.7840   -0.6130   50.3960 C.ar      1 3RQ         0.0567
     14 C3         13.8200   -1.5110   51.8130 C.ar      1 3RQ         0.0064
     15 C1         12.5330   -1.5880   53.9620 C.ar      1 3RQ         0.1089
     16 C11        16.9940   -1.0140   49.8040 C.ar      1 3RQ         0.1525
     17 C9         16.8520   -3.1520   50.5750 C.ar      1 3RQ         0.0801
     18 N4         13.6860    2.3450   50.7550 N.1       1 3RQ        -0.3632
     19 N2         15.6670   -2.9090   51.1960 N.ar      1 3RQ        -0.2801
     20 O1         12.3870   -1.7390   55.3340 O.3       1 3RQ        -0.3195
     21 CL2        12.5000   -0.9690   49.4020 Cl        1 3RQ        -0.0762
     22 CL1         9.7980   -1.1840   53.9980 Cl        1 3RQ        -0.0753
     23 H1         18.4050    0.0504   48.6174 H         1 3RQ         0.2429
     24 H2         10.4458   -0.9113   51.2933 H         1 3RQ         0.0611
     25 H3         13.2170   -2.1010   57.2048 H         1 3RQ         0.0578
     26 H4         14.2603   -1.1986   56.0542 H         1 3RQ         0.0578
     27 H5         13.9930   -2.9609   55.8318 H         1 3RQ         0.0578
     28 H6         18.3624   -4.6078   50.1599 H         1 3RQ         0.0449
     29 H7         16.6943   -5.2638   50.2774 H         1 3RQ         0.0449
     30 H8         17.5742   -4.7752   51.7653 H         1 3RQ         0.0449
     31 H9         14.6843   -1.9012   53.7672 H         1 3RQ         0.0571
     32 H10        16.8682    2.1382   48.8756 H         1 3RQ         0.1232
@<TRIPOS>BOND
     1   16    1 ar 
     2    1   17 ar 
     3    2   12 1  
     4   16    2 1  
     5    4    3 ar 
     6   14    3 ar 
     7    3   21 1  
     8    5    4 ar 
     9   15    5 ar 
    10    5   22 1  
    11   20    6 1  
    12    7   13 ar 
    13   14    7 1  
    14    7   19 ar 
    15   17    8 1  
    16    9   10 1  
    17    9   12 2  
    18   13    9 1  
    19   10   18 3  
    20   11   14 ar 
    21   15   11 ar 
    22   13   16 ar 
    23   15   20 1  
    24   17   19 ar 
    25    2   23 1  
    26    4   24 1  
    27    6   25 1  
    28    6   26 1  
    29    6   27 1  
    30    8   28 1  
    31    8   29 1  
    32    8   30 1  
    33   11   31 1  
    34   12   32 1  
@<TRIPOS>SUBSTRUCTURE
     1 3RQ         1

