### 
### Created by X-TOOL on Mon Sep 10 21:13:06 2018
### 

@<TRIPOS>MOLECULE
3rlr_ligand
   35    37     1     0     0
SMALL
GAST_HUCK


@<TRIPOS>ATOM
      1 N1         17.4370   -1.9070   49.6060 N.ar      1 3RR        -0.2600
      2 N3         17.2740    0.3930   48.8600 N.pl3     1 3RR        -0.2348
      3 C4         15.5890   -0.3350   50.1480 C.ar      1 3RR         0.0488
      4 C5         15.3590    1.0360   49.7960 C.2       1 3RR         0.1071
      5 C6         16.4090    1.4600   48.9960 C.2       1 3RR         0.0986
      6 C7         17.3730   -4.1950   50.4820 C.3       1 3RR        -0.0034
      7 C8         13.6830   -1.2970   51.5960 C.ar      1 3RR         0.0041
      8 C10        11.2160   -1.0170   51.6170 C.ar      1 3RR        -0.0389
      9 C13        13.6450   -1.4550   53.0100 C.ar      1 3RR        -0.0205
     10 C15        14.2520    1.8660   50.1830 C.1       1 3RR         0.0484
     11 C12        12.4180   -1.4000   53.7460 C.ar      1 3RR         0.1083
     12 C9         12.4390   -1.0690   50.9070 C.ar      1 3RR         0.0416
     13 C11        11.2060   -1.1860   53.0220 C.ar      1 3RR         0.0715
     14 C2         14.9630   -1.3840   50.8970 C.ar      1 3RR         0.0458
     15 C3         16.8050   -0.6940   49.5440 C.ar      1 3RR         0.1489
     16 C1         16.7640   -2.8290   50.3480 C.ar      1 3RR         0.0773
     17 C16        16.6870    2.7640   48.3490 C.3       1 3RR         0.0125
     18 C14        13.4710   -1.7550   55.9190 C.3       1 3RR         0.0597
     19 N4         13.3650    2.5150   50.5400 N.1       1 3RR        -0.3768
     20 N2         15.5770   -2.6260   50.9800 N.ar      1 3RR        -0.2840
     21 O1         12.3000   -1.5410   55.1170 O.3       1 3RR        -0.3197
     22 CL2        12.3710   -0.8450   49.1780 Cl        1 3RR        -0.0768
     23 CL1         9.6740   -1.1240   53.8170 Cl        1 3RR        -0.0757
     24 H1         18.1502    0.4129   48.3189 H         1 3RR         0.2413
     25 H2         18.3234   -4.2286   49.9291 H         1 3RR         0.0445
     26 H3         16.6828   -4.9462   50.0705 H         1 3RR         0.0445
     27 H4         17.5591   -4.4109   51.5444 H         1 3RR         0.0445
     28 H5         10.2870   -0.8477   51.0847 H         1 3RR         0.0609
     29 H6         14.5725   -1.6219   53.5456 H         1 3RR         0.0566
     30 H7         15.8768    3.4700   48.5839 H         1 3RR         0.0507
     31 H8         16.7493    2.6268   47.2594 H         1 3RR         0.0507
     32 H9         17.6411    3.1632   48.7235 H         1 3RR         0.0507
     33 H10        13.1803   -1.8426   56.9763 H         1 3RR         0.0578
     34 H11        14.1592   -0.9056   55.7971 H         1 3RR         0.0578
     35 H12        13.9709   -2.6809   55.5983 H         1 3RR         0.0578
@<TRIPOS>BOND
     1   15    1 ar 
     2    1   16 ar 
     3    2    5 1  
     4   15    2 1  
     5    3    4 1  
     6   14    3 ar 
     7    3   15 ar 
     8    4    5 2  
     9    4   10 1  
    10    5   17 1  
    11   16    6 1  
    12    7    9 ar 
    13    7   12 ar 
    14    7   14 1  
    15   12    8 ar 
    16    8   13 ar 
    17    9   11 ar 
    18   10   19 3  
    19   11   13 ar 
    20   11   21 1  
    21   12   22 1  
    22   13   23 1  
    23   14   20 ar 
    24   16   20 ar 
    25   21   18 1  
    26    2   24 1  
    27    6   25 1  
    28    6   26 1  
    29    6   27 1  
    30    8   28 1  
    31    9   29 1  
    32   17   30 1  
    33   17   31 1  
    34   17   32 1  
    35   18   33 1  
    36   18   34 1  
    37   18   35 1  
@<TRIPOS>SUBSTRUCTURE
     1 3RR         1

