### 
### Created by X-TOOL on Mon Sep 10 21:13:06 2018
### 

@<TRIPOS>MOLECULE
3rm4_ligand
   42    44     1     0     0
SMALL
GAST_HUCK


@<TRIPOS>ATOM
      1 C1          3.0470    6.5870  -17.2210 C.ar      1 3RM        -0.0302
      2 N1          2.1510    2.0240  -16.7050 N.4       1 3RM         0.2399
      3 O1          2.8960    4.4680  -15.9680 O.3       1 3RM        -0.3107
      4 BR1         3.2210   10.5090  -15.8700 Br        1 3RM        -0.0600
      5 C2          3.1180    7.9870  -17.1700 C.ar      1 3RM        -0.0611
      6 N2         -0.1060    0.8090  -17.9640 N.pl3     1 3RM        -0.2883
      7 C3          3.1120    8.6180  -15.9260 C.ar      1 3RM         0.0012
      8 N3         -2.2280   -0.2840  -17.7070 N.2       1 3RM        -0.2202
      9 C4          3.0360    7.8820  -14.7380 C.ar      1 3RM        -0.0611
     10 N4         -3.3120   -0.6040  -18.4250 N.pl3     1 3RM        -0.1966
     11 C5          2.9630    6.4860  -14.7930 C.ar      1 3RM        -0.0302
     12 N5         -1.7840    0.5140  -19.6820 N.2       1 3RM        -0.2736
     13 C6          2.9640    5.8370  -16.0360 C.ar      1 3RM         0.0945
     14 N6         -3.7620   -0.1230  -20.7620 N.pl3     1 3RM        -0.2896
     15 C7          3.9200    3.7680  -16.6980 C.3       1 3RM         0.1108
     16 C8          3.6290    2.2810  -16.5190 C.3       1 3RM        -0.0032
     17 C9          1.6560    2.5630  -18.0370 C.3       1 3RM        -0.0117
     18 C10         0.2000    2.2100  -18.2760 C.3       1 3RM         0.0675
     19 C11         0.3960    0.2960  -16.6860 C.3       1 3RM         0.0675
     20 C12         1.8860    0.5380  -16.5560 C.3       1 3RM        -0.0117
     21 C13        -1.2980    0.3770  -18.4600 C.2       1 3RM         0.1323
     22 C14        -3.0130   -0.0930  -19.6350 C.2       1 3RM         0.2225
     23 H1          3.0562    6.0812  -18.1797 H         1 3RM         0.0549
     24 H2          1.6515    2.5070  -15.9747 H         1 3RM         0.2036
     25 H3          3.1766    8.5691  -18.0826 H         1 3RM         0.0615
     26 H4          3.0337    8.3907  -13.7808 H         1 3RM         0.0615
     27 H5         -4.1579   -1.1111  -18.1281 H         1 3RM         0.2449
     28 H6          2.9059    5.9080  -13.8778 H         1 3RM         0.0549
     29 H7         -3.4088    0.3109  -21.6268 H         1 3RM         0.1844
     30 H8         -4.6852   -0.5797  -20.7548 H         1 3RM         0.1844
     31 H9          4.9128    4.0137  -16.2930 H         1 3RM         0.0669
     32 H10         3.8814    4.0385  -17.7635 H         1 3RM         0.0669
     33 H11         4.1968    1.7052  -17.2647 H         1 3RM         0.0841
     34 H12         3.9298    1.9689  -15.5080 H         1 3RM         0.0841
     35 H13         2.2651    2.1318  -18.8451 H         1 3RM         0.0834
     36 H14         1.7632    3.6577  -18.0412 H         1 3RM         0.0834
     37 H15        -0.4263    2.8556  -17.6428 H         1 3RM         0.0565
     38 H16        -0.0366    2.3938  -19.3344 H         1 3RM         0.0565
     39 H17         0.2002   -0.7849  -16.6295 H         1 3RM         0.0565
     40 H18        -0.1252    0.8066  -15.8629 H         1 3RM         0.0565
     41 H19         2.2318    0.1973  -15.5689 H         1 3RM         0.0834
     42 H20         2.4209   -0.0143  -17.3427 H         1 3RM         0.0834
@<TRIPOS>BOND
     1    1    5 ar 
     2   13    1 ar 
     3    2   16 1  
     4   17    2 1  
     5    2   20 1  
     6    3   13 1  
     7   15    3 1  
     8    7    4 1  
     9    5    7 ar 
    10   18    6 1  
    11    6   19 1  
    12    6   21 1  
    13    9    7 ar 
    14    8   10 1  
    15   21    8 2  
    16   11    9 ar 
    17   22   10 1  
    18   13   11 ar 
    19   21   12 1  
    20   12   22 2  
    21   22   14 1  
    22   16   15 1  
    23   17   18 1  
    24   19   20 1  
    25    1   23 1  
    26    2   24 1  
    27    5   25 1  
    28    9   26 1  
    29   10   27 1  
    30   11   28 1  
    31   14   29 1  
    32   14   30 1  
    33   15   31 1  
    34   15   32 1  
    35   16   33 1  
    36   16   34 1  
    37   17   35 1  
    38   17   36 1  
    39   18   37 1  
    40   18   38 1  
    41   19   39 1  
    42   19   40 1  
    43   20   41 1  
    44   20   42 1  
@<TRIPOS>SUBSTRUCTURE
     1 3RM         1

