### 
### Created by X-TOOL on Mon Sep 10 21:13:07 2018
### 

@<TRIPOS>MOLECULE
3rm8_ligand
   46    49     1     0     0
SMALL
GAST_HUCK


@<TRIPOS>ATOM
      1 C1         -3.3040   48.6830   65.6950 C.3       1 RM8        -0.0122
      2 N1         -2.4920   51.0310   65.4590 N.pl3     1 RM8        -0.2817
      3 C2         -2.9440   50.0120   66.2630 C.2       1 RM8         0.0398
      4 N2         -2.3150   48.9360   69.5230 N.4       1 RM8         0.2429
      5 C3         -2.9630   50.4830   67.5680 C.2       1 RM8        -0.0047
      6 N3          0.1920   47.7880   70.1980 N.pl3     1 RM8        -0.2840
      7 C4         -2.5040   51.8420   67.5360 C.ar      1 RM8        -0.0271
      8 N4          1.9340   47.4580   71.8350 N.ar      1 RM8        -0.2853
      9 C5         -2.3130   52.8420   68.5190 C.ar      1 RM8        -0.0797
     10 C6         -1.8400   54.1080   68.1380 C.ar      1 RM8        -0.0830
     11 C7         -1.5640   54.3910   66.7990 C.ar      1 RM8        -0.0802
     12 C8         -1.7470   53.4170   65.8080 C.ar      1 RM8        -0.0483
     13 C9         -2.2220   52.1540   66.2040 C.ar      1 RM8         0.0560
     14 C10        -3.3840   49.7300   68.7880 C.3       1 RM8        -0.0198
     15 C11        -1.2040   49.8140   70.0760 C.3       1 RM8        -0.0107
     16 C12        -0.2740   48.9730   70.9410 C.3       1 RM8         0.0698
     17 C13        -0.8460   46.9220   69.6110 C.3       1 RM8         0.0698
     18 C14        -1.7960   47.7420   68.7430 C.3       1 RM8        -0.0107
     19 C15         1.4340   47.2360   70.5770 C.ar      1 RM8         0.1139
     20 C16         2.1810   46.4500   69.6790 C.ar      1 RM8        -0.0160
     21 C17         3.4080   45.9100   70.0750 C.ar      1 RM8        -0.0542
     22 C18         3.9020   46.1490   71.3490 C.ar      1 RM8        -0.0480
     23 C19         3.1300   46.9260   72.1900 C.ar      1 RM8        -0.0042
     24 H1         -3.6396   48.0173   66.5039 H         1 RM8         0.0408
     25 H2         -2.4243   48.2449   65.2008 H         1 RM8         0.0408
     26 H3         -4.1141   48.8052   64.9609 H         1 RM8         0.0408
     27 H4         -2.3721   50.9625   64.4383 H         1 RM8         0.2216
     28 H5         -2.7780   48.5469   70.3294 H         1 RM8         0.2040
     29 H6         -2.5306   52.6319   69.5599 H         1 RM8         0.0510
     30 H7         -1.6877   54.8730   68.8908 H         1 RM8         0.0500
     31 H8         -1.2040   55.3754   66.5227 H         1 RM8         0.0502
     32 H9         -1.5290   53.6307   64.7679 H         1 RM8         0.0531
     33 H10        -3.8007   50.4591   69.4985 H         1 RM8         0.0868
     34 H11        -4.1702   49.0230   68.4846 H         1 RM8         0.0868
     35 H12        -1.6416   50.6194   70.6842 H         1 RM8         0.0834
     36 H13        -0.6339   50.2517   69.2433 H         1 RM8         0.0834
     37 H14         0.5946   49.5805   71.2350 H         1 RM8         0.0573
     38 H15        -0.8145   48.6461   71.8415 H         1 RM8         0.0573
     39 H16        -1.4171   46.4421   70.4194 H         1 RM8         0.0573
     40 H17        -0.3660   46.1494   68.9924 H         1 RM8         0.0573
     41 H18        -1.2594   48.0958   67.8503 H         1 RM8         0.0834
     42 H19        -2.6435   47.1118   68.4356 H         1 RM8         0.0834
     43 H20         1.8044   46.2635   68.6798 H         1 RM8         0.0610
     44 H21         3.9770   45.3007   69.3822 H         1 RM8         0.0699
     45 H22         4.8541   45.7429   71.6709 H         1 RM8         0.0597
     46 H23         3.5006   47.1216   73.1897 H         1 RM8         0.0781
@<TRIPOS>BOND
     1    3    1 1  
     2    3    2 1  
     3   13    2 1  
     4    5    3 2  
     5    4   14 1  
     6   15    4 1  
     7    4   18 1  
     8    5    7 1  
     9   14    5 1  
    10   16    6 1  
    11    6   17 1  
    12    6   19 1  
    13    7    9 ar 
    14    7   13 ar 
    15   19    8 ar 
    16    8   23 ar 
    17    9   10 ar 
    18   10   11 ar 
    19   12   11 ar 
    20   13   12 ar 
    21   15   16 1  
    22   17   18 1  
    23   19   20 ar 
    24   20   21 ar 
    25   21   22 ar 
    26   22   23 ar 
    27    1   24 1  
    28    1   25 1  
    29    1   26 1  
    30    2   27 1  
    31    4   28 1  
    32    9   29 1  
    33   10   30 1  
    34   11   31 1  
    35   12   32 1  
    36   14   33 1  
    37   14   34 1  
    38   15   35 1  
    39   15   36 1  
    40   16   37 1  
    41   16   38 1  
    42   17   39 1  
    43   17   40 1  
    44   18   41 1  
    45   18   42 1  
    46   20   43 1  
    47   21   44 1  
    48   22   45 1  
    49   23   46 1  
@<TRIPOS>SUBSTRUCTURE
     1 RM8         1

