### 
### Created by X-TOOL on Mon Sep 10 21:13:07 2018
### 

@<TRIPOS>MOLECULE
3rm9_ligand
   32    33     1     0     0
SMALL
GAST_HUCK


@<TRIPOS>ATOM
      1 C1         33.7470   -7.2880    3.4640 C.ar      1 613        -0.0436
      2 N1         33.9840   -5.5510    5.1930 N.pl3     1 613        -0.3019
      3 CL1        33.6870  -11.2930    3.5750 Cl        1 613        -0.0830
      4 C2         33.6740   -8.6330    3.0710 C.ar      1 613        -0.0597
      5 N2         33.8640   -2.7650    5.8930 N.pl3     1 613        -0.2559
      6 C3         33.7700   -9.6350    4.0350 C.ar      1 613         0.0261
      7 N3         33.8330   -0.3270    5.5670 N.pl3     1 613        -0.2847
      8 C4         33.9390   -9.2950    5.3740 C.ar      1 613        -0.0597
      9 N4         31.9020   -1.3750    6.4540 N.pl3     1 613        -0.2847
     10 C5         34.0120   -7.9450    5.7550 C.ar      1 613        -0.0436
     11 C6         33.9240   -6.8930    4.8150 C.ar      1 613         0.0409
     12 C7         33.1150   -5.1070    6.2970 C.3       1 613         0.0601
     13 C8         33.6110   -3.8120    6.9330 C.3       1 613         0.0845
     14 C9         34.6960   -3.2100    4.7310 C.3       1 613         0.0845
     15 C10        34.1820   -4.5290    4.1440 C.3       1 613         0.0601
     16 C11        33.1780   -1.5180    5.8940 C.cat     1 613         0.2904
     17 H1         33.6648   -6.5193    2.7042 H         1 613         0.0516
     18 H2         33.5440   -8.8907    2.0261 H         1 613         0.0589
     19 H3         33.3161    0.5639    5.5744 H         1 613         0.2615
     20 H4         34.8325   -0.3404    5.3186 H         1 613         0.2615
     21 H5         34.0144  -10.0736    6.1244 H         1 613         0.0589
     22 H6         31.3598   -2.2094    6.7199 H         1 613         0.2615
     23 H7         31.5059   -0.4354    6.5998 H         1 613         0.2615
     24 H8         34.1399   -7.7021    6.8037 H         1 613         0.0516
     25 H9         33.0895   -5.8928    7.0663 H         1 613         0.0549
     26 H10        32.1000   -4.9438    5.9058 H         1 613         0.0549
     27 H11        32.8507   -3.4431    7.6371 H         1 613         0.0710
     28 H12        34.5464   -4.0132    7.4756 H         1 613         0.0710
     29 H13        35.7341   -3.3490    5.0672 H         1 613         0.0710
     30 H14        34.6638   -2.4352    3.9509 H         1 613         0.0710
     31 H15        33.2221   -4.3450    3.6392 H         1 613         0.0549
     32 H16        34.9143   -4.9041    3.4139 H         1 613         0.0549
@<TRIPOS>BOND
     1    1    4 ar 
     2   11    1 ar 
     3    2   11 1  
     4   12    2 1  
     5    2   15 1  
     6    6    3 1  
     7    4    6 ar 
     8   13    5 1  
     9    5   14 1  
    10    5   16 ar 
    11    8    6 ar 
    12   16    7 ar 
    13   10    8 ar 
    14   16    9 ar 
    15   11   10 ar 
    16   12   13 1  
    17   14   15 1  
    18    1   17 1  
    19    4   18 1  
    20    7   19 1  
    21    7   20 1  
    22    8   21 1  
    23    9   22 1  
    24    9   23 1  
    25   10   24 1  
    26   12   25 1  
    27   12   26 1  
    28   13   27 1  
    29   13   28 1  
    30   14   29 1  
    31   14   30 1  
    32   15   31 1  
    33   15   32 1  
@<TRIPOS>SUBSTRUCTURE
     1 613         1

