### 
### Created by X-TOOL on Mon Sep 10 21:13:06 2018
### 

@<TRIPOS>MOLECULE
3rme_ligand
   39    40     1     0     0
SMALL
GAST_HUCK


@<TRIPOS>ATOM
      1 C1          0.9820   49.5790   65.7470 C.3       1 RME        -0.0449
      2 N1          1.3740   48.0200   67.6120 N.am      1 RME        -0.2876
      3 O1          1.8610   45.7550   67.5550 O.2       1 RME        -0.3890
      4 C2          1.0000   48.1340   66.2110 C.3       1 RME         0.0273
      5 N2          1.7620   47.4580   71.9170 N.ar      1 RME        -0.2785
      6 C3          1.7740   46.8170   68.1680 C.2       1 RME         0.2047
      7 N3          0.1110   48.1440   70.3280 N.pl3     1 RME        -0.2797
      8 C4          2.1270   46.8570   69.6150 C.ar      1 RME         0.0949
      9 N4         -2.4260   49.3510   69.9240 N.4       1 RME         0.2360
     10 C5          3.3280   46.2230   69.9870 C.ar      1 RME        -0.0342
     11 C6          3.7350   46.2090   71.3160 C.ar      1 RME        -0.0424
     12 C7          2.9230   46.8370   72.2360 C.ar      1 RME         0.0004
     13 C8          1.3320   47.4850   70.6160 C.ar      1 RME         0.1353
     14 C9         -1.0000   47.3350   69.8090 C.3       1 RME         0.0713
     15 C10        -1.9370   48.2420   69.0120 C.3       1 RME        -0.0112
     16 C11        -1.2910   50.1550   70.5250 C.3       1 RME        -0.0112
     17 C12        -0.3050   49.2310   71.2350 C.3       1 RME         0.0713
     18 C13        -3.4040   50.2490   69.2190 C.3       1 RME        -0.0429
     19 H1          0.6953   49.6198   64.6858 H         1 RME         0.0249
     20 H2          1.9830   50.0172   65.8734 H         1 RME         0.0249
     21 H3          0.2547   50.1472   66.3454 H         1 RME         0.0249
     22 H4          1.3412   48.8349   68.1907 H         1 RME         0.1841
     23 H5          1.7252   47.5738   65.6025 H         1 RME         0.0516
     24 H6         -0.0031   47.7039   66.0744 H         1 RME         0.0516
     25 H7         -2.9161   48.9117   70.6874 H         1 RME         0.2032
     26 H8          3.9394   45.7425   69.2317 H         1 RME         0.0751
     27 H9          4.6558   45.7228   71.6174 H         1 RME         0.0609
     28 H10         3.2314   46.8338   73.2752 H         1 RME         0.0817
     29 H11        -1.5492   46.8801   70.6465 H         1 RME         0.0576
     30 H12        -0.6069   46.5429   69.1548 H         1 RME         0.0576
     31 H13        -1.3958   48.6756   68.1581 H         1 RME         0.0835
     32 H14        -2.7943   47.6586   68.6449 H         1 RME         0.0835
     33 H15        -1.7000   50.8746   71.2495 H         1 RME         0.0835
     34 H16        -0.7673   50.6980   69.7245 H         1 RME         0.0835
     35 H17         0.5797   49.8086   71.5411 H         1 RME         0.0576
     36 H18        -0.7867   48.7989   72.1245 H         1 RME         0.0576
     37 H19        -4.2166   49.6427   68.7923 H         1 RME         0.0778
     38 H20        -2.8886   50.7910   68.4124 H         1 RME         0.0778
     39 H21        -3.8225   50.9703   69.9364 H         1 RME         0.0778
@<TRIPOS>BOND
     1    4    1 1  
     2    2    4 1  
     3    6    2 am 
     4    6    3 2  
     5    5   12 ar 
     6   13    5 ar 
     7    8    6 1  
     8    7   13 1  
     9   14    7 1  
    10    7   17 1  
    11    8   10 ar 
    12   13    8 ar 
    13   15    9 1  
    14    9   16 1  
    15    9   18 1  
    16   10   11 ar 
    17   12   11 ar 
    18   14   15 1  
    19   16   17 1  
    20    1   19 1  
    21    1   20 1  
    22    1   21 1  
    23    2   22 1  
    24    4   23 1  
    25    4   24 1  
    26    9   25 1  
    27   10   26 1  
    28   11   27 1  
    29   12   28 1  
    30   14   29 1  
    31   14   30 1  
    32   15   31 1  
    33   15   32 1  
    34   16   33 1  
    35   16   34 1  
    36   17   35 1  
    37   17   36 1  
    38   18   37 1  
    39   18   38 1  
    40   18   39 1  
@<TRIPOS>SUBSTRUCTURE
     1 RME         1

