### 
### Created by X-TOOL on Mon Sep 10 21:13:10 2018
### 

@<TRIPOS>MOLECULE
3rmf_ligand
   45    48     1     0     0
SMALL
GAST_HUCK


@<TRIPOS>ATOM
      1 N01        92.3330   81.9310  -51.0810 N.2       1 20Z        -0.2715
      2 N02        91.1190   82.5390  -49.2630 N.pl3     1 20Z        -0.2327
      3 N03        93.8170   81.0600  -52.6350 N.pl3     1 20Z        -0.3317
      4 N04        88.3440   80.8850  -43.3450 N.am      1 20Z        -0.2621
      5 C05        94.0050   80.4030  -50.3860 C.2       1 20Z         0.0922
      6 C06        93.4110   81.1250  -51.4310 C.2       1 20Z         0.0846
      7 C07        92.0940   81.8390  -49.7920 C.2       1 20Z         0.2037
      8 C08        90.3810   82.3010  -48.2160 C.ar      1 20Z         0.0701
      9 C09        95.1050   79.5260  -50.4940 C.2       1 20Z         0.1297
     10 C10        95.6260   78.8680  -49.3830 C.ar      1 20Z         0.0238
     11 C11        97.0330   78.9310  -49.1190 C.ar      1 20Z        -0.0461
     12 C12        97.5860   78.2770  -47.9830 C.ar      1 20Z        -0.0511
     13 C13        96.7540   77.5440  -47.0780 C.ar      1 20Z        -0.0153
     14 C14        95.3230   77.4670  -47.3340 C.ar      1 20Z        -0.0120
     15 C15        94.7820   78.1280  -48.4840 C.ar      1 20Z        -0.0359
     16 C16        89.3060   83.2070  -47.9660 C.ar      1 20Z        -0.0354
     17 C17        88.4520   83.0260  -46.8570 C.ar      1 20Z        -0.0445
     18 C18        88.6540   81.9350  -45.9700 C.ar      1 20Z         0.0965
     19 C19        89.7210   81.0190  -46.1950 C.ar      1 20Z        -0.0445
     20 C20        90.5810   81.1970  -47.3070 C.ar      1 20Z        -0.0354
     21 C21        97.2920   76.8860  -45.9240 C.ar      1 20Z        -0.0525
     22 C22        96.4420   76.1640  -45.0350 C.ar      1 20Z        -0.0599
     23 C23        95.0460   76.0880  -45.2880 C.ar      1 20Z        -0.0597
     24 C24        94.4900   76.7350  -46.4290 C.ar      1 20Z        -0.0518
     25 O25        95.6420   79.3590  -51.5800 O.2       1 20Z        -0.4027
     26 O26        86.4360   80.9060  -45.0360 O.2       1 20Z        -0.1519
     27 O27        87.0760   82.9980  -44.1050 O.2       1 20Z        -0.1519
     28 S28        93.1570   80.7740  -48.9260 S.3       1 20Z         0.0099
     29 S29        87.5530   81.7090  -44.5850 S.o2      1 20Z         0.0609
     30 H1         90.9020   83.4180  -49.7542 H         1 20Z         0.2243
     31 H2         94.6169   80.4580  -52.8770 H         1 20Z         0.1746
     32 H3         93.3458   81.6094  -53.3678 H         1 20Z         0.1746
     33 H4         87.8608   80.6786  -42.4942 H         1 20Z         0.1633
     34 H5         89.2964   80.6027  -43.4603 H         1 20Z         0.1633
     35 H6         97.6816   79.4817  -49.7906 H         1 20Z         0.0649
     36 H7         98.6529   78.3347  -47.8002 H         1 20Z         0.0626
     37 H8         93.7175   78.0694  -48.6801 H         1 20Z         0.0690
     38 H9         89.1439   84.0437  -48.6359 H         1 20Z         0.0540
     39 H10        87.6394   83.7217  -46.6816 H         1 20Z         0.0607
     40 H11        89.8749   80.1873  -45.5170 H         1 20Z         0.0607
     41 H12        91.3939   80.5002  -47.4763 H         1 20Z         0.0540
     42 H13        98.3563   76.9376  -45.7247 H         1 20Z         0.0626
     43 H14        96.8618   75.6724  -44.1648 H         1 20Z         0.0629
     44 H15        94.4028   75.5367  -44.6116 H         1 20Z         0.0622
     45 H16        93.4237   76.6722  -46.6139 H         1 20Z         0.0635
@<TRIPOS>BOND
     1    1    6 1  
     2    7    1 2  
     3    2    7 1  
     4    8    2 1  
     5    6    3 1  
     6   29    4 am 
     7    5    6 2  
     8    5    9 1  
     9   28    5 1  
    10    7   28 1  
    11   16    8 ar 
    12    8   20 ar 
    13    9   10 1  
    14    9   25 2  
    15   10   11 ar 
    16   10   15 ar 
    17   11   12 ar 
    18   12   13 ar 
    19   14   13 ar 
    20   13   21 ar 
    21   15   14 ar 
    22   14   24 ar 
    23   17   16 ar 
    24   18   17 ar 
    25   18   19 ar 
    26   18   29 1  
    27   19   20 ar 
    28   21   22 ar 
    29   22   23 ar 
    30   23   24 ar 
    31   29   26 2  
    32   29   27 2  
    33    2   30 1  
    34    3   31 1  
    35    3   32 1  
    36    4   33 1  
    37    4   34 1  
    38   11   35 1  
    39   12   36 1  
    40   15   37 1  
    41   16   38 1  
    42   17   39 1  
    43   19   40 1  
    44   20   41 1  
    45   21   42 1  
    46   22   43 1  
    47   23   44 1  
    48   24   45 1  
@<TRIPOS>SUBSTRUCTURE
     1 20Z         1

