### 
### Created by X-TOOL on Mon Sep 10 21:13:11 2018
### 

@<TRIPOS>MOLECULE
3rni_ligand
   39    41     1     0     0
SMALL
GAST_HUCK


@<TRIPOS>ATOM
      1 N01       -38.4130  118.2670   86.0070 N.2       1 21Z        -0.2715
      2 N02       -37.1470  118.7870   84.1970 N.pl3     1 21Z        -0.2326
      3 N03       -39.9700  117.4340   87.5180 N.pl3     1 21Z        -0.3317
      4 N04       -34.6300  122.4010   81.6300 N.am      1 21Z        -0.2611
      5 C05       -40.1260  116.8060   85.2660 C.2       1 21Z         0.0923
      6 C06       -39.5310  117.5010   86.3280 C.2       1 21Z         0.0846
      7 C07       -38.1560  118.1610   84.7150 C.2       1 21Z         0.2037
      8 C08       -41.2450  115.9660   85.3540 C.2       1 21Z         0.1300
      9 C09       -36.6380  118.6570   83.0000 C.ar      1 21Z         0.0718
     10 C10       -41.5970  115.1100   84.3160 C.ar      1 21Z         0.0233
     11 C11       -35.9690  119.7800   82.4490 C.ar      1 21Z        -0.0107
     12 C12       -35.3880  119.7170   81.1620 C.ar      1 21Z         0.0989
     13 C13       -35.4650  118.5260   80.3910 C.ar      1 21Z        -0.0465
     14 C14       -36.1270  117.3810   80.9200 C.ar      1 21Z        -0.0692
     15 C15       -36.7100  117.4430   82.2210 C.ar      1 21Z        -0.0371
     16 C16       -40.6500  114.1880   83.7570 C.ar      1 21Z        -0.0450
     17 C17       -41.0310  113.3230   82.6930 C.ar      1 21Z        -0.0566
     18 C18       -42.3510  113.3660   82.1800 C.ar      1 21Z        -0.0578
     19 C19       -43.3000  114.2710   82.7270 C.ar      1 21Z        -0.0566
     20 C20       -42.9250  115.1410   83.7910 C.ar      1 21Z        -0.0450
     21 O21       -41.9250  115.9710   86.3700 O.2       1 21Z        -0.4023
     22 O22       -33.1580  120.7970   80.2760 O.2       1 21Z        -0.1507
     23 O23       -35.1860  121.5330   79.2490 O.2       1 21Z        -0.1507
     24 S24       -39.2490  117.1460   83.8280 S.3       1 21Z         0.0099
     25 S25       -34.5530  121.1460   80.5080 S.o2      1 21Z         0.0634
     26 H1        -36.6860  119.4766   84.8076 H         1 21Z         0.2243
     27 H2        -40.7989  116.8603   87.7296 H         1 21Z         0.1746
     28 H3        -39.4971  117.9534   88.2714 H         1 21Z         0.1746
     29 H4        -34.2082  123.2836   81.4226 H         1 21Z         0.1635
     30 H5        -35.0975  122.2631   82.5032 H         1 21Z         0.1635
     31 H6        -35.9025  120.6978   83.0220 H         1 21Z         0.0559
     32 H7        -35.0211  118.4888   79.4028 H         1 21Z         0.0541
     33 H8        -36.1875  116.4685   80.3380 H         1 21Z         0.0589
     34 H9        -37.2109  116.5720   82.6278 H         1 21Z         0.0540
     35 H10       -39.6393  114.1502   84.1471 H         1 21Z         0.0665
     36 H11       -40.3101  112.6301   82.2744 H         1 21Z         0.0628
     37 H12       -42.6375  112.7070   81.3684 H         1 21Z         0.0651
     38 H13       -44.3100  114.2995   82.3345 H         1 21Z         0.0628
     39 H14       -43.6519  115.8306   84.2046 H         1 21Z         0.0665
@<TRIPOS>BOND
     1    1    6 1  
     2    7    1 2  
     3    2    7 1  
     4    9    2 1  
     5    6    3 1  
     6   25    4 am 
     7    5    6 2  
     8    5    8 1  
     9   24    5 1  
    10    7   24 1  
    11    8   10 1  
    12    8   21 2  
    13   11    9 ar 
    14    9   15 ar 
    15   10   16 ar 
    16   10   20 ar 
    17   12   11 ar 
    18   12   13 ar 
    19   12   25 1  
    20   13   14 ar 
    21   14   15 ar 
    22   16   17 ar 
    23   17   18 ar 
    24   18   19 ar 
    25   19   20 ar 
    26   25   22 2  
    27   25   23 2  
    28    2   26 1  
    29    3   27 1  
    30    3   28 1  
    31    4   29 1  
    32    4   30 1  
    33   11   31 1  
    34   13   32 1  
    35   14   33 1  
    36   15   34 1  
    37   16   35 1  
    38   17   36 1  
    39   18   37 1  
    40   19   38 1  
    41   20   39 1  
@<TRIPOS>SUBSTRUCTURE
     1 21Z         1

