### 
### Created by X-TOOL on Mon Sep 10 21:13:08 2018
### 

@<TRIPOS>MOLECULE
3ro4_ligand
   50    54     1     0     0
SMALL
GAST_HUCK


@<TRIPOS>ATOM
      1 C01        -3.0550   -1.1770   14.9330 C.3       1 LJ9        -0.0552
      2 C02        -2.5950   -0.2820   16.0660 C.3       1 LJ9        -0.0142
      3 C03        -3.2710   -0.6370   17.3350 C.2       1 LJ9         0.0292
      4 N04        -3.2020   -1.8140   17.9670 N.2       1 LJ9        -0.2100
      5 N05        -4.0530   -1.7250   19.0450 N.pl3     1 LJ9        -0.1713
      6 C06        -4.7530   -0.5080   19.0580 C.ar      1 LJ9         0.0922
      7 C07        -5.7230    0.0290   19.9160 C.ar      1 LJ9        -0.0171
      8 C08        -6.1670    1.3200   19.6600 C.ar      1 LJ9         0.0334
      9 C09        -5.6530    2.0670   18.5530 C.ar      1 LJ9        -0.0502
     10 C10        -4.6990    1.5270   17.7220 C.ar      1 LJ9        -0.0695
     11 C11        -4.2370    0.2460   17.9650 C.ar      1 LJ9         0.0084
     12 N12        -7.2030    1.8440   20.5260 N.pl3     1 LJ9        -0.3095
     13 C13        -8.0690    3.0280   20.2160 C.3       1 LJ9         0.0349
     14 C14        -9.2820    2.8920   21.1650 C.3       1 LJ9         0.0282
     15 C15        -9.1870    3.7230   22.4590 C.3       1 LJ9        -0.0284
     16 N16        -9.0090    2.7510   23.5660 N.4       1 LJ9         0.2275
     17 C17        -9.6220    1.4770   23.1320 C.3       1 LJ9        -0.0284
     18 C18        -9.3480    1.4180   21.6220 C.3       1 LJ9         0.0282
     19 C19        -7.9730    0.8120   21.2950 C.3       1 LJ9         0.0349
     20 C20        -4.3130   -2.8350   19.9380 C.ar      1 LJ9         0.0992
     21 C21        -4.5320   -4.0940   19.3900 C.ar      1 LJ9        -0.0302
     22 C22        -4.8650   -5.1560   20.2310 C.ar      1 LJ9        -0.0685
     23 C23        -4.9810   -4.9660   21.6000 C.ar      1 LJ9        -0.0710
     24 C24        -4.7710   -3.7030   22.1340 C.ar      1 LJ9        -0.0685
     25 C25        -4.4420   -2.6290   21.3100 C.ar      1 LJ9        -0.0302
     26 H          -2.8226   -2.2143   15.1739 H         1 LJ9         0.0251
     27 H          -4.1309   -1.0662   14.7981 H         1 LJ9         0.0251
     28 H          -2.5412   -0.8919   14.0150 H         1 LJ9         0.0251
     29 H          -2.8413    0.7502   15.8168 H         1 LJ9         0.0423
     30 H          -1.5203   -0.4091   16.1962 H         1 LJ9         0.0423
     31 H          -6.1150   -0.5464   20.7546 H         1 LJ9         0.0435
     32 H          -6.0217    3.0756   18.3661 H         1 LJ9         0.0465
     33 H          -4.3113    2.1022   16.8812 H         1 LJ9         0.0584
     34 H          -8.3733    3.0443   19.1695 H         1 LJ9         0.0519
     35 H          -7.5391    3.9683   20.3681 H         1 LJ9         0.0519
     36 H         -10.1471    3.2441   20.6031 H         1 LJ9         0.0377
     37 H         -10.0843    4.3242   22.6056 H         1 LJ9         0.0817
     38 H          -8.3532    4.4237   22.4146 H         1 LJ9         0.0817
     39 H          -9.4539    3.0917   24.4183 H         1 LJ9         0.2014
     40 H          -8.0190    2.6208   23.7740 H         1 LJ9         0.2014
     41 H         -10.6877    1.4371   23.3572 H         1 LJ9         0.0817
     42 H          -9.2025    0.6198   23.6586 H         1 LJ9         0.0817
     43 H         -10.1159    0.8119   21.1414 H         1 LJ9         0.0377
     44 H          -7.4453    0.5433   22.2101 H         1 LJ9         0.0519
     45 H          -8.0857   -0.0989   20.7070 H         1 LJ9         0.0519
     46 H          -4.4444   -4.2495   18.3147 H         1 LJ9         0.0564
     47 H          -5.0359   -6.1458   19.8077 H         1 LJ9         0.0594
     48 H          -5.2351   -5.8024   22.2511 H         1 LJ9         0.0539
     49 H          -4.8644   -3.5494   23.2091 H         1 LJ9         0.0594
     50 H          -4.2870   -1.6371   21.7345 H         1 LJ9         0.0564
@<TRIPOS>BOND
     1    1    2 1  
     2    2    3 1  
     3    3    4 2  
     4    3   11 1  
     5    4    5 1  
     6    5    6 1  
     7    5   20 1  
     8    6    7 ar 
     9    6   11 ar 
    10    7    8 ar 
    11    8    9 ar 
    12    8   12 1  
    13    9   10 ar 
    14   10   11 ar 
    15   12   13 1  
    16   12   19 1  
    17   13   14 1  
    18   14   15 1  
    19   14   18 1  
    20   15   16 1  
    21   16   17 1  
    22   17   18 1  
    23   18   19 1  
    24   20   21 ar 
    25   20   25 ar 
    26   21   22 ar 
    27   22   23 ar 
    28   23   24 ar 
    29   24   25 ar 
    30    1   26 1  
    31    1   27 1  
    32    1   28 1  
    33    2   29 1  
    34    2   30 1  
    35    7   31 1  
    36    9   32 1  
    37   10   33 1  
    38   13   34 1  
    39   13   35 1  
    40   14   36 1  
    41   15   37 1  
    42   15   38 1  
    43   16   39 1  
    44   16   40 1  
    45   17   41 1  
    46   17   42 1  
    47   18   43 1  
    48   19   44 1  
    49   19   45 1  
    50   21   46 1  
    51   22   47 1  
    52   23   48 1  
    53   24   49 1  
    54   25   50 1  
@<TRIPOS>SUBSTRUCTURE
     1 LJ9         1

