### 
### Created by X-TOOL on Mon Sep 10 21:13:08 2018
### 

@<TRIPOS>MOLECULE
3roc_ligand
   49    51     1     0     0
SMALL
GAST_HUCK


@<TRIPOS>ATOM
      1 C1         36.8870   36.7870   18.1310 C.ar      1 29A         0.0181
      2 C2         38.2200   37.1920   17.9860 C.ar      1 29A         0.1342
      3 C3         38.7510   37.4070   16.7260 C.ar      1 29A        -0.0014
      4 C4         37.9560   37.2110   15.6040 C.ar      1 29A         0.1231
      5 C5         36.6310   36.7870   15.7400 C.ar      1 29A        -0.0389
      6 C6         36.1010   36.5780   17.0020 C.ar      1 29A        -0.0610
      7 C7         36.2810   36.6050   19.5050 C.3       1 29A         0.1099
      8 O8         35.7810   37.9510   19.9070 O.3       1 29A        -0.2865
      9 C9         35.4370   38.2350   21.1970 C.2       1 29A         0.1602
     10 C10        35.1970   39.5500   21.5660 C.2       1 29A         0.1254
     11 C11        34.8120   39.8480   23.0070 C.2       1 29A         0.2281
     12 N12        34.7280   38.7530   23.8450 N.am      1 29A        -0.1437
     13 C13        35.0240   37.3930   23.2710 C.2       1 29A         0.1577
     14 N14        35.3470   37.2420   22.0290 N.2       1 29A        -0.2452
     15 C15        34.3650   38.8340   25.2370 C.ar      1 29A         0.1216
     16 C16        33.1060   38.3730   25.7090 C.ar      1 29A        -0.0057
     17 C17        32.8080   38.4620   27.0650 C.ar      1 29A        -0.0613
     18 C18        33.7310   39.0160   27.9400 C.ar      1 29A        -0.0584
     19 C19        34.9860   39.4880   27.4900 C.ar      1 29A         0.0356
     20 C20        35.2770   39.3840   26.1350 C.ar      1 29A        -0.0138
     21 F21        38.9780   37.3920   19.0810 F         1 29A        -0.1900
     22 F22        38.4470   37.4370   14.3820 F         1 29A        -0.1903
     23 CL23       35.3180   40.8440   20.4400 Cl        1 29A        -0.1068
     24 O24        34.5910   41.0350   23.3560 O.2       1 29A        -0.4130
     25 C25        31.9470   37.9380   24.7980 C.3       1 29A        -0.0295
     26 C26        35.9450   40.0840   28.4960 C.2       1 29A         0.1978
     27 O27        36.8810   40.7910   28.1070 O.2       1 29A        -0.3878
     28 N28        35.7400   39.8540   29.8120 N.am      1 29A        -0.2850
     29 C29        36.6350   39.0280   30.6490 C.3       1 29A         0.0534
     30 C30        36.0680   37.6100   30.8450 C.3       1 29A         0.0642
     31 O31        34.6420   37.6370   30.8830 O.3       1 29A        -0.3930
     32 H1         39.7810   37.7264   16.6155 H         1 29A         0.0572
     33 H2         36.0200   36.6223   14.8599 H         1 29A         0.0552
     34 H3         35.0731   36.2514   17.1105 H         1 29A         0.0537
     35 H4         37.0419   36.2505   20.2159 H         1 29A         0.0775
     36 H5         35.4514   35.8837   19.4658 H         1 29A         0.0775
     37 H6         34.9646   36.5178   23.9163 H         1 29A         0.1582
     38 H7         31.8566   38.0992   27.4370 H         1 29A         0.0542
     39 H8         33.4846   39.0888   28.9931 H         1 29A         0.0568
     40 H9         36.2339   39.7384   25.7692 H         1 29A         0.0589
     41 H10        32.2942   37.9021   23.7548 H         1 29A         0.0384
     42 H11        31.1214   38.6597   24.8850 H         1 29A         0.0384
     43 H12        31.5959   36.9409   25.1021 H         1 29A         0.0384
     44 H13        34.9375   40.2660   30.2436 H         1 29A         0.1843
     45 H14        36.7490   39.5072   31.6325 H         1 29A         0.0542
     46 H15        37.6177   38.9563   30.1599 H         1 29A         0.0542
     47 H16        36.4465   37.1976   31.7919 H         1 29A         0.0577
     48 H17        36.3948   36.9721   30.0106 H         1 29A         0.0577
     49 H18        34.3128   36.7542   31.0043 H         1 29A         0.2095
@<TRIPOS>BOND
     1    1    2 ar 
     2    1    6 ar 
     3    1    7 1  
     4    2    3 ar 
     5    2   21 1  
     6    3    4 ar 
     7    4    5 ar 
     8    4   22 1  
     9    5    6 ar 
    10    7    8 1  
    11    8    9 1  
    12    9   10 2  
    13    9   14 1  
    14   10   11 1  
    15   10   23 1  
    16   11   12 am 
    17   11   24 2  
    18   12   13 1  
    19   12   15 1  
    20   13   14 2  
    21   15   16 ar 
    22   15   20 ar 
    23   16   17 ar 
    24   16   25 1  
    25   17   18 ar 
    26   18   19 ar 
    27   19   20 ar 
    28   19   26 1  
    29   26   27 2  
    30   26   28 am 
    31   28   29 1  
    32   29   30 1  
    33   30   31 1  
    34    3   32 1  
    35    5   33 1  
    36    6   34 1  
    37    7   35 1  
    38    7   36 1  
    39   13   37 1  
    40   17   38 1  
    41   18   39 1  
    42   20   40 1  
    43   25   41 1  
    44   25   42 1  
    45   25   43 1  
    46   28   44 1  
    47   29   45 1  
    48   29   46 1  
    49   30   47 1  
    50   30   48 1  
    51   31   49 1  
@<TRIPOS>SUBSTRUCTURE
     1 29A         1

