### 
### Created by X-TOOL on Mon Sep 10 21:13:10 2018
### 

@<TRIPOS>MOLECULE
3rpr_ligand
   39    41     1     0     0
SMALL
GAST_HUCK


@<TRIPOS>ATOM
      1 C1         94.6830   76.9970  -46.1040 C.ar      1 25Z        -0.0378
      2 F1         94.3210   80.5000  -44.9690 F         1 25Z        -0.2204
      3 N1         91.7310   81.8290  -51.1100 N.2       1 25Z        -0.3022
      4 O1         94.6530   78.6890  -50.9240 O.3       1 25Z        -0.3722
      5 S1         91.9550   80.7390  -48.7840 S.3       1 25Z         0.0022
      6 C2         94.5210   78.4510  -46.0640 C.ar      1 25Z         0.0409
      7 F2         95.8610   79.0400  -44.2760 F         1 25Z        -0.2204
      8 N2         90.2250   82.6940  -49.5230 N.pl3     1 25Z        -0.2419
      9 C3         94.2870   79.1340  -47.3360 C.ar      1 25Z        -0.0275
     10 F3         93.6900   78.6190  -43.9010 F         1 25Z        -0.2204
     11 N3         93.3680   80.6960  -52.4050 N.pl3     1 25Z        -0.3518
     12 C4         94.2100   78.4180  -48.6160 C.ar      1 25Z         0.0198
     13 C5         94.3830   76.9580  -48.5820 C.ar      1 25Z        -0.0282
     14 C6         94.6150   76.2680  -47.3420 C.ar      1 25Z        -0.0378
     15 C7         94.5970   79.1460  -44.8120 C.3       1 25Z         0.3750
     16 C8         93.9820   79.0870  -49.8260 C.3       1 25Z         0.1216
     17 C9         92.9660   80.2040  -50.0400 C.2       1 25Z         0.0590
     18 C10        91.2210   81.8540  -49.8470 C.2       1 25Z         0.1880
     19 C11        92.7160   80.9050  -51.2260 C.2       1 25Z         0.0542
     20 C12        89.4160   82.7100  -48.3620 C.ar      1 25Z         0.0661
     21 C13        89.0970   81.5380  -47.5090 C.ar      1 25Z        -0.0383
     22 C14        88.2600   81.6700  -46.3380 C.ar      1 25Z        -0.0717
     23 C15        87.7230   82.9580  -45.9880 C.ar      1 25Z        -0.0736
     24 C16        88.0120   84.1100  -46.7970 C.ar      1 25Z        -0.0717
     25 C17        88.8480   83.9870  -47.9670 C.ar      1 25Z        -0.0383
     26 H1         94.8581   76.4576  -45.1802 H         1 25Z         0.0801
     27 H2         94.3984   79.2295  -51.6626 H         1 25Z         0.2152
     28 H3         90.0215   83.4287  -50.2156 H         1 25Z         0.2193
     29 H4         94.1656   80.2112  -47.3339 H         1 25Z         0.0780
     30 H5         94.1126   79.9867  -52.4630 H         1 25Z         0.1623
     31 H6         93.1160   81.2474  -53.2377 H         1 25Z         0.1623
     32 H7         94.3349   76.3933  -49.5060 H         1 25Z         0.0804
     33 H8         94.7395   75.1912  -47.3402 H         1 25Z         0.0682
     34 H9         94.7582   79.8227  -49.5687 H         1 25Z         0.0856
     35 H10        89.4990   80.5654  -47.7689 H         1 25Z         0.0535
     36 H11        88.0380   80.8029  -45.7266 H         1 25Z         0.0587
     37 H12        87.0968   83.0601  -45.1090 H         1 25Z         0.0517
     38 H13        87.6002   85.0758  -46.5272 H         1 25Z         0.0587
     39 H14        89.0566   84.8673  -48.5642 H         1 25Z         0.0535
@<TRIPOS>BOND
     1    6    1 ar 
     2   14    1 ar 
     3   15    2 1  
     4   18    3 2  
     5    3   19 1  
     6   16    4 1  
     7   17    5 1  
     8    5   18 1  
     9    9    6 ar 
    10    6   15 1  
    11   15    7 1  
    12   18    8 1  
    13    8   20 1  
    14   12    9 ar 
    15   15   10 1  
    16   19   11 1  
    17   12   13 ar 
    18   16   12 1  
    19   13   14 ar 
    20   16   17 1  
    21   17   19 2  
    22   20   21 ar 
    23   20   25 ar 
    24   21   22 ar 
    25   22   23 ar 
    26   23   24 ar 
    27   24   25 ar 
    28    1   26 1  
    29    4   27 1  
    30    8   28 1  
    31    9   29 1  
    32   11   30 1  
    33   11   31 1  
    34   13   32 1  
    35   14   33 1  
    36   16   34 1  
    37   21   35 1  
    38   22   36 1  
    39   23   37 1  
    40   24   38 1  
    41   25   39 1  
@<TRIPOS>SUBSTRUCTURE
     1 25Z         1

