### 
### Created by X-TOOL on Mon Sep 10 21:13:10 2018
### 

@<TRIPOS>MOLECULE
3rpv_ligand
   41    43     1     0     0
SMALL
GAST_HUCK


@<TRIPOS>ATOM
      1 N01        65.3520  117.6420  -86.8150 N.2       1 26Z        -0.2715
      2 N02        64.1000  118.2300  -85.0070 N.pl3     1 26Z        -0.2326
      3 N03        66.8850  116.7830  -88.3510 N.pl3     1 26Z        -0.3317
      4 N04        67.3660  112.3040  -82.4470 N.pl3     1 26Z        -0.3362
      5 N05        61.4110  116.4060  -79.1560 N.am      1 26Z        -0.2621
      6 C06        67.0380  116.1290  -86.1100 C.2       1 26Z         0.0921
      7 C07        66.4540  116.8430  -87.1550 C.2       1 26Z         0.0846
      8 C08        65.0930  117.5450  -85.5330 C.2       1 26Z         0.2037
      9 C09        63.3670  117.9620  -83.9610 C.ar      1 26Z         0.0701
     10 C10        68.1490  115.2670  -86.2190 C.2       1 26Z         0.1270
     11 C11        68.5960  114.4770  -85.1430 C.ar      1 26Z         0.0115
     12 C12        69.9920  114.3980  -84.8660 C.ar      1 26Z        -0.0583
     13 C13        70.4700  113.6150  -83.7810 C.ar      1 26Z        -0.0684
     14 C14        69.5670  112.8970  -82.9510 C.ar      1 26Z        -0.0406
     15 C15        68.1760  112.9550  -83.2050 C.ar      1 26Z         0.0403
     16 C16        67.6830  113.7430  -84.3010 C.ar      1 26Z        -0.0281
     17 C17        63.5090  116.7830  -83.1570 C.ar      1 26Z        -0.0354
     18 C18        62.6600  116.5720  -82.0470 C.ar      1 26Z        -0.0445
     19 C19        61.6660  117.5320  -81.7310 C.ar      1 26Z         0.0965
     20 C20        61.5180  118.7020  -82.5140 C.ar      1 26Z        -0.0445
     21 C21        62.3550  118.9140  -83.6130 C.ar      1 26Z        -0.0354
     22 O22        68.7600  115.2090  -87.2890 O.2       1 26Z        -0.4024
     23 O23        59.4980  116.4510  -80.8600 O.2       1 26Z        -0.1519
     24 O24        60.0780  118.5260  -79.8530 O.2       1 26Z        -0.1519
     25 S25        66.1500  116.4970  -84.6640 S.3       1 26Z         0.0099
     26 S26        60.5900  117.2570  -80.3620 S.o2      1 26Z         0.0609
     27 H1         63.8668  119.1077  -85.4929 H         1 26Z         0.2243
     28 H2         67.6958  116.1894  -88.5771 H         1 26Z         0.1746
     29 H3         66.4230  117.3281  -89.0929 H         1 26Z         0.1746
     30 H4         67.7315  111.7427  -81.6646 H         1 26Z         0.1718
     31 H5         66.3518  112.3440  -82.6225 H         1 26Z         0.1718
     32 H6         60.9423  116.1665  -78.3057 H         1 26Z         0.1633
     33 H7         62.3658  116.1417  -79.2923 H         1 26Z         0.1633
     34 H8         70.6949  114.9399  -85.4884 H         1 26Z         0.0553
     35 H9         71.5348  113.5647  -83.5842 H         1 26Z         0.0594
     36 H10        69.9433  112.3055  -82.1242 H         1 26Z         0.0549
     37 H11        66.6176  113.7862  -84.4964 H         1 26Z         0.0560
     38 H12        64.2702  116.0510  -83.4015 H         1 26Z         0.0540
     39 H13        62.7684  115.6803  -81.4402 H         1 26Z         0.0607
     40 H14        60.7572  119.4318  -82.2618 H         1 26Z         0.0607
     41 H15        62.2367  119.8110  -84.2101 H         1 26Z         0.0540
@<TRIPOS>BOND
     1    1    7 1  
     2    8    1 2  
     3    2    8 1  
     4    9    2 1  
     5    7    3 1  
     6   15    4 1  
     7   26    5 am 
     8    6    7 2  
     9    6   10 1  
    10   25    6 1  
    11    8   25 1  
    12   17    9 ar 
    13    9   21 ar 
    14   10   11 1  
    15   10   22 2  
    16   11   12 ar 
    17   11   16 ar 
    18   12   13 ar 
    19   13   14 ar 
    20   15   14 ar 
    21   16   15 ar 
    22   18   17 ar 
    23   19   18 ar 
    24   19   20 ar 
    25   19   26 1  
    26   20   21 ar 
    27   26   23 2  
    28   26   24 2  
    29    2   27 1  
    30    3   28 1  
    31    3   29 1  
    32    4   30 1  
    33    4   31 1  
    34    5   32 1  
    35    5   33 1  
    36   12   34 1  
    37   13   35 1  
    38   14   36 1  
    39   16   37 1  
    40   17   38 1  
    41   18   39 1  
    42   20   40 1  
    43   21   41 1  
@<TRIPOS>SUBSTRUCTURE
     1 26Z         1

