### 
### Created by X-TOOL on Mon Sep 10 21:13:10 2018
### 

@<TRIPOS>MOLECULE
3rpy_ligand
   31    32     1     0     0
SMALL
GAST_HUCK


@<TRIPOS>ATOM
      1 C1         94.8100   79.4090  -50.3500 C.2       1 27Z         0.1732
      2 N1         92.0210   81.7540  -51.1040 N.2       1 27Z        -0.2729
      3 O1         85.9700   80.6000  -45.1070 O.2       1 27Z        -0.1519
      4 S1         92.7240   80.6410  -48.8960 S.3       1 27Z         0.0101
      5 N2         93.5940   80.9370  -52.6470 N.pl3     1 27Z        -0.3326
      6 O2         86.5650   83.0100  -44.1800 O.2       1 27Z        -0.1519
      7 S2         87.1590   81.5620  -44.6400 S.o2      1 27Z         0.0609
      8 N3         90.6290   82.3810  -49.3290 N.pl3     1 27Z        -0.2331
      9 N4         87.9220   80.8690  -43.4730 N.am      1 27Z        -0.2621
     10 C12        93.6250   80.3140  -50.3160 C.2       1 27Z         0.1062
     11 C13        93.1030   80.9970  -51.3970 C.2       1 27Z         0.0841
     12 C14        91.6990   81.6690  -49.8140 C.2       1 27Z         0.2028
     13 C15        89.8510   82.1390  -48.2220 C.ar      1 27Z         0.0698
     14 C16        90.0270   80.9680  -47.2870 C.ar      1 27Z        -0.0355
     15 C17        89.1820   80.7890  -46.1620 C.ar      1 27Z        -0.0445
     16 C18        88.1210   81.7600  -45.9030 C.ar      1 27Z         0.0965
     17 C19        87.9320   82.9100  -46.7980 C.ar      1 27Z        -0.0445
     18 C20        88.7780   83.0970  -47.9370 C.ar      1 27Z        -0.0355
     19 O21        95.4340   79.2110  -51.4000 O.2       1 27Z        -0.4148
     20 N22        95.1510   78.8240  -49.2010 N.am      1 27Z        -0.3090
     21 H1         94.4190   80.3543  -52.8488 H         1 27Z         0.1739
     22 H2         93.1452   81.4737  -53.4029 H         1 27Z         0.1739
     23 H3         90.3727   83.2169  -49.8735 H         1 27Z         0.2240
     24 H4         88.3404   79.9715  -43.6124 H         1 27Z         0.1633
     25 H5         87.9936   81.3214  -42.5841 H         1 27Z         0.1633
     26 H6         90.8152   80.2490  -47.4789 H         1 27Z         0.0540
     27 H7         89.3217   79.9410  -45.5014 H         1 27Z         0.0607
     28 H8         87.1430   83.6246  -46.5932 H         1 27Z         0.0607
     29 H9         88.6253   83.9484  -48.5903 H         1 27Z         0.0540
     30 H10        95.9377   78.2076  -49.1680 H         1 27Z         0.1784
     31 H11        94.6200   79.0018  -48.3725 H         1 27Z         0.1784
@<TRIPOS>BOND
     1   10    1 1  
     2    1   19 2  
     3    1   20 am 
     4    2   11 1  
     5   12    2 2  
     6    7    3 2  
     7    4   10 1  
     8   12    4 1  
     9   11    5 1  
    10    7    6 2  
    11    7    9 am 
    12   16    7 1  
    13    8   12 1  
    14   13    8 1  
    15   10   11 2  
    16   14   13 ar 
    17   13   18 ar 
    18   15   14 ar 
    19   15   16 ar 
    20   16   17 ar 
    21   17   18 ar 
    22    5   21 1  
    23    5   22 1  
    24    8   23 1  
    25    9   24 1  
    26    9   25 1  
    27   14   26 1  
    28   15   27 1  
    29   17   28 1  
    30   18   29 1  
    31   20   30 1  
    32   20   31 1  
@<TRIPOS>SUBSTRUCTURE
     1 27Z         1

