### 
### Created by X-TOOL on Mon Sep 10 21:13:10 2018
### 

@<TRIPOS>MOLECULE
3rqw_ligand
   26    25     1     0     0
SMALL
GAST_HUCK


@<TRIPOS>ATOM
      1 N1       -112.5680  -70.4070  -61.3420 N.4       1 ACH         0.2387
      2 C2       -113.0550  -69.2140  -62.0510 C.3       1 ACH        -0.0023
      3 C3       -114.5300  -69.2870  -62.4240 C.3       1 ACH         0.1165
      4 O4       -115.2950  -69.5300  -61.2500 O.3       1 ACH        -0.2717
      5 C5       -116.6330  -68.9750  -61.2050 C.2       1 ACH         0.2308
      6 O7       -116.9500  -68.2060  -62.1110 O.2       1 ACH        -0.3707
      7 C6       -117.4860  -69.2450  -59.9950 C.3       1 ACH         0.0372
      8 C8       -111.1040  -70.4250  -61.4790 C.3       1 ACH        -0.0417
      9 C9       -113.0860  -71.6540  -61.9470 C.3       1 ACH        -0.0417
     10 C10      -112.9140  -70.3140  -59.9070 C.3       1 ACH        -0.0417
     11 H        -112.4871  -69.1296  -62.9775 H         1 ACH         0.0841
     12 H        -112.9283  -68.3620  -61.3830 H         1 ACH         0.0841
     13 H        -114.6881  -70.0948  -63.1386 H         1 ACH         0.0667
     14 H        -114.8411  -68.3452  -62.8761 H         1 ACH         0.0667
     15 H        -117.6493  -68.3140  -59.4521 H         1 ACH         0.0483
     16 H        -118.4448  -69.6552  -60.3121 H         1 ACH         0.0483
     17 H        -116.9795  -69.9607  -59.3474 H         1 ACH         0.0483
     18 H        -110.7026  -71.2960  -60.9610 H         1 ACH         0.0778
     19 H        -110.8398  -70.4752  -62.5353 H         1 ACH         0.0778
     20 H        -110.6883  -69.5171  -61.0419 H         1 ACH         0.0778
     21 H        -112.8015  -71.6916  -62.9985 H         1 ACH         0.0778
     22 H        -112.6642  -72.5124  -61.4242 H         1 ACH         0.0778
     23 H        -114.1725  -71.6733  -61.8624 H         1 ACH         0.0778
     24 H        -112.5046  -71.1754  -59.3793 H         1 ACH         0.0778
     25 H        -112.4933  -69.3982  -59.4917 H         1 ACH         0.0778
     26 H        -113.9983  -70.3001  -59.7962 H         1 ACH         0.0778
@<TRIPOS>BOND
     1    1    2 1  
     2    1    8 1  
     3    1    9 1  
     4    1   10 1  
     5    2    3 1  
     6    3    4 1  
     7    4    5 1  
     8    5    6 2  
     9    5    7 1  
    10    2   11 1  
    11    2   12 1  
    12    3   13 1  
    13    3   14 1  
    14    7   15 1  
    15    7   16 1  
    16    7   17 1  
    17    8   18 1  
    18    8   19 1  
    19    8   20 1  
    20    9   21 1  
    21    9   22 1  
    22    9   23 1  
    23   10   24 1  
    24   10   25 1  
    25   10   26 1  
@<TRIPOS>SUBSTRUCTURE
     1 ACH         1

