### 
### Created by X-TOOL on Mon Sep 10 21:13:08 2018
### 

@<TRIPOS>MOLECULE
3rr4_ligand
   30    32     1     0     0
SMALL
GAST_HUCK


@<TRIPOS>ATOM
      1 N1         17.4220   17.6040   17.3780 N.pl3     1 HRD        -0.2312
      2 N3         19.4830   17.9610   18.1900 N.2       1 HRD        -0.3180
      3 C4         18.7110   17.8970   17.0850 C.2       1 HRD         0.2108
      4 C5         18.2960   18.0280   14.6810 C.3       1 HRD         0.0220
      5 C6         18.6620   17.6900   19.2250 C.ar      1 HRD         0.0091
      6 C7         18.9570   17.6330   20.5930 C.ar      1 HRD        -0.0553
      7 C8         17.8730   17.3400   21.4360 C.ar      1 HRD         0.0402
      8 C10        15.7890   16.7750   23.1610 C.2       1 HRD         0.2307
      9 C1         16.5730   17.1290   20.9440 C.ar      1 HRD        -0.0123
     10 C2         16.3060   17.1900   19.5690 C.ar      1 HRD        -0.0408
     11 C3         17.3880   17.4820   18.7290 C.ar      1 HRD         0.0694
     12 N2         19.1780   18.1000   15.8340 N.pl3     1 HRD        -0.2789
     13 C9         18.0230   17.2800   22.8180 C.2       1 HRD         0.2269
     14 O1         19.2380   17.4760   23.4050 O.2       1 HRD        -0.3891
     15 N4         17.0140   16.9950   23.6690 N.am      1 HRD        -0.1805
     16 N5         14.8110   16.5070   24.0640 N.pl3     1 HRD        -0.2705
     17 C11        13.4580   16.2950   23.5670 C.3       1 HRD         0.0246
     18 N6         15.5980   16.8390   21.8270 N.2       1 HRD        -0.3142
     19 H1         16.6378   17.4970   16.7188 H         1 HRD         0.2310
     20 H2         18.8732   18.2231   13.7651 H         1 HRD         0.0490
     21 H3         17.5004   18.7811   14.7803 H         1 HRD         0.0490
     22 H4         17.8470   17.0254   14.6248 H         1 HRD         0.0490
     23 H5         19.9566   17.8039   20.9759 H         1 HRD         0.0555
     24 H6         15.3106   17.0195   19.1752 H         1 HRD         0.0434
     25 H7         20.1768   18.3095   15.6946 H         1 HRD         0.1888
     26 H8         17.1745   16.9486   24.6550 H         1 HRD         0.2501
     27 H9         15.0197   16.4551   25.0713 H         1 HRD         0.1930
     28 H10        12.7847   16.0902   24.4124 H         1 HRD         0.0495
     29 H11        13.4509   15.4385   22.8768 H         1 HRD         0.0495
     30 H12        13.1168   17.1962   23.0366 H         1 HRD         0.0495
@<TRIPOS>BOND
     1    1    3 1  
     2   11    1 1  
     3    2    3 2  
     4    5    2 1  
     5    3   12 1  
     6   12    4 1  
     7    6    5 ar 
     8    5   11 ar 
     9    7    6 ar 
    10    9    7 ar 
    11    7   13 1  
    12    8   15 am 
    13    8   16 1  
    14   18    8 2  
    15    9   10 ar 
    16    9   18 1  
    17   10   11 ar 
    18   13   14 2  
    19   13   15 am 
    20   16   17 1  
    21    1   19 1  
    22    4   20 1  
    23    4   21 1  
    24    4   22 1  
    25    6   23 1  
    26   10   24 1  
    27   12   25 1  
    28   15   26 1  
    29   16   27 1  
    30   17   28 1  
    31   17   29 1  
    32   17   30 1  
@<TRIPOS>SUBSTRUCTURE
     1 HRD         1

