### 
### Created by X-TOOL on Mon Sep 10 21:13:07 2018
### 

@<TRIPOS>MOLECULE
3rse_ligand
   57    58     1     0     0
SMALL
GAST_HUCK


@<TRIPOS>ATOM
      1 N          34.7550   16.1550   12.2430 N.4       1 GLU         0.2380
      2 CA         34.7230   14.9130   13.1060 C.3       1 GLU         0.0665
      3 C          33.4440   14.7580   13.9670 C.2       1 GLU         0.2269
      4 O          33.0020   13.6380   14.2190 O.2       1 GLU        -0.3907
      5 CB         35.9910   14.7510   13.9850 C.3       1 GLU         0.0194
      6 CG         35.9150   13.5260   14.9850 C.3       1 GLU         0.0075
      7 CD         37.2870   12.9650   15.5010 C.2       1 GLU         0.0351
      8 OE1        37.2860   11.9940   16.3110 O.co2     1 GLU        -0.5690
      9 OE2        38.3650   13.4790   15.1030 O.co2     1 GLU        -0.5690
     10 N          32.8560   15.8650   14.4230 N.am      1 TRP        -0.2599
     11 CA         31.5950   15.7470   15.1480 C.3       1 TRP         0.1353
     12 C          30.4730   15.6700   14.1430 C.2       1 TRP         0.2046
     13 O          30.1810   14.5720   13.6480 O.2       1 TRP        -0.3943
     14 CB         31.4050   16.7750   16.3010 C.3       1 TRP         0.0042
     15 CG         31.9120   16.1610   17.6380 C.2       1 TRP        -0.0418
     16 CD1        33.1970   16.1990   18.1230 C.2       1 TRP         0.0167
     17 CD2        31.1650   15.3600   18.5750 C.ar      1 TRP        -0.0214
     18 NE1        33.2800   15.5050   19.3010 N.pl3     1 TRP        -0.2890
     19 CE2        32.0540   14.9720   19.5970 C.ar      1 TRP         0.0603
     20 CE3        29.8370   14.9510   18.6550 C.ar      1 TRP        -0.0747
     21 CZ2        31.6560   14.1860   20.6810 C.ar      1 TRP        -0.0443
     22 CZ3        29.4430   14.1760   19.7410 C.ar      1 TRP        -0.0792
     23 CH2        30.3470   13.8070   20.7350 C.ar      1 TRP        -0.0768
     24 N          29.8470   16.7890   13.8110 N.am      1 GLU        -0.2693
     25 CA         28.8800   16.7330   12.7210 C.3       1 GLU         0.0959
     26 C          29.4850   17.2760   11.4220 C.2       1 GLU         0.0602
     27 O          28.9250   18.2200   10.8210 O.co2     1 GLU        -0.5666
     28 CB         27.5300   17.3760   13.0860 C.3       1 GLU        -0.0064
     29 CG         26.3720   17.0990   12.0670 C.3       1 GLU         0.0038
     30 CD         26.1440   15.5940   11.7320 C.2       1 GLU         0.0350
     31 OE1        27.1250   14.9140   11.3110 O.co2     1 GLU        -0.5690
     32 OE2        24.9800   15.1060   11.8590 O.co2     1 GLU        -0.5690
     33 OXT        30.5220   16.7370   11.0320 O.co2     1 GLU        -0.5666
     34 H          33.8989   16.2061   11.6909 H         1 GLU         0.2015
     35 H          34.8265   16.9798   12.8388 H         1 GLU         0.2015
     36 H          35.5611   16.1136   11.6194 H         1 GLU         0.2015
     37 H          34.7057   14.1008   12.3792 H         1 GLU         0.1099
     38 H          36.0922   15.6563   14.5835 H         1 GLU         0.0363
     39 H          36.8331   14.5753   13.3156 H         1 GLU         0.0363
     40 H          35.4420   12.7130   14.4343 H         1 GLU         0.0434
     41 H          35.3829   13.8852   15.8659 H         1 GLU         0.0434
     42 H          33.2808   16.7792   14.2675 H         1 TRP         0.1886
     43 H          31.5976   14.8172   15.7168 H         1 TRP         0.0815
     44 H          30.3476   17.0225   16.3945 H         1 TRP         0.0397
     45 H          31.9742   17.6775   16.0785 H         1 TRP         0.0397
     46 H          34.0307   16.7083   17.6397 H         1 TRP         0.0795
     47 H          34.1217   15.4016   19.8678 H         1 TRP         0.2216
     48 H          29.1207   15.2320   17.8829 H         1 TRP         0.0540
     49 H          32.3642   13.8871   21.4538 H         1 TRP         0.0541
     50 H          28.4054   13.8506   19.8159 H         1 TRP         0.0510
     51 H          30.0007   13.2027   21.5734 H         1 TRP         0.0530
     52 H          30.0355   17.6627   14.3025 H         1 GLU         0.1875
     53 H          28.6457   15.6833   12.5436 H         1 GLU         0.0727
     54 H          27.6872   18.4545   13.1003 H         1 GLU         0.0323
     55 H          27.2222   16.9455   14.0389 H         1 GLU         0.0323
     56 H          26.6452   17.5933   11.1347 H         1 GLU         0.0432
     57 H          25.4528   17.4645   12.5248 H         1 GLU         0.0432
@<TRIPOS>BOND
     1    1    2 1  
     2    2    3 1  
     3    2    5 1  
     4    3    4 2  
     5    3   10 am 
     6    5    6 1  
     7    6    7 1  
     8    7    8 ar 
     9    7    9 ar 
    10   10   11 1  
    11   11   12 1  
    12   11   14 1  
    13   12   13 2  
    14   12   24 am 
    15   14   15 1  
    16   15   16 2  
    17   15   17 1  
    18   16   18 1  
    19   17   19 ar 
    20   17   20 ar 
    21   18   19 1  
    22   19   21 ar 
    23   20   22 ar 
    24   21   23 ar 
    25   22   23 ar 
    26   24   25 1  
    27   25   26 1  
    28   25   28 1  
    29   26   27 ar 
    30   26   33 ar 
    31   28   29 1  
    32   29   30 1  
    33   30   31 ar 
    34   30   32 ar 
    35    1   34 1  
    36    1   35 1  
    37    1   36 1  
    38    2   37 1  
    39    5   38 1  
    40    5   39 1  
    41    6   40 1  
    42    6   41 1  
    43   10   42 1  
    44   11   43 1  
    45   14   44 1  
    46   14   45 1  
    47   16   46 1  
    48   18   47 1  
    49   20   48 1  
    50   21   49 1  
    51   22   50 1  
    52   23   51 1  
    53   24   52 1  
    54   25   53 1  
    55   28   54 1  
    56   28   55 1  
    57   29   56 1  
    58   29   57 1  
@<TRIPOS>SUBSTRUCTURE
     1 GLU         1

