### 
### Created by X-TOOL on Mon Sep 10 21:13:07 2018
### 

@<TRIPOS>MOLECULE
3rsv_ligand
   65    68     1     0     0
SMALL
GAST_HUCK


@<TRIPOS>ATOM
      1 C26        13.3440  -40.0090   11.6280 C.3       1 3RS        -0.0011
      2 C27        13.3210  -39.0620   12.8280 C.3       1 3RS         0.0661
      3 C31        12.7680  -39.7660   14.0870 C.3       1 3RS        -0.0360
      4 C32        14.7450  -38.5810   13.0740 C.3       1 3RS        -0.0360
      5 O28        12.5320  -37.8720   12.5010 O.3       1 3RS        -0.3737
      6 C29        11.1650  -38.1240   12.0340 C.3       1 3RS         0.0504
      7 C30        11.1870  -39.0210   10.7910 C.3       1 3RS        -0.0062
      8 C25        11.9500  -40.3160   11.0670 C.3       1 3RS         0.0467
      9 N15        12.1620  -41.0320    9.8010 N.am      1 3RS        -0.2834
     10 C14        12.4110  -42.3390    9.7410 C.2       1 3RS         0.1810
     11 O16        12.4580  -43.0730   10.7230 O.2       1 3RS        -0.3966
     12 C13        12.6630  -42.9000    8.3350 C.3       1 3RS         0.0552
     13 C17        11.7340  -44.0980    8.1050 C.3       1 3RS        -0.0435
     14 C12        14.1780  -43.2350    8.1380 C.3       1 3RS         0.0057
     15 C9         15.0050  -41.9540    8.4020 C.ar      1 3RS         0.0127
     16 C8         14.9760  -40.8110    7.5820 C.ar      1 3RS         0.1140
     17 N7         15.6950  -39.7150    7.8810 N.ar      1 3RS        -0.2949
     18 N11        14.2470  -40.7750    6.4780 N.pl3     1 3RS        -0.3200
     19 C10        15.8160  -41.9030    9.5450 C.ar      1 3RS        -0.0407
     20 C5         16.5660  -40.7510    9.8340 C.ar      1 3RS        -0.0121
     21 C6         17.3910  -40.6690   10.9700 C.ar      1 3RS        -0.0499
     22 C4         16.4760  -39.6540    8.9680 C.ar      1 3RS         0.0225
     23 C3         17.2000  -38.4880    9.2190 C.ar      1 3RS        -0.0502
     24 C2         18.0200  -38.4130   10.3420 C.ar      1 3RS        -0.0568
     25 C1         18.1270  -39.5000   11.2190 C.ar      1 3RS        -0.0227
     26 C18        18.9710  -39.3650   12.3280 C.ar      1 3RS        -0.0170
     27 C19        18.6330  -38.4410   13.3210 C.ar      1 3RS        -0.0608
     28 C20        19.4540  -38.2690   14.4290 C.ar      1 3RS        -0.0683
     29 C21        20.6250  -39.0170   14.5500 C.ar      1 3RS        -0.0686
     30 C22        20.9830  -39.9380   13.5700 C.ar      1 3RS        -0.0597
     31 C23        20.1630  -40.1090   12.4540 C.ar      1 3RS        -0.0374
     32 C24        20.6200  -41.1470   11.4130 C.3       1 3RS        -0.0299
     33 H1         13.8105  -40.9552   11.9395 H         1 3RS         0.0315
     34 H2         13.9465  -39.5479   10.8315 H         1 3RS         0.0315
     35 H3         12.7645  -39.0597   14.9303 H         1 3RS         0.0257
     36 H4         13.4041  -40.6287   14.3340 H         1 3RS         0.0257
     37 H5         11.7415  -40.1108   13.8933 H         1 3RS         0.0257
     38 H6         15.1249  -38.0825   12.1700 H         1 3RS         0.0257
     39 H7         15.3863  -39.4416   13.3150 H         1 3RS         0.0257
     40 H8         14.7523  -37.8715   13.9145 H         1 3RS         0.0257
     41 H9         10.6846  -37.1669   11.7828 H         1 3RS         0.0561
     42 H10        10.5946  -38.6224   12.8316 H         1 3RS         0.0561
     43 H11        11.6777  -38.4825    9.9668 H         1 3RS         0.0310
     44 H12        10.1534  -39.2659   10.5051 H         1 3RS         0.0310
     45 H13        11.3821  -40.9391   11.7736 H         1 3RS         0.0557
     46 H14        12.1173  -40.5146    8.9464 H         1 3RS         0.1854
     47 H15        12.3991  -42.1249    7.6004 H         1 3RS         0.0557
     48 H16        11.9067  -44.5081    7.0990 H         1 3RS         0.0258
     49 H17        10.6870  -43.7724    8.1934 H         1 3RS         0.0258
     50 H18        11.9418  -44.8730    8.8575 H         1 3RS         0.0258
     51 H19        14.3501  -43.5816    7.1083 H         1 3RS         0.0450
     52 H20        14.4785  -44.0223    8.8450 H         1 3RS         0.0450
     53 H21        14.2406  -39.9276    5.8925 H         1 3RS         0.1787
     54 H22        13.6860  -41.5943    6.2043 H         1 3RS         0.1787
     55 H23        15.8644  -42.7580   10.2096 H         1 3RS         0.0648
     56 H24        17.4585  -41.5081   11.6529 H         1 3RS         0.0612
     57 H25        17.1245  -37.6442    8.5428 H         1 3RS         0.0598
     58 H26        18.5801  -37.5061   10.5391 H         1 3RS         0.0618
     59 H27        17.7256  -37.8555   13.2263 H         1 3RS         0.0602
     60 H28        19.1846  -37.5544   15.1983 H         1 3RS         0.0560
     61 H29        21.2625  -38.8796   15.4159 H         1 3RS         0.0598
     62 H30        21.8926  -40.5186   13.6729 H         1 3RS         0.0556
     63 H31        19.8921  -41.1851   10.5892 H         1 3RS         0.0396
     64 H32        20.6884  -42.1369   11.8878 H         1 3RS         0.0396
     65 H33        21.6059  -40.8607   11.0181 H         1 3RS         0.0396
@<TRIPOS>BOND
     1    1    2 1  
     2    1    8 1  
     3    2    3 1  
     4    2    4 1  
     5    2    5 1  
     6    5    6 1  
     7    6    7 1  
     8    7    8 1  
     9    8    9 1  
    10    9   10 am 
    11   10   11 2  
    12   10   12 1  
    13   12   13 1  
    14   12   14 1  
    15   14   15 1  
    16   15   16 ar 
    17   15   19 ar 
    18   16   17 ar 
    19   16   18 1  
    20   17   22 ar 
    21   19   20 ar 
    22   20   21 ar 
    23   20   22 ar 
    24   21   25 ar 
    25   22   23 ar 
    26   23   24 ar 
    27   24   25 ar 
    28   25   26 1  
    29   26   27 ar 
    30   26   31 ar 
    31   27   28 ar 
    32   28   29 ar 
    33   29   30 ar 
    34   30   31 ar 
    35   31   32 1  
    36    1   33 1  
    37    1   34 1  
    38    3   35 1  
    39    3   36 1  
    40    3   37 1  
    41    4   38 1  
    42    4   39 1  
    43    4   40 1  
    44    6   41 1  
    45    6   42 1  
    46    7   43 1  
    47    7   44 1  
    48    8   45 1  
    49    9   46 1  
    50   12   47 1  
    51   13   48 1  
    52   13   49 1  
    53   13   50 1  
    54   14   51 1  
    55   14   52 1  
    56   18   53 1  
    57   18   54 1  
    58   19   55 1  
    59   21   56 1  
    60   23   57 1  
    61   24   58 1  
    62   27   59 1  
    63   28   60 1  
    64   29   61 1  
    65   30   62 1  
    66   32   63 1  
    67   32   64 1  
    68   32   65 1  
@<TRIPOS>SUBSTRUCTURE
     1 3RS         1

