### 
### Created by X-TOOL on Mon Sep 10 21:13:07 2018
### 

@<TRIPOS>MOLECULE
3rsx_ligand
   26    28     1     0     0
SMALL
GAST_HUCK


@<TRIPOS>ATOM
      1 C4         68.7880   50.1600    8.6480 C.ar      1 RSV         0.0260
      2 C5         69.2030   49.0520    9.3910 C.ar      1 RSV        -0.0061
      3 C6         69.9150   49.2400   10.5760 C.ar      1 RSV        -0.0501
      4 C7         70.9380   50.7340   12.2170 C.2       1 RSV        -0.0319
      5 C8         70.5800   51.7230   13.0850 C.2       1 RSV        -0.0694
      6 C10        71.9660   49.9850   12.6560 C.2       1 RSV         0.0037
      7 N12        68.0850   50.0010    7.5150 N.ar      1 RSV        -0.2929
      8 C13        67.7600   48.7740    7.0550 C.ar      1 RSV         0.1068
      9 C15        68.8890   47.7690    8.9420 C.ar      1 RSV        -0.0411
     10 C14        68.1580   47.6280    7.7560 C.ar      1 RSV        -0.0103
     11 N16        67.0760   48.6570    5.9170 N.pl3     1 RSV        -0.3196
     12 C3         69.0880   51.4450    9.0980 C.ar      1 RSV        -0.0483
     13 C2         69.8070   51.6330   10.2810 C.ar      1 RSV        -0.0570
     14 C1         70.2390   50.5320   11.0220 C.ar      1 RSV        -0.0311
     15 C11        71.2760   51.8560   14.2250 C.2       1 RSV        -0.0063
     16 S9         72.4190   50.6350   14.1680 S.3       1 RSV        -0.0419
     17 H1         70.2217   48.3792   11.1592 H         1 RSV         0.0605
     18 H2         69.7489   52.3893   12.8586 H         1 RSV         0.0410
     19 H3         72.4184   49.1344   12.1483 H         1 RSV         0.0754
     20 H4         69.2055   46.8962    9.5016 H         1 RSV         0.0745
     21 H5         67.9027   46.6423    7.3841 H         1 RSV         0.0644
     22 H6         66.8249   47.7238    5.5607 H         1 RSV         0.1793
     23 H7         66.7985   49.4998    5.3939 H         1 RSV         0.1793
     24 H8         68.7607   52.3052    8.5253 H         1 RSV         0.0602
     25 H9         70.0300   52.6367   10.6243 H         1 RSV         0.0628
     26 H10        71.1295   52.5943   15.0120 H         1 RSV         0.0722
@<TRIPOS>BOND
     1    2    1 ar 
     2    1    7 ar 
     3    1   12 ar 
     4    3    2 ar 
     5    2    9 ar 
     6   14    3 ar 
     7    4    5 1  
     8    4    6 2  
     9    4   14 1  
    10    5   15 2  
    11    6   16 1  
    12    7    8 ar 
    13    8   10 ar 
    14    8   11 1  
    15    9   10 ar 
    16   12   13 ar 
    17   13   14 ar 
    18   15   16 1  
    19    3   17 1  
    20    5   18 1  
    21    6   19 1  
    22    9   20 1  
    23   10   21 1  
    24   11   22 1  
    25   11   23 1  
    26   12   24 1  
    27   13   25 1  
    28   15   26 1  
@<TRIPOS>SUBSTRUCTURE
     1 RSV         1

