### 
### Created by X-TOOL on Mon Sep 10 21:13:07 2018
### 

@<TRIPOS>MOLECULE
3rt6_ligand
   23    23     1     0     0
SMALL
GAST_HUCK


@<TRIPOS>ATOM
      1 N1         22.6250   19.2340   15.7320 N.am      1 FWD        -0.1864
      2 C2         23.1020   17.9990   15.5230 C.2       1 FWD         0.3276
      3 O2         22.3680   17.0880   15.3680 O.2       1 FWD        -0.3831
      4 N3         24.4570   17.7820   15.5140 N.am      1 FWD        -0.1843
      5 C4         25.3100   18.8350   15.7220 C.2       1 FWD         0.2212
      6 O4         26.6910   18.6030   15.6860 O.2       1 FWD        -0.4071
      7 C5         24.8240   20.1140   15.9410 C.2       1 FWD         0.1930
      8 F5         25.6960   21.1420   16.1530 F         1 FWD        -0.2165
      9 C6         23.5000   20.3270   15.9390 C.2       1 FWD         0.0856
     10 C7         21.2000   19.4480   15.6730 C.3       1 FWD         0.1179
     11 C8         20.7400   19.5900   14.2370 C.3       1 FWD         0.0561
     12 N8         20.8810   20.9230   13.7090 N.4       1 FWD         0.2346
     13 C9         19.4460   18.8860   13.8760 C.2       1 FWD         0.0872
     14 O91        18.4330   19.7760   13.5170 O.co2     1 FWD        -0.5642
     15 O92        19.0340   17.9860   14.8550 O.co2     1 FWD        -0.5642
     16 H1         24.8193   16.8633   15.3570 H         1 FWD         0.2260
     17 H2         23.1028   21.3290   16.0948 H         1 FWD         0.1106
     18 H3         20.9493   20.3658   16.2250 H         1 FWD         0.0687
     19 H4         20.6866   18.5912   16.1337 H         1 FWD         0.0687
     20 H5         21.4934   19.0165   13.6772 H         1 FWD         0.1052
     21 H6         20.5571   20.9423   12.7546 H         1 FWD         0.2011
     22 H7         21.8508   21.1960   13.7403 H         1 FWD         0.2011
     23 H8         20.3337   21.5633   14.2626 H         1 FWD         0.2011
@<TRIPOS>BOND
     1    1    2 am 
     2    1    9 1  
     3    1   10 1  
     4    2    3 2  
     5    2    4 am 
     6    4    5 am 
     7    5    6 2  
     8    5    7 1  
     9    7    8 1  
    10    7    9 2  
    11   10   11 1  
    12   11   12 1  
    13   11   13 1  
    14   13   14 ar 
    15   13   15 ar 
    16    4   16 1  
    17    9   17 1  
    18   10   18 1  
    19   10   19 1  
    20   11   20 1  
    21   12   21 1  
    22   12   22 1  
    23   12   23 1  
@<TRIPOS>SUBSTRUCTURE
     1 FWD         1

