### 
### Created by X-TOOL on Mon Sep 10 21:13:07 2018
### 

@<TRIPOS>MOLECULE
3rt8_ligand
   23    23     1     0     0
SMALL
GAST_HUCK


@<TRIPOS>ATOM
      1 N1        -19.9490   -1.1050  -19.3070 N.am      1 CWD        -0.1805
      2 C2        -18.7100   -0.6520  -19.5120 C.2       1 CWD         0.3318
      3 O2        -17.8150   -1.4220  -19.6540 O.2       1 CWD        -0.3810
      4 N3        -18.4560    0.7020  -19.5210 N.am      1 CWD        -0.1860
      5 C4        -19.4780    1.5920  -19.3260 C.2       1 CWD         0.1964
      6 O4        -19.2000    2.9510  -19.3700 O.2       1 CWD        -0.4116
      7 C5        -20.7740    1.1330  -19.1140 C.2       1 CWD         0.1036
      8 CL5       -22.1790    2.2360  -18.8900 Cl        1 CWD        -0.1088
      9 C6        -21.0010   -0.1940  -19.1070 C.2       1 CWD         0.0720
     10 C7        -20.1870   -2.5310  -19.3610 C.3       1 CWD         0.1210
     11 C8        -20.1940   -3.1210  -20.7740 C.3       1 CWD         0.0567
     12 N8        -21.3320   -2.7120  -21.5770 N.4       1 CWD         0.2347
     13 C9        -19.7830   -4.5920  -20.8810 C.2       1 CWD         0.0872
     14 O91       -20.5380   -5.3750  -21.3560 O.co2     1 CWD        -0.5642
     15 O92       -18.6850   -5.0160  -20.1220 O.co2     1 CWD        -0.5642
     16 H1        -17.5249    1.0349  -19.6700 H         1 CWD         0.2259
     17 H2        -22.0115   -0.5662  -18.9445 H         1 CWD         0.1196
     18 H3        -21.1646   -2.7338  -18.8993 H         1 CWD         0.0694
     19 H4        -19.3972   -3.0332  -18.7830 H         1 CWD         0.0694
     20 H5        -19.3539   -2.6039  -21.2606 H         1 CWD         0.1052
     21 H6        -21.2696   -3.1367  -22.4890 H         1 CWD         0.2011
     22 H7        -21.3323   -1.7086  -21.6730 H         1 CWD         0.2011
     23 H8        -22.1843   -3.0067  -21.1267 H         1 CWD         0.2011
@<TRIPOS>BOND
     1    1    2 am 
     2    1    9 1  
     3    1   10 1  
     4    2    3 2  
     5    2    4 am 
     6    4    5 am 
     7    5    6 2  
     8    5    7 1  
     9    7    8 1  
    10    7    9 2  
    11   10   11 1  
    12   11   12 1  
    13   11   13 1  
    14   13   14 ar 
    15   13   15 ar 
    16    4   16 1  
    17    9   17 1  
    18   10   18 1  
    19   10   19 1  
    20   11   20 1  
    21   12   21 1  
    22   12   22 1  
    23   12   23 1  
@<TRIPOS>SUBSTRUCTURE
     1 CWD         1

