### 
### Created by X-TOOL on Mon Sep 10 21:13:06 2018
### 

@<TRIPOS>MOLECULE
3rtf_ligand
   23    23     1     0     0
SMALL
GAST_HUCK


@<TRIPOS>ATOM
      1 N1         18.5280  -21.0040  -26.5690 N.am      1 CWD        -0.1805
      2 C2         17.9970  -21.1010  -25.3400 C.2       1 CWD         0.3318
      3 O2         18.6740  -21.2090  -24.3450 O.2       1 CWD        -0.3810
      4 N3         16.6400  -21.1380  -25.1890 N.am      1 CWD        -0.1860
      5 C4         15.8930  -21.0890  -26.3080 C.2       1 CWD         0.1964
      6 O4         14.5290  -21.0740  -26.1190 O.2       1 CWD        -0.4116
      7 C5         16.4530  -20.9900  -27.5530 C.2       1 CWD         0.1036
      8 CL5        15.4590  -20.9630  -29.0170 Cl        1 CWD        -0.1088
      9 C6         17.7780  -20.9540  -27.7360 C.2       1 CWD         0.0720
     10 C7         19.9870  -20.8740  -26.6860 C.3       1 CWD         0.1210
     11 C8         20.4570  -19.4870  -26.2690 C.3       1 CWD         0.0567
     12 N8         20.2030  -18.4580  -27.2750 N.4       1 CWD         0.2347
     13 C9         21.9490  -19.5100  -25.9660 C.2       1 CWD         0.0872
     14 O91        22.7370  -18.8270  -26.5700 O.co2     1 CWD        -0.5642
     15 O92        22.3280  -20.4470  -25.0520 O.co2     1 CWD        -0.5642
     16 H1         16.2185  -21.1990  -24.2842 H         1 CWD         0.2259
     17 H2         18.2326  -20.8904  -28.7235 H         1 CWD         0.1196
     18 H3         20.2793  -21.0515  -27.7315 H         1 CWD         0.0694
     19 H4         20.4660  -21.6236  -26.0390 H         1 CWD         0.0694
     20 H5         19.9143  -19.2100  -25.3532 H         1 CWD         0.1052
     21 H6         20.5365  -17.5686  -26.9375 H         1 CWD         0.2011
     22 H7         19.2126  -18.3997  -27.4534 H         1 CWD         0.2011
     23 H8         20.6847  -18.6958  -28.1279 H         1 CWD         0.2011
@<TRIPOS>BOND
     1    1    2 am 
     2    1    9 1  
     3    1   10 1  
     4    2    3 2  
     5    2    4 am 
     6    4    5 am 
     7    5    6 2  
     8    5    7 1  
     9    7    8 1  
    10    7    9 2  
    11   10   11 1  
    12   11   12 1  
    13   11   13 1  
    14   13   14 ar 
    15   13   15 ar 
    16    4   16 1  
    17    9   17 1  
    18   10   18 1  
    19   10   19 1  
    20   11   20 1  
    21   12   21 1  
    22   12   22 1  
    23   12   23 1  
@<TRIPOS>SUBSTRUCTURE
     1 CWD         1

