### 
### Created by X-TOOL on Mon Sep 10 21:13:08 2018
### 

@<TRIPOS>MOLECULE
3rth_ligand
   43    45     1     0     0
SMALL
GAST_HUCK


@<TRIPOS>ATOM
      1 C4         69.2350   48.9800   10.2750 C.ar      1 RTH        -0.0436
      2 C5         68.5080   48.8100    9.1120 C.ar      1 RTH        -0.0020
      3 C6         68.2040   49.9150    8.3220 C.ar      1 RTH         0.0281
      4 C8         67.0100   48.5600    6.8110 C.ar      1 RTH         0.1080
      5 C10        68.0460   47.5470    8.7340 C.ar      1 RTH        -0.0394
      6 C13        72.5580   49.8580   12.9710 C.ar      1 RTH        -0.0462
      7 C15        70.8070   51.1000   14.1010 C.ar      1 RTH        -0.0616
      8 C20        72.7870   47.9170    8.2250 C.3       1 RTH         0.0238
      9 C21        72.2340   48.7550    7.0540 C.3       1 RTH        -0.0491
     10 C22        72.1570   46.5290    8.1700 C.3       1 RTH        -0.0491
     11 C23        74.3220   47.8770    8.1900 C.3       1 RTH        -0.0491
     12 C19        72.4120   48.5780    9.5040 C.1       1 RTH        -0.0913
     13 C18        72.1220   49.1350   10.6040 C.1       1 RTH        -0.0656
     14 C12        71.7420   49.7790   11.8360 C.ar      1 RTH         0.0320
     15 C14        72.0790   50.5200   14.1060 C.ar      1 RTH        -0.0610
     16 C16        69.9920   51.0320   12.9670 C.ar      1 RTH        -0.0535
     17 C11        70.4670   50.3640   11.8290 C.ar      1 RTH        -0.0034
     18 C1         69.7010   50.2390   10.6590 C.ar      1 RTH        -0.0152
     19 C9         67.2850   47.4170    7.5700 C.ar      1 RTH        -0.0091
     20 N17        66.2950   48.4540    5.6920 N.pl3     1 RTH        -0.3190
     21 N7         67.4760   49.7720    7.1950 N.ar      1 RTH        -0.2914
     22 C3         68.6510   51.1710    8.7090 C.ar      1 RTH        -0.0465
     23 C2         69.4030   51.3430    9.8700 C.ar      1 RTH        -0.0529
     24 H          69.4485   48.1157   10.9038 H         1 RTH         0.0650
     25 H          68.2771   46.6718    9.3413 H         1 RTH         0.0754
     26 H          73.5518   49.4102   12.9700 H         1 RTH         0.0629
     27 H          70.4459   51.6120   14.9929 H         1 RTH         0.0617
     28 H          72.4856   48.2697    6.1110 H         1 RTH         0.0244
     29 H          71.1508   48.8345    7.1456 H         1 RTH         0.0244
     30 H          72.6763   49.7509    7.0809 H         1 RTH         0.0244
     31 H          71.0742   46.6192    8.2562 H         1 RTH         0.0244
     32 H          72.4090   46.0544    7.2217 H         1 RTH         0.0244
     33 H          72.5392   45.9250    8.9929 H         1 RTH         0.0244
     34 H          74.6512   47.4308    7.2516 H         1 RTH         0.0244
     35 H          74.7125   48.8917    8.2681 H         1 RTH         0.0244
     36 H          74.6878   47.2802    9.0256 H         1 RTH         0.0244
     37 H          72.7006   50.5841   14.9991 H         1 RTH         0.0615
     38 H          69.0033   51.4908   12.9674 H         1 RTH         0.0620
     39 H          66.9116   46.4416    7.2581 H         1 RTH         0.0647
     40 H          66.1015   49.2829    5.1300 H         1 RTH         0.1797
     41 H          65.9411   47.5439    5.3972 H         1 RTH         0.1797
     42 H          68.4097   52.0380    8.0941 H         1 RTH         0.0605
     43 H          69.7540   52.3345   10.1562 H         1 RTH         0.0646
@<TRIPOS>BOND
     1    1    2 ar 
     2   18    1 ar 
     3    2    3 ar 
     4    2    5 ar 
     5    3   21 ar 
     6    3   22 ar 
     7   19    4 ar 
     8    4   20 1  
     9   21    4 ar 
    10    5   19 ar 
    11   14    6 ar 
    12    6   15 ar 
    13    7   15 ar 
    14   16    7 ar 
    15    8    9 1  
    16    8   10 1  
    17    8   11 1  
    18   12    8 1  
    19   13   12 3  
    20   14   13 1  
    21   17   14 ar 
    22   17   16 ar 
    23   17   18 1  
    24   18   23 ar 
    25   22   23 ar 
    26    1   24 1  
    27    5   25 1  
    28    6   26 1  
    29    7   27 1  
    30    9   28 1  
    31    9   29 1  
    32    9   30 1  
    33   10   31 1  
    34   10   32 1  
    35   10   33 1  
    36   11   34 1  
    37   11   35 1  
    38   11   36 1  
    39   15   37 1  
    40   16   38 1  
    41   19   39 1  
    42   20   40 1  
    43   20   41 1  
    44   22   42 1  
    45   23   43 1  
@<TRIPOS>SUBSTRUCTURE
     1 RTH         1

