### 
### Created by X-TOOL on Mon Sep 10 21:13:07 2018
### 

@<TRIPOS>MOLECULE
3rtm_ligand
   48    50     1     0     0
SMALL
GAST_HUCK


@<TRIPOS>ATOM
      1 N1         67.2290   50.0380    7.4130 N.ar      1 RTM        -0.2950
      2 N3         70.2560   46.5410    8.2130 N.am      1 RTM        -0.2731
      3 C4         68.1130   49.8320   10.9440 C.ar      1 RTM        -0.0557
      4 C5         67.7430   49.4420    9.6500 C.ar      1 RTM        -0.0115
      5 C6         67.5850   50.4050    8.6490 C.ar      1 RTM         0.0226
      6 C7         67.0030   48.7500    7.0910 C.ar      1 RTM         0.1140
      7 C8         67.1430   47.7100    8.0530 C.ar      1 RTM         0.0128
      8 C10        66.9080   46.1720    7.8280 C.3       1 RTM         0.0032
      9 C13        70.3640   45.7820    9.4850 C.3       1 RTM         0.0229
     10 C15        71.1300   48.7910    8.8520 C.3       1 RTM        -0.0297
     11 C17        72.4840   50.0120    7.0390 C.3       1 RTM        -0.0529
     12 C16        71.3550   50.1140    8.1030 C.3       1 RTM        -0.0510
     13 C18        72.6270   48.6580    6.2850 C.3       1 RTM        -0.0510
     14 C19        72.4290   47.4350    7.1920 C.3       1 RTM        -0.0297
     15 C14        71.0660   47.6920    7.7870 C.3       1 RTM         0.0447
     16 C12        69.2630   46.2750    7.3670 C.2       1 RTM         0.1804
     17 O1         69.1000   46.9130    6.3200 O.2       1 RTM        -0.3967
     18 C11        68.1970   45.3010    7.7860 C.3       1 RTM         0.0469
     19 C9         67.5210   48.1000    9.3470 C.ar      1 RTM        -0.0402
     20 C1         68.3300   51.1910   11.2220 C.ar      1 RTM        -0.0632
     21 C2         68.1740   52.1510   10.2210 C.ar      1 RTM        -0.0635
     22 C3         67.8070   51.7450    8.9400 C.ar      1 RTM        -0.0505
     23 N2         66.6510   48.5160    5.8250 N.pl3     1 RTM        -0.3199
     24 H          68.2315   49.0855   11.7293 H         1 RTM         0.0621
     25 H          66.4298   46.0687    6.8539 H         1 RTM         0.0448
     26 H          66.3204   45.8189    8.6755 H         1 RTM         0.0448
     27 H          71.3615   45.3498    9.5652 H         1 RTM         0.0486
     28 H          70.1898   46.4553   10.3243 H         1 RTM         0.0486
     29 H          69.6197   44.9857    9.4958 H         1 RTM         0.0486
     30 H          70.2087   48.8242    9.4336 H         1 RTM         0.0287
     31 H          71.9372   48.6015    9.5595 H         1 RTM         0.0287
     32 H          73.4183   50.1486    7.5835 H         1 RTM         0.0265
     33 H          72.2411   50.7521    6.2766 H         1 RTM         0.0265
     34 H          71.6487   50.8679    8.8334 H         1 RTM         0.0266
     35 H          70.4294   50.3699    7.5874 H         1 RTM         0.0266
     36 H          73.6389   48.6098    5.8827 H         1 RTM         0.0266
     37 H          71.8558   48.6261    5.5154 H         1 RTM         0.0266
     38 H          73.2113   47.3276    7.9434 H         1 RTM         0.0287
     39 H          72.4905   46.4886    6.6548 H         1 RTM         0.0287
     40 H          70.4919   48.0351    6.9263 H         1 RTM         0.0558
     41 H          68.1094   44.4567    7.1022 H         1 RTM         0.0524
     42 H          68.4146   44.8291    8.7442 H         1 RTM         0.0524
     43 H          67.6423   47.3449   10.1237 H         1 RTM         0.0652
     44 H          68.6222   51.4983   12.2261 H         1 RTM         0.0596
     45 H          68.3375   53.2064   10.4391 H         1 RTM         0.0617
     46 H          67.6922   52.4908    8.1534 H         1 RTM         0.0597
     47 H          66.4706   47.5615    5.5139 H         1 RTM         0.1786
     48 H          66.5624   49.2917    5.1686 H         1 RTM         0.1786
@<TRIPOS>BOND
     1    1    5 ar 
     2    6    1 ar 
     3    2    9 1  
     4    2   15 1  
     5   16    2 am 
     6    4    3 ar 
     7    3   20 ar 
     8    4    5 ar 
     9   19    4 ar 
    10    5   22 ar 
    11    7    6 ar 
    12    6   23 1  
    13    8    7 1  
    14    7   19 ar 
    15   18    8 1  
    16   10   12 1  
    17   15   10 1  
    18   12   11 1  
    19   13   11 1  
    20   14   13 1  
    21   15   14 1  
    22   16   17 2  
    23   16   18 1  
    24   20   21 ar 
    25   21   22 ar 
    26    3   24 1  
    27    8   25 1  
    28    8   26 1  
    29    9   27 1  
    30    9   28 1  
    31    9   29 1  
    32   10   30 1  
    33   10   31 1  
    34   11   32 1  
    35   11   33 1  
    36   12   34 1  
    37   12   35 1  
    38   13   36 1  
    39   13   37 1  
    40   14   38 1  
    41   14   39 1  
    42   15   40 1  
    43   18   41 1  
    44   18   42 1  
    45   19   43 1  
    46   20   44 1  
    47   21   45 1  
    48   22   46 1  
    49   23   47 1  
    50   23   48 1  
@<TRIPOS>SUBSTRUCTURE
     1 RTM         1

