### 
### Created by X-TOOL on Mon Sep 10 21:13:07 2018
### 

@<TRIPOS>MOLECULE
3rtn_ligand
   58    61     1     0     0
SMALL
GAST_HUCK


@<TRIPOS>ATOM
      1 C4         68.2660   49.4580    8.9700 C.ar      1 RTN         0.0225
      2 C5         68.3570   48.3380    9.8160 C.ar      1 RTN        -0.0121
      3 C6         69.1840   48.3990   10.9570 C.ar      1 RTN        -0.0499
      4 C8         66.7800   48.3550    7.5360 C.ar      1 RTN         0.1140
      5 C10        67.6320   47.1810    9.4810 C.ar      1 RTN        -0.0407
      6 C13        71.0530   50.8320   14.4590 C.ar      1 RTN        -0.0683
      7 C15        72.6270   49.1450   13.7630 C.ar      1 RTN        -0.0597
      8 C17        72.4430   47.8850   11.6280 C.3       1 RTN        -0.0299
      9 C20        64.4060   46.8170    9.7580 C.2       1 RTN         0.1781
     10 C22        64.3080   49.2000   10.6720 C.3       1 RTN         0.0420
     11 C24        63.1430   51.0900   11.5940 C.3       1 RTN        -0.0510
     12 C26        65.3170   50.2600   12.7070 C.3       1 RTN        -0.0510
     13 C23        62.9310   49.6690   11.0700 C.3       1 RTN        -0.0299
     14 C25        64.0640   51.1210   12.8400 C.3       1 RTN        -0.0529
     15 C27        65.0620   48.9120   11.9700 C.3       1 RTN        -0.0299
     16 N21        64.3560   48.1400    9.6230 N.am      1 RTN        -0.2838
     17 O29        64.3060   46.2170   10.8170 O.2       1 RTN        -0.3969
     18 C19        64.5660   46.0460    8.4450 C.3       1 RTN         0.0467
     19 C18        66.0270   45.9090    7.9980 C.3       1 RTN         0.0031
     20 C9         66.8270   47.1830    8.3220 C.ar      1 RTN         0.0124
     21 N7         67.4950   49.4310    7.8780 N.ar      1 RTN        -0.2949
     22 N28        66.0450   48.4420    6.4240 N.pl3     1 RTN        -0.3200
     23 C3         68.9670   50.6220    9.2550 C.ar      1 RTN        -0.0502
     24 C2         69.7770   50.6690   10.3830 C.ar      1 RTN        -0.0568
     25 C1         69.9090   49.5660   11.2300 C.ar      1 RTN        -0.0227
     26 C11        70.7220   49.6940   12.3560 C.ar      1 RTN        -0.0170
     27 C12        70.3150   50.6400   13.2970 C.ar      1 RTN        -0.0608
     28 C14        72.2070   50.0900   14.6820 C.ar      1 RTN        -0.0686
     29 C16        71.8940   48.9500   12.5950 C.ar      1 RTN        -0.0374
     30 H          69.2587   47.5405   11.6244 H         1 RTN         0.0612
     31 H          67.6910   46.2924   10.1095 H         1 RTN         0.0648
     32 H          70.7264   51.5653   15.1963 H         1 RTN         0.0560
     33 H          73.5253   48.5572   13.9518 H         1 RTN         0.0556
     34 H          73.4484   48.1652   11.3137 H         1 RTN         0.0396
     35 H          72.4746   46.9195   12.1328 H         1 RTN         0.0396
     36 H          71.7933   47.8190   10.7553 H         1 RTN         0.0396
     37 H          64.8265   49.9864   10.1235 H         1 RTN         0.0556
     38 H          62.1722   51.4955   11.8788 H         1 RTN         0.0266
     39 H          63.6172   51.6755   10.8063 H         1 RTN         0.0266
     40 H          65.6639   50.0251   13.7133 H         1 RTN         0.0266
     41 H          66.0435   50.8235   12.1216 H         1 RTN         0.0266
     42 H          62.4815   49.0205   11.8220 H         1 RTN         0.0287
     43 H          62.2342   49.6436   10.2322 H         1 RTN         0.0287
     44 H          63.4883   50.7271   13.6776 H         1 RTN         0.0265
     45 H          64.3925   52.1517   12.9738 H         1 RTN         0.0265
     46 H          66.0117   48.4258   11.7471 H         1 RTN         0.0287
     47 H          64.4715   48.2494   12.6027 H         1 RTN         0.0287
     48 H          64.3495   48.4792    8.6611 H         1 RTN         0.1854
     49 H          64.0344   46.5990    7.6706 H         1 RTN         0.0524
     50 H          64.1734   45.0414    8.6022 H         1 RTN         0.0524
     51 H          66.0485   45.7482    6.9201 H         1 RTN         0.0448
     52 H          66.4770   45.0700    8.5287 H         1 RTN         0.0448
     53 H          65.4908   47.6433    6.1152 H         1 RTN         0.1787
     54 H          66.0380   49.3071    5.8837 H         1 RTN         0.1787
     55 H          68.8828   51.4898    8.6008 H         1 RTN         0.0598
     56 H          70.3207   51.5856   10.6117 H         1 RTN         0.0618
     57 H          69.4158   51.2302   13.1205 H         1 RTN         0.0602
     58 H          72.7869   50.2543   15.5902 H         1 RTN         0.0598
@<TRIPOS>BOND
     1    2    1 ar 
     2    1   21 ar 
     3   23    1 ar 
     4    3    2 ar 
     5    2    5 ar 
     6   25    3 ar 
     7   20    4 ar 
     8   21    4 ar 
     9    4   22 1  
    10    5   20 ar 
    11   27    6 ar 
    12    6   28 ar 
    13   28    7 ar 
    14    7   29 ar 
    15   29    8 1  
    16    9   16 am 
    17    9   17 2  
    18   18    9 1  
    19   10   13 1  
    20   10   15 1  
    21   16   10 1  
    22   13   11 1  
    23   11   14 1  
    24   12   14 1  
    25   15   12 1  
    26   19   18 1  
    27   20   19 1  
    28   24   23 ar 
    29   25   24 ar 
    30   26   25 1  
    31   26   27 ar 
    32   26   29 ar 
    33    3   30 1  
    34    5   31 1  
    35    6   32 1  
    36    7   33 1  
    37    8   34 1  
    38    8   35 1  
    39    8   36 1  
    40   10   37 1  
    41   11   38 1  
    42   11   39 1  
    43   12   40 1  
    44   12   41 1  
    45   13   42 1  
    46   13   43 1  
    47   14   44 1  
    48   14   45 1  
    49   15   46 1  
    50   15   47 1  
    51   16   48 1  
    52   18   49 1  
    53   18   50 1  
    54   19   51 1  
    55   19   52 1  
    56   22   53 1  
    57   22   54 1  
    58   23   55 1  
    59   24   56 1  
    60   27   57 1  
    61   28   58 1  
@<TRIPOS>SUBSTRUCTURE
     1 RTN         1

