### 
### Created by X-TOOL on Mon Sep 10 21:13:15 2018
### 

@<TRIPOS>MOLECULE
3rtp_ligand
   41    44     1     0     0
SMALL
GAST_HUCK


@<TRIPOS>ATOM
      1 C1         23.0820    4.3350   32.3630 C.ar      1 34I        -0.0472
      2 C2         23.5340    5.2220   31.3810 C.ar      1 34I         0.0743
      3 C3         24.8790    5.2140   31.0230 C.ar      1 34I        -0.0185
      4 C4         25.7720    4.3440   31.6500 C.ar      1 34I        -0.0733
      5 C5         25.3160    3.4670   32.6330 C.ar      1 34I        -0.0840
      6 C6         23.9680    3.4620   32.9900 C.ar      1 34I        -0.0825
      7 C7         25.3700    6.1670   29.9590 C.3       1 34I        -0.0057
      8 C8         24.5950    7.4710   30.1190 C.3       1 34I         0.0508
      9 C9         23.1020    7.2060   30.1720 C.2       1 34I         0.2081
     10 N10        22.6560    6.0690   30.7580 N.am      1 34I        -0.2029
     11 C11        21.2690    5.6060   30.7410 C.3       1 34I         0.1510
     12 C12        20.3090    6.4080   31.5920 C.2       1 34I         0.2443
     13 O13        19.2830    5.8640   31.9550 O.2       1 34I        -0.3759
     14 N14        20.6040    7.6090   31.8680 N.am      1 34I        -0.2020
     15 C15        19.8150    8.4440   32.6180 C.2       1 34I         0.1681
     16 S16        18.3640    8.0640   33.2840 S.3       1 34I         0.0198
     17 C17        17.9660    9.4830   34.0320 C.2       1 34I         0.0298
     18 C18        19.0310   10.3440   33.7630 C.2       1 34I         0.0791
     19 C19        20.1210    9.7540   32.9300 C.2       1 34I         0.0716
     20 C20        21.3650   10.4640   32.5100 C.2       1 34I         0.1282
     21 N21        21.4470   11.7970   32.4130 N.pl3     1 34I        -0.2049
     22 N22        22.7750   12.0010   32.0050 N.2       1 34I        -0.2096
     23 C23        23.3780   10.7870   31.8950 C.2       1 34I         0.0433
     24 N24        22.4980    9.8110   32.2160 N.2       1 34I        -0.3113
     25 C25        19.0420   11.5980   34.2230 C.1       1 34I         0.0697
     26 O26        22.3600    8.0400   29.6630 O.2       1 34I        -0.3852
     27 N27        19.0060   12.7040   34.5710 N.1       1 34I        -0.3499
     28 H1         22.0336    4.3267   32.6385 H         1 34I         0.0480
     29 H2         26.8199    4.3502   31.3727 H         1 34I         0.0513
     30 H3         26.0086    2.7896   33.1194 H         1 34I         0.0470
     31 H4         23.6106    2.7805   33.7535 H         1 34I         0.0520
     32 H5         25.1879    5.7419   28.9609 H         1 34I         0.0422
     33 H6         26.4467    6.3517   30.0880 H         1 34I         0.0422
     34 H7         24.8146    8.1285   29.2649 H         1 34I         0.0526
     35 H8         24.9072    7.9643   31.0513 H         1 34I         0.0526
     36 H9         21.2534    4.5662   31.0994 H         1 34I         0.0836
     37 H10        20.9118    5.6409   29.7012 H         1 34I         0.0836
     38 H11        21.4672    7.9714   31.5166 H         1 34I         0.2433
     39 H12        17.0682    9.6991   34.6092 H         1 34I         0.0818
     40 H13        20.7159   12.4998   32.5933 H         1 34I         0.2516
     41 H14        24.4121   10.6252   31.5942 H         1 34I         0.0830
@<TRIPOS>BOND
     1    1    2 ar 
     2    1    6 ar 
     3    2    3 ar 
     4    2   10 1  
     5    3    4 ar 
     6    3    7 1  
     7    4    5 ar 
     8    5    6 ar 
     9    7    8 1  
    10    8    9 1  
    11    9   10 am 
    12    9   26 2  
    13   10   11 1  
    14   11   12 1  
    15   12   13 2  
    16   12   14 am 
    17   14   15 1  
    18   15   16 1  
    19   15   19 2  
    20   16   17 1  
    21   17   18 2  
    22   18   19 1  
    23   18   25 1  
    24   19   20 1  
    25   20   21 1  
    26   20   24 2  
    27   21   22 1  
    28   22   23 2  
    29   23   24 1  
    30   25   27 3  
    31    1   28 1  
    32    4   29 1  
    33    5   30 1  
    34    6   31 1  
    35    7   32 1  
    36    7   33 1  
    37    8   34 1  
    38    8   35 1  
    39   11   36 1  
    40   11   37 1  
    41   14   38 1  
    42   17   39 1  
    43   21   40 1  
    44   23   41 1  
@<TRIPOS>SUBSTRUCTURE
     1 34I         1

