### 
### Created by X-TOOL on Mon Sep 10 21:13:07 2018
### 

@<TRIPOS>MOLECULE
3ru1_ligand
   48    50     1     0     0
SMALL
GAST_HUCK


@<TRIPOS>ATOM
      1 C4         68.3050   49.1390   11.2690 C.ar      1 3RU        -0.0557
      2 C5         67.6540   48.9940   10.0480 C.ar      1 3RU        -0.0115
      3 C6         67.8870   49.9060    9.0280 C.ar      1 3RU         0.0226
      4 C8         66.4110   48.7670    7.6130 C.ar      1 3RU         0.1140
      5 C10        66.7700   47.9430    9.8380 C.ar      1 3RU        -0.0402
      6 C13        63.7440   47.1920    8.3830 C.3       1 3RU         0.0467
      7 C17        62.4030   49.1250   11.3750 C.3       1 3RU         0.0337
      8 C20        65.1770   51.0190   13.2230 C.3       1 3RU        -0.0527
      9 C21        65.4010   52.1570   12.2260 C.3       1 3RU        -0.0530
     10 C22        64.0930   52.5830   11.5690 C.3       1 3RU        -0.0527
     11 C19        64.4670   49.8440   12.5550 C.3       1 3RU        -0.0484
     12 C23        63.3630   51.3880   10.9430 C.3       1 3RU        -0.0484
     13 C18        63.1270   50.3110   11.9940 C.3       1 3RU        -0.0208
     14 N15        62.9330   48.7670   10.0520 N.am      1 3RU        -0.2866
     15 C14        63.2410   47.5020    9.7970 C.2       1 3RU         0.1779
     16 O16        63.1320   46.6100   10.6320 O.2       1 3RU        -0.3969
     17 C12        65.1740   46.6560    8.4160 C.3       1 3RU         0.0032
     18 C9         66.1380   47.8210    8.6040 C.ar      1 3RU         0.0128
     19 C1         69.1870   50.1960   11.4650 C.ar      1 3RU        -0.0632
     20 C2         69.4240   51.1100   10.4480 C.ar      1 3RU        -0.0635
     21 C3         68.7700   50.9600    9.2310 C.ar      1 3RU        -0.0505
     22 N7         67.2690   49.7720    7.8460 N.ar      1 3RU        -0.2950
     23 N11        65.8220   48.6700    6.4180 N.pl3     1 3RU        -0.3199
     24 H1         68.1247   48.4282   12.0673 H         1 3RU         0.0621
     25 H2         66.5746   47.2256   10.6268 H         1 3RU         0.0652
     26 H3         63.7189   48.1131    7.7822 H         1 3RU         0.0524
     27 H4         63.0876   46.4375    7.9250 H         1 3RU         0.0524
     28 H5         61.3375   49.3779   11.2710 H         1 3RU         0.0522
     29 H6         62.5106   48.2584   12.0438 H         1 3RU         0.0522
     30 H7         64.5603   51.3861   14.0566 H         1 3RU         0.0265
     31 H8         66.1501   50.6804   13.6082 H         1 3RU         0.0265
     32 H9         66.0997   51.8185   11.4468 H         1 3RU         0.0265
     33 H10        65.8327   53.0185   12.7565 H         1 3RU         0.0265
     34 H11        64.3116   53.3202   10.7824 H         1 3RU         0.0265
     35 H12        63.4432   53.0402   12.3297 H         1 3RU         0.0265
     36 H13        64.2971   49.0491   13.2961 H         1 3RU         0.0269
     37 H14        65.0914   49.4554   11.7370 H         1 3RU         0.0269
     38 H15        63.9750   50.9736   10.1283 H         1 3RU         0.0269
     39 H16        62.3953   51.7225   10.5410 H         1 3RU         0.0269
     40 H17        62.5145   50.7266   12.8077 H         1 3RU         0.0320
     41 H18        63.0601   49.4692    9.3515 H         1 3RU         0.1851
     42 H19        65.3970   46.1424    7.4692 H         1 3RU         0.0448
     43 H20        65.2833   45.9488    9.2514 H         1 3RU         0.0448
     44 H21        69.6923   50.3067   12.4176 H         1 3RU         0.0596
     45 H22        70.1126   51.9330   10.6014 H         1 3RU         0.0617
     46 H23        68.9501   51.6713    8.4330 H         1 3RU         0.0597
     47 H24        66.0228   49.3671    5.6868 H         1 3RU         0.1786
     48 H25        65.1671   47.8981    6.2278 H         1 3RU         0.1786
@<TRIPOS>BOND
     1    2    1 ar 
     2    1   19 ar 
     3    2    3 ar 
     4    5    2 ar 
     5    3   21 ar 
     6   22    3 ar 
     7   18    4 ar 
     8    4   22 ar 
     9    4   23 1  
    10   18    5 ar 
    11    6   15 1  
    12   17    6 1  
    13    7   13 1  
    14   14    7 1  
    15    8    9 1  
    16   11    8 1  
    17   10    9 1  
    18   12   10 1  
    19   13   11 1  
    20   13   12 1  
    21   15   14 am 
    22   15   16 2  
    23   17   18 1  
    24   19   20 ar 
    25   20   21 ar 
    26    1   24 1  
    27    5   25 1  
    28    6   26 1  
    29    6   27 1  
    30    7   28 1  
    31    7   29 1  
    32    8   30 1  
    33    8   31 1  
    34    9   32 1  
    35    9   33 1  
    36   10   34 1  
    37   10   35 1  
    38   11   36 1  
    39   11   37 1  
    40   12   38 1  
    41   12   39 1  
    42   13   40 1  
    43   14   41 1  
    44   17   42 1  
    45   17   43 1  
    46   19   44 1  
    47   20   45 1  
    48   21   46 1  
    49   23   47 1  
    50   23   48 1  
@<TRIPOS>SUBSTRUCTURE
     1 3RU         1

