### 
### Created by X-TOOL on Mon Sep 10 21:13:06 2018
### 

@<TRIPOS>MOLECULE
3rux_ligand
   67    71     1     0     0
SMALL
GAST_HUCK


@<TRIPOS>ATOM
      1 S          -4.0920   -4.9830    6.3300 S.o2      1 BS5         0.1391
      2 N1         -7.8300   -1.0370   13.4530 N.ar      1 BS5        -0.2698
      3 C2         -8.1340   -0.8270   12.1590 C.ar      1 BS5         0.0533
      4 N3         -7.2130   -0.5570   11.2140 N.ar      1 BS5        -0.2714
      5 C4         -5.9000   -0.4970   11.5290 C.ar      1 BS5         0.1613
      6 C5         -5.4870   -0.7140   12.9210 C.ar      1 BS5         0.1045
      7 C6         -6.5570   -0.9990   13.9030 C.ar      1 BS5         0.1298
      8 N6         -6.2680   -1.2180   15.2090 N.pl3     1 BS5        -0.3152
      9 N7         -4.1440   -0.5920   12.9520 N.2       1 BS5        -0.2958
     10 C8         -3.7370   -0.3140   11.6850 C.2       1 BS5         0.1123
     11 N9         -4.7860   -0.2600   10.8410 N.pl3     1 BS5        -0.1919
     12 C1'        -4.7280    0.0070    9.3880 C.3       1 BS5         0.2009
     13 N1B        -0.5630  -10.3490   15.3780 N.am      1 BS5        -0.2671
     14 S1B        -3.3960   -8.6010   15.7040 S.3       1 BS5        -0.1527
     15 C2'        -3.3930    0.6150    9.0130 C.3       1 BS5         0.1385
     16 O2'        -3.6520    1.5980    8.0050 O.3       1 BS5        -0.3836
     17 C2B        -3.4780   -9.0630   14.0020 C.3       1 BS5         0.0302
     18 N2B        -1.0550   -9.2430   13.5610 N.am      1 BS5        -0.2668
     19 C3'        -2.6110   -0.5180    8.3840 C.3       1 BS5         0.1139
     20 O3'        -1.7750   -0.0310    7.3320 O.3       1 BS5        -0.3864
     21 C3B        -0.1300   -9.4560   14.4950 C.2       1 BS5         0.2580
     22 O3B         0.9630   -8.9020   14.5500 O.2       1 BS5        -0.4008
     23 C4'        -3.7040   -1.4120    7.8370 C.3       1 BS5         0.1073
     24 O4'        -4.8030   -1.2650    8.7390 O.3       1 BS5        -0.3375
     25 C4B        -2.2710   -9.9810   13.8340 C.3       1 BS5         0.0775
     26 C5'        -3.3050   -2.8760    7.7270 C.3       1 BS5         0.0570
     27 N5'        -4.3580   -3.5610    7.0050 N.am      1 BS5        -0.2288
     28 C5B        -1.9490  -10.6900   15.1510 C.3       1 BS5         0.0750
     29 C6B        -2.8150  -10.1590   16.2930 C.3       1 BS5         0.0190
     30 C7B        -3.4800   -7.8750   13.0450 C.3       1 BS5        -0.0388
     31 C8B        -3.7070   -8.3360   11.6100 C.3       1 BS5        -0.0499
     32 C9B        -4.1370   -7.1770   10.7110 C.3       1 BS5        -0.0360
     33 CAB        -4.1180   -7.5730    9.2300 C.3       1 BS5         0.0388
     34 CBB        -4.5570   -6.4130    8.3630 C.2       1 BS5         0.1971
     35 NBB        -3.7180   -6.0270    7.3930 N.am      1 BS5        -0.1416
     36 OCB        -5.6370   -5.8910    8.5640 O.2       1 BS5        -0.3954
     37 OP1        -5.2910   -5.3690    5.6450 O.2       1 BS5        -0.1307
     38 OP2        -3.0040   -4.8650    5.4010 O.2       1 BS5        -0.1307
     39 H1         -9.1751   -0.8778   11.8615 H         1 BS5         0.0996
     40 H2         -5.2908   -1.1847   15.5328 H         1 BS5         0.1820
     41 H3         -7.0256   -1.4177   15.8776 H         1 BS5         0.1820
     42 H4         -2.7004   -0.1559   11.3911 H         1 BS5         0.1349
     43 H5         -5.5538    0.6651    9.0800 H         1 BS5         0.0996
     44 H6         -0.0005  -10.7367   16.1082 H         1 BS5         0.1849
     45 H7         -2.8709    1.0477    9.8791 H         1 BS5         0.0676
     46 H8         -4.2380    2.2600    8.3529 H         1 BS5         0.2101
     47 H9         -4.4008   -9.6336   13.8209 H         1 BS5         0.0435
     48 H10        -0.9259   -8.6468   12.7686 H         1 BS5         0.1849
     49 H11        -1.9992   -1.0456    9.1305 H         1 BS5         0.0648
     50 H12        -2.3134    0.3788    6.6652 H         1 BS5         0.2100
     51 H13        -3.9918   -1.0583    6.8360 H         1 BS5         0.0640
     52 H14        -2.4754  -10.7064   13.0327 H         1 BS5         0.0587
     53 H15        -3.1934   -3.3114    8.7310 H         1 BS5         0.0502
     54 H16        -2.3547   -2.9663    7.1804 H         1 BS5         0.0502
     55 H17        -5.2611   -3.1385    6.9287 H         1 BS5         0.1690
     56 H18        -2.0835  -11.7778   15.0582 H         1 BS5         0.0584
     57 H19        -3.6561  -10.8389   16.4938 H         1 BS5         0.0399
     58 H20        -2.2189  -10.0326   17.2088 H         1 BS5         0.0399
     59 H21        -2.5107   -7.3589   13.1088 H         1 BS5         0.0277
     60 H22        -4.2842   -7.1817   13.3325 H         1 BS5         0.0277
     61 H23        -4.4931   -9.1054   11.6018 H         1 BS5         0.0267
     62 H24        -2.7716   -8.7632   11.2195 H         1 BS5         0.0267
     63 H25        -3.4485   -6.3328   10.8634 H         1 BS5         0.0290
     64 H26        -5.1576   -6.8720   10.9857 H         1 BS5         0.0290
     65 H27        -4.8018   -8.4203    9.0735 H         1 BS5         0.0503
     66 H28        -3.0968   -7.8689    8.9479 H         1 BS5         0.0503
     67 H29        -2.8066   -6.4371    7.3592 H         1 BS5         0.2159
@<TRIPOS>BOND
     1    1   27 am 
     2   35    1 am 
     3    1   37 2  
     4    1   38 2  
     5    3    2 ar 
     6    7    2 ar 
     7    4    3 ar 
     8    5    4 ar 
     9    5    6 ar 
    10   11    5 1  
    11    6    7 ar 
    12    9    6 1  
    13    7    8 1  
    14   10    9 2  
    15   11   10 1  
    16   12   11 1  
    17   12   15 1  
    18   24   12 1  
    19   13   21 am 
    20   28   13 1  
    21   17   14 1  
    22   14   29 1  
    23   15   16 1  
    24   19   15 1  
    25   17   25 1  
    26   30   17 1  
    27   18   21 am 
    28   25   18 1  
    29   19   20 1  
    30   23   19 1  
    31   21   22 2  
    32   23   24 1  
    33   26   23 1  
    34   25   28 1  
    35   27   26 1  
    36   28   29 1  
    37   31   30 1  
    38   32   31 1  
    39   33   32 1  
    40   34   33 1  
    41   34   35 am 
    42   34   36 2  
    43    3   39 1  
    44    8   40 1  
    45    8   41 1  
    46   10   42 1  
    47   12   43 1  
    48   13   44 1  
    49   15   45 1  
    50   16   46 1  
    51   17   47 1  
    52   18   48 1  
    53   19   49 1  
    54   20   50 1  
    55   23   51 1  
    56   25   52 1  
    57   26   53 1  
    58   26   54 1  
    59   27   55 1  
    60   28   56 1  
    61   29   57 1  
    62   29   58 1  
    63   30   59 1  
    64   30   60 1  
    65   31   61 1  
    66   31   62 1  
    67   32   63 1  
    68   32   64 1  
    69   33   65 1  
    70   33   66 1  
    71   35   67 1  
@<TRIPOS>SUBSTRUCTURE
     1 BS5         1

