### 
### Created by X-TOOL on Mon Sep 10 21:13:09 2018
### 

@<TRIPOS>MOLECULE
3rv6_ligand
   32    33     1     0     0
SMALL
GAST_HUCK


@<TRIPOS>ATOM
      1 C          11.9800   42.0910   24.7790 C.2       1 VAE         0.0557
      2 C'         13.4380   42.1400   30.9360 C.2       1 VAE         0.1064
      3 C1         12.0080   42.7250   26.0770 C.ar      1 VAE         0.0322
      4 C2         11.6840   41.9780   27.2110 C.ar      1 VAE         0.1384
      5 O2         11.3190   40.5280   27.1610 O.3       1 VAE        -0.3317
      6 C3         11.7000   42.5810   28.5370 C.ar      1 VAE         0.1550
      7 O3         11.3390   41.6330   29.4820 O.3       1 VAE        -0.2465
      8 C4         12.0150   43.8690   28.5960 C.ar      1 VAE        -0.0323
      9 C5         12.2960   44.6340   27.3930 C.ar      1 VAE        -0.0766
     10 C6         12.3680   44.1150   26.2510 C.ar      1 VAE        -0.0662
     11 C7         11.8990   41.8060   30.8550 C.2       1 VAE         0.1555
     12 C8         11.1300   41.6790   31.8360 C.2       1 VAE        -0.0230
     13 C9         11.3420   41.7630   33.3420 C.ar      1 VAE        -0.0404
     14 OA         11.5910   40.7960   24.6950 O.co2     1 VAE        -0.5646
     15 OB         12.2980   42.7610   23.8350 O.co2     1 VAE        -0.5646
     16 C10        12.6470   41.4290   34.0890 C.ar      1 VAE        -0.0632
     17 C11        12.8170   41.5260   35.4340 C.ar      1 VAE        -0.0675
     18 C12        11.7570   41.8970   36.1980 C.ar      1 VAE        -0.0674
     19 C13        10.4090   42.2780   35.6780 C.ar      1 VAE        -0.0675
     20 C14        10.2510   42.1870   34.1500 C.ar      1 VAE        -0.0632
     21 OA'        13.6990   43.1120   31.6510 O.co2     1 VAE        -0.5548
     22 OB'        14.1470   41.6040   30.3100 O.co2     1 VAE        -0.5548
     23 H          11.1347   40.2147   28.0495 H         1 VAE         0.2468
     24 H          12.0639   44.3629   29.5665 H         1 VAE         0.0546
     25 H          12.4517   45.7088   27.4857 H         1 VAE         0.0506
     26 H          12.6991   44.7076   25.3982 H         1 VAE         0.0537
     27 H          10.0991   41.4647   31.5543 H         1 VAE         0.0437
     28 H          13.4962   41.0901   33.4956 H         1 VAE         0.0570
     29 H          13.7834   41.3107   35.8898 H         1 VAE         0.0602
     30 H          11.9014   41.9185   37.2782 H         1 VAE         0.0570
     31 H           9.5977   42.5968   36.3325 H         1 VAE         0.0602
     32 H           9.3002   42.4483   33.6855 H         1 VAE         0.0570
@<TRIPOS>BOND
     1    3    1 1  
     2    1   14 ar 
     3    1   15 ar 
     4   11    2 1  
     5    2   21 ar 
     6    2   22 ar 
     7    4    3 ar 
     8    3   10 ar 
     9    4    5 1  
    10    6    4 ar 
    11    7    6 1  
    12    6    8 ar 
    13    7   11 1  
    14    8    9 ar 
    15    9   10 ar 
    16   11   12 2  
    17   12   13 1  
    18   13   16 ar 
    19   13   20 ar 
    20   16   17 ar 
    21   17   18 ar 
    22   18   19 ar 
    23   19   20 ar 
    24    5   23 1  
    25    8   24 1  
    26    9   25 1  
    27   10   26 1  
    28   12   27 1  
    29   16   28 1  
    30   17   29 1  
    31   18   30 1  
    32   19   31 1  
    33   20   32 1  
@<TRIPOS>SUBSTRUCTURE
     1 VAE         1

