### 
### Created by X-TOOL on Mon Sep 10 21:13:09 2018
### 

@<TRIPOS>MOLECULE
3rv7_ligand
   31    31     1     0     0
SMALL
GAST_HUCK


@<TRIPOS>ATOM
      1 C10        41.5620   -1.7870   38.9920 C.3       1 RVB        -0.0558
      2 C11        43.9080   -1.1790   38.9660 C.3       1 RVB        -0.0558
      3 OA'        40.8970    3.7960   39.2690 O.co2     1 RVB        -0.5624
      4 OA         40.0560    2.6620   33.0550 O.co2     1 RVB        -0.5646
      5 OB'        40.4960    2.2320   40.6920 O.co2     1 RVB        -0.5624
      6 OB         37.9840    2.3730   32.9350 O.co2     1 RVB        -0.5646
      7 O2         41.2690    2.3280   34.9780 O.3       1 RVB        -0.3325
      8 C8         42.2330    0.5590   39.3680 C.2       1 RVB        -0.0500
      9 C5         37.9120    1.1060   36.8580 C.ar      1 RVB        -0.0777
     10 C4         39.1200    1.1120   37.5470 C.ar      1 RVB        -0.0348
     11 C6         37.8360    1.5060   35.5350 C.ar      1 RVB        -0.0672
     12 O3         41.5340    1.6050   37.4060 O.3       1 RVB        -0.2696
     13 C'         40.9870    2.6110   39.6100 C.2       1 RVB         0.0845
     14 C          39.0030    2.3320   33.5860 C.2       1 RVB         0.0554
     15 C7         41.7500    1.6260   38.7410 C.2       1 RVB         0.1288
     16 C2         40.1640    1.9260   35.5960 C.ar      1 RVB         0.1358
     17 C3         40.2680    1.5400   36.8980 C.ar      1 RVB         0.1443
     18 C1         38.9880    1.9210   34.8930 C.ar      1 RVB         0.0311
     19 C9         42.5280   -0.6980   38.5880 C.3       1 RVB        -0.0269
     20 H          41.6692   -1.9890   40.0577 H         1 RVB         0.0252
     21 H          40.5426   -1.4625   38.7832 H         1 RVB         0.0252
     22 H          41.7797   -2.6925   38.4256 H         1 RVB         0.0252
     23 H          44.6393   -0.4080   38.7232 H         1 RVB         0.0252
     24 H          43.9386   -1.3868   40.0356 H         1 RVB         0.0252
     25 H          44.1391   -2.0883   38.4112 H         1 RVB         0.0252
     26 H          41.0583    2.5700   34.0732 H         1 RVB         0.2464
     27 H          42.4155    0.5917   40.4421 H         1 RVB         0.0479
     28 H          37.0068    0.7797   37.3701 H         1 RVB         0.0503
     29 H          39.1638    0.7839   38.5855 H         1 RVB         0.0536
     30 H          36.8823    1.4940   35.0073 H         1 RVB         0.0529
     31 H          42.4464   -0.4856   37.5220 H         1 RVB         0.0421
@<TRIPOS>BOND
     1   19    1 1  
     2   19    2 1  
     3   13    3 ar 
     4   14    4 ar 
     5   13    5 ar 
     6   14    6 ar 
     7   16    7 1  
     8   15    8 2  
     9    8   19 1  
    10   10    9 ar 
    11    9   11 ar 
    12   17   10 ar 
    13   11   18 ar 
    14   12   15 1  
    15   17   12 1  
    16   15   13 1  
    17   18   14 1  
    18   16   17 ar 
    19   16   18 ar 
    20    1   20 1  
    21    1   21 1  
    22    1   22 1  
    23    2   23 1  
    24    2   24 1  
    25    2   25 1  
    26    7   26 1  
    27    8   27 1  
    28    9   28 1  
    29   10   29 1  
    30   11   30 1  
    31   19   31 1  
@<TRIPOS>SUBSTRUCTURE
     1 RVB         1

