### 
### Created by X-TOOL on Mon Sep 10 21:13:10 2018
### 

@<TRIPOS>MOLECULE
3rv8_ligand
   27    28     1     0     0
SMALL
GAST_HUCK


@<TRIPOS>ATOM
      1 OB'        -3.3480   -7.0600   30.0620 O.co2     1 RVC        -0.5646
      2 OB         -0.7150   -5.6570   23.9090 O.co2     1 RVC        -0.5674
      3 OA'        -1.3260   -7.0740   30.6930 O.co2     1 RVC        -0.5646
      4 OA          1.3010   -6.0330   23.9040 O.co2     1 RVC        -0.5674
      5 O2         -1.8190   -5.0560   25.8290 O.2       1 RVC        -0.4029
      6 C8         -2.4070   -4.2320   30.5940 C.2       1 RVC        -0.0485
      7 C5          1.3470   -5.9870   27.9510 C.2       1 RVC        -0.0427
      8 C4          0.2200   -5.5880   28.6170 C.2       1 RVC        -0.0037
      9 C6          1.4210   -6.0890   26.5930 C.2       1 RVC        -0.0436
     10 C10        -2.3900   -1.9160   31.3010 C.2       1 RVC        -0.0647
     11 C11        -3.7710   -2.1640   30.8610 C.2       1 RVC        -0.0647
     12 O3         -2.0270   -4.8730   28.4040 O.3       1 RVC        -0.2908
     13 C'         -2.2650   -6.5120   30.1720 C.2       1 RVC         0.0757
     14 C           0.3070   -5.8130   24.5190 C.2       1 RVC         0.0559
     15 C7         -2.0840   -5.1260   29.7110 C.2       1 RVC         0.1081
     16 C2         -0.7810   -5.3570   26.5440 C.2       1 RVC         0.1607
     17 C3         -0.8730   -5.2670   27.8870 C.3       1 RVC         0.1861
     18 C1          0.3260   -5.7510   25.8760 C.2       1 RVC         0.0535
     19 C9         -2.6430   -2.8130   30.1900 C.3       1 RVC         0.0182
     20 H1         -2.5071   -4.5186   31.6398 H         1 RVC         0.0458
     21 H2          2.2311   -6.2361   28.5361 H         1 RVC         0.0522
     22 H3          0.2034   -5.5305   29.7044 H         1 RVC         0.0968
     23 H4          2.3313   -6.4311   26.1029 H         1 RVC         0.0782
     24 H5         -1.6892   -1.4206   31.9714 H         1 RVC         0.0628
     25 H6         -4.8417   -1.9920   30.9606 H         1 RVC         0.0628
     26 H7         -0.5372   -4.2199   27.8581 H         1 RVC         0.1138
     27 H8         -2.3664   -2.5963   29.1476 H         1 RVC         0.0551
@<TRIPOS>BOND
     1   13    1 ar 
     2   14    2 ar 
     3   13    3 ar 
     4   14    4 ar 
     5   16    5 2  
     6   15    6 2  
     7    6   19 1  
     8    8    7 2  
     9    7    9 1  
    10   17    8 1  
    11    9   18 2  
    12   11   10 2  
    13   19   10 1  
    14   19   11 1  
    15   12   15 1  
    16   17   12 1  
    17   15   13 1  
    18   18   14 1  
    19   16   17 1  
    20   16   18 1  
    21    6   20 1  
    22    7   21 1  
    23    8   22 1  
    24    9   23 1  
    25   10   24 1  
    26   11   25 1  
    27   17   26 1  
    28   19   27 1  
@<TRIPOS>SUBSTRUCTURE
     1 RVC         1

