### 
### Created by X-TOOL on Mon Sep 10 21:13:10 2018
### 

@<TRIPOS>MOLECULE
3rv9_ligand
   28    28     1     0     0
SMALL
GAST_HUCK


@<TRIPOS>ATOM
      1 CAA        37.2590    4.7980   32.1600 C.3       1 RVD        -0.0588
      2 OAB        37.0250   -0.4870   31.3540 O.co2     1 RVD        -0.5623
      3 OAC        39.3270    0.0110   25.9770 O.co2     1 RVD        -0.5674
      4 OAD        37.5760   -0.1140   33.3900 O.co2     1 RVD        -0.5623
      5 OAE        41.2400   -0.8880   26.2080 O.co2     1 RVD        -0.5674
      6 OAF        38.2490    1.0310   28.0600 O.2       1 RVD        -0.4029
      7 CAG        38.1540    2.6060   32.4680 C.2       1 RVD        -0.0576
      8 CAH        41.6320    0.3240   30.1750 C.2       1 RVD        -0.0427
      9 CAI        40.5570    0.9350   30.7840 C.2       1 RVD        -0.0034
     10 CAJ        41.5490   -0.0470   28.8490 C.2       1 RVD        -0.0436
     11 CAK        38.3240    3.8090   31.7960 C.3       1 RVD        -0.0373
     12 OAL        38.4030    1.7260   30.5140 O.3       1 RVD        -0.2857
     13 CAM        37.5550    0.1970   32.2160 C.2       1 RVD         0.0814
     14 CAN        40.3260   -0.2440   26.6360 C.2       1 RVD         0.0559
     15 CAO        38.2340    1.4950   31.7830 C.2       1 RVD         0.1140
     16 CAP        39.3660    0.7770   28.7130 C.2       1 RVD         0.1610
     17 CAQ        39.4410    1.1440   30.0250 C.3       1 RVD         0.1878
     18 CAR        40.4260    0.1860   28.0930 C.2       1 RVD         0.0535
     19 H          36.2823    4.3912   31.8978 H         1 RVD         0.0249
     20 H          37.2970    4.9930   33.2317 H         1 RVD         0.0249
     21 H          37.4256    5.7267   31.6143 H         1 RVD         0.0249
     22 H          37.9587    2.5881   33.5402 H         1 RVD         0.0454
     23 H          42.5450    0.1345   30.7395 H         1 RVD         0.0522
     24 H          40.5960    1.2393   31.8299 H         1 RVD         0.0968
     25 H          42.4028   -0.5414   28.3857 H         1 RVD         0.0782
     26 H          39.2917    4.2260   32.0749 H         1 RVD         0.0383
     27 H          38.2646    3.6169   30.7247 H         1 RVD         0.0383
     28 H          40.2543    0.5907   30.4945 H         1 RVD         0.1141
@<TRIPOS>BOND
     1   11    1 1  
     2   13    2 ar 
     3   14    3 ar 
     4   13    4 ar 
     5   14    5 ar 
     6   16    6 2  
     7    7   11 1  
     8   15    7 2  
     9    9    8 2  
    10    8   10 1  
    11   17    9 1  
    12   10   18 2  
    13   12   15 1  
    14   17   12 1  
    15   15   13 1  
    16   18   14 1  
    17   16   17 1  
    18   16   18 1  
    19    1   19 1  
    20    1   20 1  
    21    1   21 1  
    22    7   22 1  
    23    8   23 1  
    24    9   24 1  
    25   10   25 1  
    26   11   26 1  
    27   11   27 1  
    28   17   28 1  
@<TRIPOS>SUBSTRUCTURE
     1 RVD         1

