### 
### Created by X-TOOL on Mon Sep 10 21:13:07 2018
### 

@<TRIPOS>MOLECULE
3rvi_ligand
   70    73     1     0     0
SMALL
GAST_HUCK


@<TRIPOS>ATOM
      1 C4         70.7030   49.9630   12.2580 C.ar      1 RVI        -0.0170
      2 C5         71.8210   49.1330   12.4580 C.ar      1 RVI        -0.0374
      3 C6         72.6050   49.2960   13.6000 C.ar      1 RVI        -0.0597
      4 C7         69.8760   49.8480   11.1380 C.ar      1 RVI        -0.0227
      5 C8         69.8670   50.8640   10.1790 C.ar      1 RVI        -0.0568
      6 C10        69.0360   48.7410   10.9820 C.ar      1 RVI        -0.0499
      7 C15        66.5510   47.4750    8.5460 C.ar      1 RVI         0.0127
      8 C17        72.2230   48.0350   11.4560 C.3       1 RVI        -0.0299
      9 C20        64.1780   46.6430    8.6500 C.3       1 RVI         0.0580
     10 C21        63.9470   47.1640   10.0750 C.2       1 RVI         0.1810
     11 C24        64.0420   50.0900   11.9950 C.3       1 RVI        -0.0208
     12 C26        65.0240   52.3920   11.7360 C.3       1 RVI        -0.0527
     13 C28        66.3000   50.5730   12.9870 C.3       1 RVI        -0.0527
     14 C25        64.1700   51.2960   11.0610 C.3       1 RVI        -0.0484
     15 C27        66.4070   51.8650   12.1630 C.3       1 RVI        -0.0530
     16 C29        65.4380   49.5190   12.2690 C.3       1 RVI        -0.0484
     17 C23        63.0750   49.0270   11.4460 C.3       1 RVI         0.0337
     18 N22        63.4440   48.3990   10.1540 N.am      1 RVI        -0.2863
     19 O30        64.1940   46.4500   11.0510 O.2       1 RVI        -0.3966
     20 C31        63.2510   45.4320    8.4160 C.3       1 RVI        -0.0317
     21 C32        61.7750   45.8220    8.6220 C.3       1 RVI        -0.0534
     22 C33        60.8400   44.6100    8.7090 C.3       1 RVI        -0.0651
     23 C19        65.6480   46.2430    8.4160 C.3       1 RVI         0.0059
     24 C14        66.6030   48.5320    7.6260 C.ar      1 RVI         0.1140
     25 N13        67.4210   49.5790    7.8270 N.ar      1 RVI        -0.2949
     26 N18        65.8520   48.5270    6.5290 N.pl3     1 RVI        -0.3200
     27 C16        67.3720   47.5450    9.6750 C.ar      1 RVI        -0.0407
     28 C11        68.2120   48.6450    9.8580 C.ar      1 RVI        -0.0121
     29 C12        68.2140   49.6630    8.9050 C.ar      1 RVI         0.0225
     30 C9         69.0390   50.7710    9.0650 C.ar      1 RVI        -0.0502
     31 C3         70.3920   50.9440   13.2040 C.ar      1 RVI        -0.0608
     32 C2         71.1790   51.1000   14.3400 C.ar      1 RVI        -0.0683
     33 C1         72.2850   50.2790   14.5350 C.ar      1 RVI        -0.0686
     34 H          73.4702   48.6530   13.7617 H         1 RVI         0.0556
     35 H          70.5119   51.7338   10.3043 H         1 RVI         0.0618
     36 H          69.0242   47.9542   11.7363 H         1 RVI         0.0612
     37 H          71.4071   47.3191   11.3568 H         1 RVI         0.0396
     38 H          72.4305   48.4879   10.4865 H         1 RVI         0.0396
     39 H          73.1149   47.5235   11.8179 H         1 RVI         0.0396
     40 H          63.9490   47.4404    7.9430 H         1 RVI         0.0560
     41 H          63.6048   50.4196   12.9375 H         1 RVI         0.0320
     42 H          64.4985   52.7321   12.6284 H         1 RVI         0.0265
     43 H          65.1734   53.1982   11.0178 H         1 RVI         0.0265
     44 H          65.8327   50.8097   13.9429 H         1 RVI         0.0265
     45 H          67.3018   50.1659   13.1242 H         1 RVI         0.0265
     46 H          63.1777   51.6930   10.8469 H         1 RVI         0.0269
     47 H          64.6508   50.9844   10.1337 H         1 RVI         0.0269
     48 H          66.8859   52.6249   12.7805 H         1 RVI         0.0265
     49 H          66.9826   51.6490   11.2629 H         1 RVI         0.0265
     50 H          65.9097   49.2505   11.3238 H         1 RVI         0.0269
     51 H          65.3485   48.6352   12.9006 H         1 RVI         0.0269
     52 H          62.1295   49.5408   11.2722 H         1 RVI         0.0522
     53 H          63.0641   48.2216   12.1803 H         1 RVI         0.0522
     54 H          63.3086   48.9299    9.2937 H         1 RVI         0.1851
     55 H          63.5097   44.6494    9.1293 H         1 RVI         0.0294
     56 H          63.3818   45.0831    7.3917 H         1 RVI         0.0294
     57 H          61.4665   46.4177    7.7629 H         1 RVI         0.0264
     58 H          61.7038   46.3639    9.5650 H         1 RVI         0.0264
     59 H          60.9049   44.0356    7.7849 H         1 RVI         0.0230
     60 H          61.1372   43.9830    9.5496 H         1 RVI         0.0230
     61 H          59.8155   44.9527    8.8541 H         1 RVI         0.0230
     62 H          65.9417   45.5020    9.1595 H         1 RVI         0.0451
     63 H          65.7519   45.8252    7.4146 H         1 RVI         0.0451
     64 H          65.9073   49.3032    5.8695 H         1 RVI         0.1787
     65 H          65.2205   47.7470    6.3468 H         1 RVI         0.1787
     66 H          67.3564   46.7418   10.4117 H         1 RVI         0.0648
     67 H          69.0369   51.5654    8.3187 H         1 RVI         0.0598
     68 H          69.5278   51.5903   13.0505 H         1 RVI         0.0602
     69 H          70.9297   51.8642   15.0762 H         1 RVI         0.0560
     70 H          72.9042   50.4050   15.4231 H         1 RVI         0.0598
@<TRIPOS>BOND
     1    1    2 ar 
     2    4    1 1  
     3    1   31 ar 
     4    2    3 ar 
     5    2    8 1  
     6    3   33 ar 
     7    4    5 ar 
     8    6    4 ar 
     9    5   30 ar 
    10   28    6 ar 
    11    7   23 1  
    12    7   24 ar 
    13   27    7 ar 
    14    9   10 1  
    15    9   20 1  
    16   23    9 1  
    17   10   18 am 
    18   10   19 2  
    19   11   14 1  
    20   11   16 1  
    21   17   11 1  
    22   14   12 1  
    23   12   15 1  
    24   13   15 1  
    25   16   13 1  
    26   18   17 1  
    27   20   21 1  
    28   21   22 1  
    29   24   25 ar 
    30   24   26 1  
    31   25   29 ar 
    32   27   28 ar 
    33   28   29 ar 
    34   29   30 ar 
    35   31   32 ar 
    36   32   33 ar 
    37    3   34 1  
    38    5   35 1  
    39    6   36 1  
    40    8   37 1  
    41    8   38 1  
    42    8   39 1  
    43    9   40 1  
    44   11   41 1  
    45   12   42 1  
    46   12   43 1  
    47   13   44 1  
    48   13   45 1  
    49   14   46 1  
    50   14   47 1  
    51   15   48 1  
    52   15   49 1  
    53   16   50 1  
    54   16   51 1  
    55   17   52 1  
    56   17   53 1  
    57   18   54 1  
    58   20   55 1  
    59   20   56 1  
    60   21   57 1  
    61   21   58 1  
    62   22   59 1  
    63   22   60 1  
    64   22   61 1  
    65   23   62 1  
    66   23   63 1  
    67   26   64 1  
    68   26   65 1  
    69   27   66 1  
    70   30   67 1  
    71   31   68 1  
    72   32   69 1  
    73   33   70 1  
@<TRIPOS>SUBSTRUCTURE
     1 RVI         1

