### 
### Created by X-TOOL on Mon Sep 10 21:13:05 2018
### 

@<TRIPOS>MOLECULE
3rwp_ligand
   58    62     1     0     0
SMALL
GAST_HUCK


@<TRIPOS>ATOM
      1 C1         41.6170   27.5890   28.9170 C.ar      1 ABQ        -0.0616
      2 C2         40.0570   25.7320   29.1040 C.ar      1 ABQ        -0.0616
      3 C3         41.1640   28.0650   30.1260 C.ar      1 ABQ        -0.0349
      4 C4         39.6120   26.2120   30.3420 C.ar      1 ABQ        -0.0349
      5 C5         37.4060   30.1140   26.9890 C.ar      1 ABQ         0.0442
      6 C6         39.3320   29.0070   26.4450 C.ar      1 ABQ         0.0635
      7 C7         35.4090   26.5590   28.5820 C.2       1 ABQ         0.0555
      8 C8         31.0370   26.2560   29.0630 C.ar      1 ABQ         0.0511
      9 C9         33.3170   27.4030   28.3310 C.ar      1 ABQ         0.0617
     10 C10        34.7290   27.6740   28.0890 C.2       1 ABQ         0.0483
     11 C11        41.0610   26.4230   28.4020 C.ar      1 ABQ        -0.0393
     12 C12        40.1820   27.3710   30.8160 C.ar      1 ABQ         0.1248
     13 C13        36.7590   28.9050   27.0380 C.ar      1 ABQ         0.1141
     14 C14        33.2240   26.1560   28.9450 C.ar      1 ABQ         0.1442
     15 C15        38.6730   27.7930   26.4730 C.ar      1 ABQ         0.1472
     16 C16        32.1050   28.0630   28.1300 C.ar      1 ABQ         0.1182
     17 C17        35.3080   28.8290   27.3920 C.2       1 ABQ         0.1593
     18 C18        41.7010   24.5070   26.9190 C.3       1 ABQ         0.0618
     19 C19        40.8750   25.3420   24.8890 C.3       1 ABQ         0.0729
     20 C20        41.5930   26.0210   27.0630 C.3       1 ABQ         0.0393
     21 C21        40.7150   26.5050   25.8710 C.3       1 ABQ         0.0768
     22 C22        36.2460   24.2710   30.1970 C.3       1 ABQ        -0.0347
     23 C23        34.5760   23.3780   28.5110 C.3       1 ABQ        -0.0347
     24 C24        34.7890   24.3270   29.6840 C.3       1 ABQ         0.0631
     25 N25        38.7370   30.1990   26.6770 N.ar      1 ABQ        -0.2796
     26 N26        32.1030   25.5240   29.3220 N.ar      1 ABQ        -0.2751
     27 N27        30.9600   27.4510   28.4900 N.ar      1 ABQ        -0.2724
     28 N28        37.3590   27.7190   26.7800 N.ar      1 ABQ        -0.2434
     29 N29        34.5120   25.6500   29.0970 N.pl3     1 ABQ        -0.2392
     30 N30        31.9790   29.3190   27.5510 N.pl3     1 ABQ        -0.3158
     31 N31        39.2760   26.5560   26.1520 N.pl3     1 ABQ        -0.2934
     32 O32        34.5730   29.6890   26.8550 O.2       1 ABQ        -0.3765
     33 O33        41.5790   24.2310   25.5000 O.3       1 ABQ        -0.3750
     34 F34        39.8220   27.8780   32.0130 F         1 ABQ        -0.1893
     35 H1         42.3948   28.1145   28.3747 H         1 ABQ         0.0547
     36 H2         39.6278   24.8282   28.6869 H         1 ABQ         0.0547
     37 H3         41.5739   28.9802   30.5378 H         1 ABQ         0.0587
     38 H4         38.8472   25.6900   30.9056 H         1 ABQ         0.0587
     39 H5         36.8520   31.0211   27.2017 H         1 ABQ         0.0853
     40 H6         40.3930   29.0038   26.2230 H         1 ABQ         0.0863
     41 H7         36.4898   26.4274   28.5622 H         1 ABQ         0.1063
     42 H8         30.0899   25.8203   29.3600 H         1 ABQ         0.0980
     43 H9         40.8921   24.0113   27.4757 H         1 ABQ         0.0585
     44 H10        42.6734   24.1557   27.2945 H         1 ABQ         0.0585
     45 H11        41.4430   25.6880   24.0129 H         1 ABQ         0.0585
     46 H12        39.8786   25.0028   24.5695 H         1 ABQ         0.0585
     47 H13        42.5959   26.4612   26.9614 H         1 ABQ         0.0500
     48 H14        41.0702   27.4677   25.4748 H         1 ABQ         0.0605
     49 H15        36.4434   23.2806   30.6331 H         1 ABQ         0.0259
     50 H16        36.3948   25.0455   30.9638 H         1 ABQ         0.0259
     51 H17        36.9368   24.4470   29.3592 H         1 ABQ         0.0259
     52 H18        33.5316   23.4430   28.1718 H         1 ABQ         0.0259
     53 H19        34.7950   22.3478   28.8284 H         1 ABQ         0.0259
     54 H20        35.2475   23.6582   27.6861 H         1 ABQ         0.0259
     55 H21        34.0961   24.1004   30.5077 H         1 ABQ         0.0646
     56 H22        31.0469   29.7420   27.4362 H         1 ABQ         0.1823
     57 H23        32.8176   29.8275   27.2364 H         1 ABQ         0.1823
     58 H24        38.7095   25.6966   26.1156 H         1 ABQ         0.1833
@<TRIPOS>BOND
     1    1    3 ar 
     2   11    1 ar 
     3    2    4 ar 
     4   11    2 ar 
     5    3   12 ar 
     6    4   12 ar 
     7   13    5 ar 
     8    5   25 ar 
     9   15    6 ar 
    10   25    6 ar 
    11    7   10 2  
    12   29    7 1  
    13   26    8 ar 
    14    8   27 ar 
    15    9   10 1  
    16   14    9 ar 
    17    9   16 ar 
    18   10   17 1  
    19   20   11 1  
    20   12   34 1  
    21   17   13 1  
    22   13   28 ar 
    23   14   26 ar 
    24   29   14 1  
    25   28   15 ar 
    26   15   31 1  
    27   16   27 ar 
    28   16   30 1  
    29   17   32 2  
    30   20   18 1  
    31   18   33 1  
    32   21   19 1  
    33   19   33 1  
    34   21   20 1  
    35   31   21 1  
    36   24   22 1  
    37   24   23 1  
    38   24   29 1  
    39    1   35 1  
    40    2   36 1  
    41    3   37 1  
    42    4   38 1  
    43    5   39 1  
    44    6   40 1  
    45    7   41 1  
    46    8   42 1  
    47   18   43 1  
    48   18   44 1  
    49   19   45 1  
    50   19   46 1  
    51   20   47 1  
    52   21   48 1  
    53   22   49 1  
    54   22   50 1  
    55   22   51 1  
    56   23   52 1  
    57   23   53 1  
    58   23   54 1  
    59   24   55 1  
    60   30   56 1  
    61   30   57 1  
    62   31   58 1  
@<TRIPOS>SUBSTRUCTURE
     1 ABQ         1

