### 
### Created by X-TOOL on Mon Sep 10 21:13:06 2018
### 

@<TRIPOS>MOLECULE
3rwq_ligand
   52    55     1     0     0
SMALL
GAST_HUCK


@<TRIPOS>ATOM
      1 C1         31.1340  -26.4380  -13.3250 C.ar      1 3RW         0.0511
      2 N1         39.5550  -27.0330  -10.1830 N.pl3     1 3RW        -0.2985
      3 O1         34.6670  -30.0230  -11.2340 O.2       1 3RW        -0.3765
      4 C2         32.1920  -28.3170  -12.3180 C.ar      1 3RW         0.1182
      5 N2         31.0950  -27.6490  -12.7410 N.ar      1 3RW        -0.2724
      6 C3         35.6510  -26.7790  -12.7400 C.2       1 3RW         0.0555
      7 N3         32.2830  -25.7740  -13.5420 N.ar      1 3RW        -0.2751
      8 C4         34.9730  -27.8890  -12.2620 C.2       1 3RW         0.0483
      9 N4         34.7830  -25.8780  -13.2620 N.pl3     1 3RW        -0.2392
     10 C5         33.5220  -27.6660  -12.5220 C.ar      1 3RW         0.0617
     11 N5         32.0490  -29.5190  -11.7360 N.pl3     1 3RW        -0.3158
     12 C6         33.5010  -26.3180  -13.1720 C.ar      1 3RW         0.1442
     13 N6         38.9540  -30.5440  -11.0400 N.ar      1 3RW        -0.2796
     14 C7         35.1570  -24.5750  -13.8820 C.3       1 3RW         0.0631
     15 N7         37.6250  -28.1550  -10.8690 N.ar      1 3RW        -0.2434
     16 C8         34.8440  -23.4180  -12.9440 C.3       1 3RW        -0.0347
     17 N8         41.2070  -28.6870  -14.2810 N.ar      1 3RW        -0.3044
     18 C9         35.4600  -29.1460  -11.5660 C.2       1 3RW         0.1593
     19 C10        36.9400  -29.2690  -11.2450 C.ar      1 3RW         0.1141
     20 C11        37.6330  -30.4800  -11.3290 C.ar      1 3RW         0.0442
     21 C12        39.6290  -29.4260  -10.6650 C.ar      1 3RW         0.0635
     22 C13        38.9490  -28.1970  -10.5730 C.ar      1 3RW         0.1469
     23 C14        36.6390  -24.5920  -14.2470 C.3       1 3RW        -0.0347
     24 C15        40.9910  -26.7690  -12.8560 C.ar      1 3RW        -0.0131
     25 C16        40.0030  -26.2270  -13.6990 C.ar      1 3RW        -0.0404
     26 C17        41.5760  -28.0150  -13.1700 C.ar      1 3RW         0.0126
     27 C18        41.3950  -26.0140  -11.5940 C.3       1 3RW         0.0073
     28 C19        39.6480  -26.9420  -14.8350 C.ar      1 3RW        -0.0405
     29 C20        40.9930  -26.7660  -10.3020 C.3       1 3RW         0.0390
     30 C21        40.2710  -28.1720  -15.1000 C.ar      1 3RW         0.0042
     31 H          30.1965  -25.9763  -13.6348 H         1 3RW         0.0980
     32 H          38.9672  -26.3019   -9.7826 H         1 3RW         0.1829
     33 H          36.7325  -26.6484  -12.7016 H         1 3RW         0.1063
     34 H          32.8702  -30.0291  -11.4107 H         1 3RW         0.1823
     35 H          31.1192  -29.9217  -11.6193 H         1 3RW         0.1823
     36 H          34.5690  -24.4320  -14.7886 H         1 3RW         0.0646
     37 H          33.7764  -23.4087  -12.7242 H         1 3RW         0.0259
     38 H          35.4059  -23.5404  -12.0180 H         1 3RW         0.0259
     39 H          35.1263  -22.4791  -13.4204 H         1 3RW         0.0259
     40 H          37.1034  -31.3836  -11.6308 H         1 3RW         0.0853
     41 H          40.6933  -29.4806  -10.4362 H         1 3RW         0.0863
     42 H          37.2320  -24.7499  -13.3461 H         1 3RW         0.0259
     43 H          36.8284  -25.3994  -14.9544 H         1 3RW         0.0259
     44 H          36.9112  -23.6388  -14.7002 H         1 3RW         0.0259
     45 H          39.5299  -25.2729  -13.4667 H         1 3RW         0.0678
     46 H          42.3326  -28.4382  -12.5092 H         1 3RW         0.0765
     47 H          40.8821  -25.0522  -11.5978 H         1 3RW         0.0461
     48 H          42.4797  -25.9067  -11.5980 H         1 3RW         0.0461
     49 H          38.8916  -26.5515  -15.5157 H         1 3RW         0.0693
     50 H          41.4985  -27.7315  -10.3218 H         1 3RW         0.0544
     51 H          41.2726  -26.1317   -9.4609 H         1 3RW         0.0544
     52 H          39.9885  -28.7261  -15.9951 H         1 3RW         0.0767
@<TRIPOS>BOND
     1    5    1 ar 
     2    7    1 ar 
     3    2   22 1  
     4   29    2 1  
     5   18    3 2  
     6    4    5 ar 
     7   10    4 ar 
     8    4   11 1  
     9    8    6 2  
    10    6    9 1  
    11   12    7 ar 
    12    8   10 1  
    13   18    8 1  
    14   12    9 1  
    15    9   14 1  
    16   10   12 ar 
    17   13   20 ar 
    18   21   13 ar 
    19   14   16 1  
    20   14   23 1  
    21   15   19 ar 
    22   22   15 ar 
    23   26   17 ar 
    24   17   30 ar 
    25   19   18 1  
    26   19   20 ar 
    27   22   21 ar 
    28   24   25 ar 
    29   24   26 ar 
    30   27   24 1  
    31   25   28 ar 
    32   27   29 1  
    33   28   30 ar 
    34    1   31 1  
    35    2   32 1  
    36    6   33 1  
    37   11   34 1  
    38   11   35 1  
    39   14   36 1  
    40   16   37 1  
    41   16   38 1  
    42   16   39 1  
    43   20   40 1  
    44   21   41 1  
    45   23   42 1  
    46   23   43 1  
    47   23   44 1  
    48   25   45 1  
    49   26   46 1  
    50   27   47 1  
    51   27   48 1  
    52   28   49 1  
    53   29   50 1  
    54   29   51 1  
    55   30   52 1  
@<TRIPOS>SUBSTRUCTURE
     1 3RW         1

