### 
### Created by X-TOOL on Mon Sep 10 21:13:05 2018
### 

@<TRIPOS>MOLECULE
3rx5_ligand
   66    68     1     0     0
SMALL
GAST_HUCK


@<TRIPOS>ATOM
      1 O61       -12.6100   35.4870  -23.4860 O.3       1 G2I        -0.3945
      2 C61       -13.2970   34.5110  -22.6830 C.3       1 G2I         0.0543
      3 C51       -13.4700   33.2110  -23.5000 C.3       1 G2I         0.0511
      4 C71       -14.6760   33.3680  -24.5190 C.3       1 G2I        -0.0261
      5 N11       -15.0560   32.0110  -25.0500 N.4       1 G2I         0.2292
      6 C21       -13.9450   31.6990  -26.0560 C.3       1 G2I        -0.0045
      7 C31       -12.6610   31.4260  -25.1410 C.3       1 G2I         0.1213
      8 O31       -11.5330   31.1070  -25.9020 O.3       1 G2I        -0.3839
      9 C41       -12.2130   32.7130  -24.3150 C.3       1 G2I         0.1023
     10 O41       -11.2050   32.2420  -23.3600 O.3       1 G2I        -0.3421
     11 C12       -10.1400   33.1380  -23.2280 C.3       1 G2I         0.1883
     12 C22        -9.3070   32.8070  -21.9410 C.3       1 G2I         0.1341
     13 O22       -10.1620   33.2390  -20.9540 O.3       1 G2I        -0.3841
     14 C32        -8.0170   33.6820  -22.0180 C.3       1 G2I         0.1144
     15 O32        -7.1600   33.3380  -20.8730 O.3       1 G2I        -0.3864
     16 O52        -9.3290   32.8900  -24.4050 O.3       1 G2I        -0.3405
     17 C52        -8.2190   33.7590  -24.5400 C.3       1 G2I         0.1134
     18 C62        -7.8140   33.8460  -26.1240 C.3       1 G2I         0.0730
     19 O62        -7.1840   32.6260  -26.3280 O.3       1 G2I        -0.3924
     20 C42        -7.2380   33.4070  -23.4300 C.3       1 G2I         0.1184
     21 O42        -6.4730   34.5190  -23.5310 O.3       1 G2I        -0.3401
     22 C13        -5.1390   34.3510  -23.1170 C.3       1 G2I         0.1884
     23 C23        -4.0450   35.3450  -23.8130 C.3       1 G2I         0.1341
     24 O23        -4.0110   35.1740  -25.0600 O.3       1 G2I        -0.3841
     25 C33        -2.6320   35.2760  -23.2910 C.3       1 G2I         0.1141
     26 O33        -1.8060   36.3770  -23.7200 O.3       1 G2I        -0.3864
     27 C43        -2.7110   35.3680  -21.7570 C.3       1 G2I         0.1119
     28 O43        -1.4700   34.9170  -21.3700 O.3       1 G2I        -0.3865
     29 O53        -5.0330   34.5940  -21.7150 O.3       1 G2I        -0.3405
     30 C53        -3.7400   34.2660  -21.1630 C.3       1 G2I         0.1130
     31 C63        -3.8290   34.1790  -19.5940 C.3       1 G2I         0.0730
     32 O63        -5.0470   33.5700  -19.2190 O.3       1 G2I        -0.3924
     33 H         -13.1240   35.6686  -24.2762 H         1 G2I         0.2094
     34 H         -14.2758   34.8962  -22.3972 H         1 G2I         0.0562
     35 H         -12.7167   34.3033  -21.7840 H         1 G2I         0.0562
     36 H         -13.6495   32.4537  -22.7368 H         1 G2I         0.0401
     37 H         -14.3753   34.0127  -25.3448 H         1 G2I         0.0818
     38 H         -15.5301   33.8133  -24.0089 H         1 G2I         0.0818
     39 H         -15.9831   32.0025  -25.4753 H         1 G2I         0.2014
     40 H         -15.1265   31.3083  -24.3141 H         1 G2I         0.2014
     41 H         -13.7845   32.5147  -26.7609 H         1 G2I         0.0840
     42 H         -14.1891   30.8471  -26.6906 H         1 G2I         0.0840
     43 H         -12.9722   30.6092  -24.4898 H         1 G2I         0.0673
     44 H         -10.7876   30.9512  -25.3174 H         1 G2I         0.2101
     45 H         -11.8306   33.5108  -24.9517 H         1 G2I         0.0630
     46 H         -10.4721   34.1726  -23.1419 H         1 G2I         0.0938
     47 H          -8.9962   31.7724  -21.7958 H         1 G2I         0.0671
     48 H         -10.9874   32.7522  -21.0116 H         1 G2I         0.2101
     49 H          -8.2724   34.7409  -21.9791 H         1 G2I         0.0648
     50 H          -6.3597   33.8673  -20.9033 H         1 G2I         0.2100
     51 H          -8.3638   34.8221  -24.3478 H         1 G2I         0.0647
     52 H          -7.1835   34.7027  -26.3620 H         1 G2I         0.0584
     53 H          -8.6696   34.0052  -26.7803 H         1 G2I         0.0584
     54 H          -7.7981   31.9138  -26.1348 H         1 G2I         0.2095
     55 H          -6.7872   32.4158  -23.4783 H         1 G2I         0.0651
     56 H          -4.9064   33.3288  -23.4155 H         1 G2I         0.0938
     57 H          -4.4136   36.3338  -23.5399 H         1 G2I         0.0671
     58 H          -3.3626   35.7676  -25.4457 H         1 G2I         0.2101
     59 H          -2.1907   34.3526  -23.6661 H         1 G2I         0.0648
     60 H          -0.9237   36.2745  -23.3558 H         1 G2I         0.2100
     61 H          -3.0082   36.3648  -21.4311 H         1 G2I         0.0647
     62 H          -0.7931   35.4856  -21.7442 H         1 G2I         0.2100
     63 H          -3.3731   33.2805  -21.4498 H         1 G2I         0.0647
     64 H          -3.7829   35.1835  -19.1734 H         1 G2I         0.0584
     65 H          -2.9968   33.5842  -19.2174 H         1 G2I         0.0584
     66 H          -5.7805   34.0927  -19.5513 H         1 G2I         0.2095
@<TRIPOS>BOND
     1    1    2 1  
     2    2    3 1  
     3    3    4 1  
     4    3    9 1  
     5    4    5 1  
     6    5    6 1  
     7    6    7 1  
     8    7    8 1  
     9    7    9 1  
    10    9   10 1  
    11   10   11 1  
    12   11   12 1  
    13   11   16 1  
    14   12   13 1  
    15   12   14 1  
    16   14   15 1  
    17   14   20 1  
    18   16   17 1  
    19   17   18 1  
    20   17   20 1  
    21   18   19 1  
    22   20   21 1  
    23   21   22 1  
    24   22   23 1  
    25   22   29 1  
    26   23   24 1  
    27   23   25 1  
    28   25   26 1  
    29   25   27 1  
    30   27   28 1  
    31   27   30 1  
    32   29   30 1  
    33   30   31 1  
    34   31   32 1  
    35    1   33 1  
    36    2   34 1  
    37    2   35 1  
    38    3   36 1  
    39    4   37 1  
    40    4   38 1  
    41    5   39 1  
    42    5   40 1  
    43    6   41 1  
    44    6   42 1  
    45    7   43 1  
    46    8   44 1  
    47    9   45 1  
    48   11   46 1  
    49   12   47 1  
    50   13   48 1  
    51   14   49 1  
    52   15   50 1  
    53   17   51 1  
    54   18   52 1  
    55   18   53 1  
    56   19   54 1  
    57   20   55 1  
    58   22   56 1  
    59   23   57 1  
    60   24   58 1  
    61   25   59 1  
    62   26   60 1  
    63   27   61 1  
    64   28   62 1  
    65   30   63 1  
    66   31   64 1  
    67   31   65 1  
    68   32   66 1  
@<TRIPOS>SUBSTRUCTURE
     1 G2I         1

