### 
### Created by X-TOOL on Mon Sep 10 21:13:05 2018
### 

@<TRIPOS>MOLECULE
3rx7_ligand
   87    90     1     0     0
SMALL
GAST_HUCK


@<TRIPOS>ATOM
      1 O24        -0.3980   33.6830  -18.9230 O.3       1 G3I        -0.3841
      2 C24         0.2450   34.7880  -19.7090 C.3       1 G3I         0.1341
      3 C34         1.2790   35.6600  -18.9470 C.3       1 G3I         0.1141
      4 O34         2.2940   34.8700  -18.4560 O.3       1 G3I        -0.3864
      5 C44         2.0680   36.6240  -19.8220 C.3       1 G3I         0.1119
      6 O44         2.6800   37.4870  -18.8490 O.3       1 G3I        -0.3865
      7 C54         1.2300   37.3820  -20.9320 C.3       1 G3I         0.1130
      8 C64         2.1750   37.6480  -22.1000 C.3       1 G3I         0.0730
      9 O64         1.5910   37.3240  -23.4270 O.3       1 G3I        -0.3924
     10 O54        -0.0340   36.7190  -21.3400 O.3       1 G3I        -0.3405
     11 C14        -0.6880   35.6950  -20.5350 C.3       1 G3I         0.1884
     12 O43        -1.4330   34.7460  -21.3390 O.3       1 G3I        -0.3401
     13 C43        -2.7220   35.1590  -21.6850 C.3       1 G3I         0.1184
     14 C53        -3.7600   34.0550  -21.0900 C.3       1 G3I         0.1134
     15 O53        -5.0530   34.2810  -21.6790 O.3       1 G3I        -0.3405
     16 C63        -4.0320   34.0050  -19.5180 C.3       1 G3I         0.0730
     17 O63        -5.0180   33.0440  -19.2570 O.3       1 G3I        -0.3924
     18 C33        -2.6890   35.1460  -23.2590 C.3       1 G3I         0.1144
     19 O33        -1.9600   36.3370  -23.5970 O.3       1 G3I        -0.3864
     20 C23        -4.1320   35.1840  -23.7950 C.3       1 G3I         0.1341
     21 O23        -4.2410   35.2260  -25.1320 O.3       1 G3I        -0.3841
     22 C13        -5.1630   34.1920  -23.1380 C.3       1 G3I         0.1884
     23 O42        -6.5260   34.3920  -23.5570 O.3       1 G3I        -0.3401
     24 C42        -7.2810   33.2300  -23.4830 C.3       1 G3I         0.1184
     25 C52        -8.2600   33.5990  -24.6210 C.3       1 G3I         0.1134
     26 O52        -9.3640   32.7570  -24.5680 O.3       1 G3I        -0.3405
     27 C62        -7.8100   33.5750  -26.1210 C.3       1 G3I         0.0730
     28 O62        -6.9850   32.4480  -26.2780 O.3       1 G3I        -0.3924
     29 C32        -8.0880   33.3700  -22.0910 C.3       1 G3I         0.1144
     30 O32        -7.3440   33.2290  -20.8500 O.3       1 G3I        -0.3864
     31 C22        -9.3670   32.5770  -22.1070 C.3       1 G3I         0.1341
     32 O22       -10.1990   32.9710  -21.0380 O.3       1 G3I        -0.3841
     33 C12       -10.1390   32.9720  -23.3930 C.3       1 G3I         0.1883
     34 O41       -11.2340   32.0970  -23.5080 O.3       1 G3I        -0.3421
     35 C41       -12.2560   32.4750  -24.3920 C.3       1 G3I         0.1023
     36 C31       -12.6080   31.1800  -25.2070 C.3       1 G3I         0.1213
     37 O31       -11.4750   30.8360  -26.0060 O.3       1 G3I        -0.3839
     38 C21       -13.9450   31.2970  -26.0300 C.3       1 G3I        -0.0045
     39 N11       -15.1070   31.7380  -25.0870 N.4       1 G3I         0.2292
     40 C71       -14.6520   33.0960  -24.5850 C.3       1 G3I        -0.0261
     41 C51       -13.5270   32.9110  -23.5410 C.3       1 G3I         0.0511
     42 C61       -13.4240   34.1700  -22.6970 C.3       1 G3I         0.0543
     43 O61       -12.7360   35.2110  -23.4540 O.3       1 G3I        -0.3945
     44 H          -1.0158   33.2096  -19.4850 H         1 G3I         0.2101
     45 H           0.7927   34.1716  -20.4218 H         1 G3I         0.0671
     46 H           0.6670   36.1814  -18.2110 H         1 G3I         0.0648
     47 H           2.9269   35.4188  -17.9872 H         1 G3I         0.2100
     48 H           2.7868   36.1086  -20.4591 H         1 G3I         0.0647
     49 H           3.2383   36.9661  -18.2671 H         1 G3I         0.2100
     50 H           0.8605   38.3163  -20.5094 H         1 G3I         0.0647
     51 H           3.0485   37.0103  -21.9640 H         1 G3I         0.0584
     52 H           2.4051   38.7134  -22.0967 H         1 G3I         0.0584
     53 H           1.3575   36.3932  -23.4540 H         1 G3I         0.2095
     54 H          -1.3053   36.3126  -19.8826 H         1 G3I         0.0938
     55 H          -3.0255   36.1331  -21.3015 H         1 G3I         0.0651
     56 H          -3.2576   33.1191  -21.3345 H         1 G3I         0.0647
     57 H          -4.3694   34.9819  -19.1717 H         1 G3I         0.0584
     58 H          -3.1134   33.7414  -18.9938 H         1 G3I         0.0584
     59 H          -5.8253   33.2819  -19.7187 H         1 G3I         0.2095
     60 H          -2.2247   34.2580  -23.6880 H         1 G3I         0.0648
     61 H          -1.0805   36.2919  -23.2147 H         1 G3I         0.2100
     62 H          -4.4475   36.1624  -23.4328 H         1 G3I         0.0671
     63 H          -5.1693   35.2474  -25.3757 H         1 G3I         0.2101
     64 H          -4.9018   33.1919  -23.4840 H         1 G3I         0.0938
     65 H          -6.7893   32.2591  -23.5434 H         1 G3I         0.0651
     66 H          -8.4147   34.6542  -24.3960 H         1 G3I         0.0647
     67 H          -7.2735   34.4878  -26.3799 H         1 G3I         0.0584
     68 H          -8.6732   33.5195  -26.7843 H         1 G3I         0.0584
     69 H          -6.6859   32.3961  -27.1888 H         1 G3I         0.2095
     70 H          -8.3296   34.4325  -22.0628 H         1 G3I         0.0648
     71 H          -6.6602   33.9016  -20.8100 H         1 G3I         0.2100
     72 H          -9.1291   31.5150  -22.0462 H         1 G3I         0.0671
     73 H         -11.0103   32.4583  -21.0597 H         1 G3I         0.2101
     74 H         -10.4089   34.0250  -23.3132 H         1 G3I         0.0938
     75 H         -11.9596   33.2990  -25.0411 H         1 G3I         0.0630
     76 H         -12.8157   30.3668  -24.5115 H         1 G3I         0.0673
     77 H         -10.7201   30.6732  -25.4356 H         1 G3I         0.2101
     78 H         -14.1844   30.3286  -26.4694 H         1 G3I         0.0840
     79 H         -13.8194   32.0382  -26.8192 H         1 G3I         0.0840
     80 H         -15.2722   31.0745  -24.3301 H         1 G3I         0.2014
     81 H         -16.0074   31.7772  -25.5647 H         1 G3I         0.2014
     82 H         -15.4936   33.6128  -24.1237 H         1 G3I         0.0818
     83 H         -14.2769   33.6850  -25.4219 H         1 G3I         0.0818
     84 H         -13.6867   32.1375  -22.7898 H         1 G3I         0.0401
     85 H         -12.8632   33.9522  -21.7880 H         1 G3I         0.0562
     86 H         -14.4247   34.5137  -22.4350 H         1 G3I         0.0562
     87 H         -13.2299   35.4023  -24.2547 H         1 G3I         0.2094
@<TRIPOS>BOND
     1    1    2 1  
     2    2    3 1  
     3    2   11 1  
     4    3    4 1  
     5    3    5 1  
     6    5    6 1  
     7    5    7 1  
     8    7    8 1  
     9    7   10 1  
    10    8    9 1  
    11   10   11 1  
    12   11   12 1  
    13   12   13 1  
    14   13   14 1  
    15   13   18 1  
    16   14   15 1  
    17   14   16 1  
    18   15   22 1  
    19   16   17 1  
    20   18   19 1  
    21   18   20 1  
    22   20   21 1  
    23   20   22 1  
    24   22   23 1  
    25   23   24 1  
    26   24   25 1  
    27   24   29 1  
    28   25   26 1  
    29   25   27 1  
    30   26   33 1  
    31   27   28 1  
    32   29   30 1  
    33   29   31 1  
    34   31   32 1  
    35   31   33 1  
    36   33   34 1  
    37   34   35 1  
    38   35   36 1  
    39   35   41 1  
    40   36   37 1  
    41   36   38 1  
    42   38   39 1  
    43   39   40 1  
    44   40   41 1  
    45   41   42 1  
    46   42   43 1  
    47    1   44 1  
    48    2   45 1  
    49    3   46 1  
    50    4   47 1  
    51    5   48 1  
    52    6   49 1  
    53    7   50 1  
    54    8   51 1  
    55    8   52 1  
    56    9   53 1  
    57   11   54 1  
    58   13   55 1  
    59   14   56 1  
    60   16   57 1  
    61   16   58 1  
    62   17   59 1  
    63   18   60 1  
    64   19   61 1  
    65   20   62 1  
    66   21   63 1  
    67   22   64 1  
    68   24   65 1  
    69   25   66 1  
    70   27   67 1  
    71   27   68 1  
    72   28   69 1  
    73   29   70 1  
    74   30   71 1  
    75   31   72 1  
    76   32   73 1  
    77   33   74 1  
    78   35   75 1  
    79   36   76 1  
    80   37   77 1  
    81   38   78 1  
    82   38   79 1  
    83   39   80 1  
    84   39   81 1  
    85   40   82 1  
    86   40   83 1  
    87   41   84 1  
    88   42   85 1  
    89   42   86 1  
    90   43   87 1  
@<TRIPOS>SUBSTRUCTURE
     1 G3I         1

