### 
### Created by X-TOOL on Mon Sep 10 21:13:05 2018
### 

@<TRIPOS>MOLECULE
3rx8_ligand
   45    46     1     0     0
SMALL
GAST_HUCK


@<TRIPOS>ATOM
      1 O2B       -12.7060   35.7470  -33.7090 O.3       1 9MR        -0.3841
      2 C2B       -14.1260   35.8420  -33.9310 C.3       1 9MR         0.1341
      3 C3B       -14.5640   36.9740  -34.9650 C.3       1 9MR         0.1141
      4 O3B       -14.5110   36.7960  -36.4340 O.3       1 9MR        -0.3864
      5 C4B       -15.9370   37.7240  -34.6880 C.3       1 9MR         0.1119
      6 O4B       -15.4110   38.9170  -35.0680 O.3       1 9MR        -0.3865
      7 C5B       -15.9760   38.0070  -33.1740 C.3       1 9MR         0.1130
      8 C6B       -16.7980   39.1380  -32.4660 C.3       1 9MR         0.0730
      9 O6B       -17.9520   39.2630  -33.1440 O.3       1 9MR        -0.3924
     10 O5B       -15.9590   36.7420  -32.4810 O.3       1 9MR        -0.3405
     11 C1B       -14.6130   36.2330  -32.4910 C.3       1 9MR         0.1883
     12 O3A       -14.5540   35.9560  -31.2560 O.3       1 9MR        -0.3421
     13 C3A       -14.5960   35.8910  -29.8250 C.3       1 9MR         0.1023
     14 C4A       -15.9630   35.2000  -29.6190 C.3       1 9MR         0.1213
     15 O4A       -17.0330   36.0210  -30.0530 O.3       1 9MR        -0.3839
     16 C5M       -16.2480   34.6610  -28.2000 C.3       1 9MR        -0.0045
     17 N5A       -15.0090   34.2550  -27.4320 N.4       1 9MR         0.2292
     18 C1A       -13.6350   34.8690  -27.7370 C.3       1 9MR        -0.0261
     19 C2A       -13.5890   34.8600  -29.2870 C.3       1 9MR         0.0511
     20 C6A       -12.2110   34.5970  -29.9660 C.3       1 9MR         0.0543
     21 O6A       -11.2800   35.5640  -29.6880 O.3       1 9MR        -0.3945
     22 H         -12.5281   35.0459  -33.0778 H         1 9MR         0.2101
     23 H         -14.5357   34.9292  -34.3634 H         1 9MR         0.0671
     24 H         -13.6775   37.5474  -34.6940 H         1 9MR         0.0648
     25 H         -14.8182   37.5977  -36.8636 H         1 9MR         0.2100
     26 H         -16.8526   37.2834  -35.0826 H         1 9MR         0.0647
     27 H         -15.1144   38.8590  -35.9792 H         1 9MR         0.2100
     28 H         -15.0843   38.6271  -33.0817 H         1 9MR         0.0647
     29 H         -16.2447   40.0772  -32.4668 H         1 9MR         0.0584
     30 H         -16.9872   38.8841  -31.4230 H         1 9MR         0.0584
     31 H         -18.4868   39.9499  -32.7393 H         1 9MR         0.2095
     32 H         -13.5499   36.4425  -32.6090 H         1 9MR         0.0938
     33 H         -14.4148   36.8596  -29.3592 H         1 9MR         0.0630
     34 H         -15.8906   34.3120  -30.2470 H         1 9MR         0.0673
     35 H         -16.9281   36.2140  -30.9876 H         1 9MR         0.2101
     36 H         -16.8644   33.7690  -28.3120 H         1 9MR         0.0840
     37 H         -16.7253   35.4650  -27.6398 H         1 9MR         0.0840
     38 H         -14.8912   33.2691  -27.6655 H         1 9MR         0.2014
     39 H         -15.2043   34.5594  -26.4783 H         1 9MR         0.2014
     40 H         -12.8131   34.3133  -27.2856 H         1 9MR         0.0818
     41 H         -13.5139   35.8668  -27.3154 H         1 9MR         0.0818
     42 H         -13.9609   33.9161  -29.6855 H         1 9MR         0.0401
     43 H         -12.3695   34.5907  -31.0444 H         1 9MR         0.0562
     44 H         -11.8291   33.6505  -29.5835 H         1 9MR         0.0562
     45 H         -10.4557   35.3497  -30.1308 H         1 9MR         0.2094
@<TRIPOS>BOND
     1    1    2 1  
     2    2    3 1  
     3    2   11 1  
     4    3    4 1  
     5    3    5 1  
     6    5    6 1  
     7    5    7 1  
     8    7    8 1  
     9    7   10 1  
    10    8    9 1  
    11   10   11 1  
    12   11   12 1  
    13   12   13 1  
    14   13   14 1  
    15   13   19 1  
    16   14   15 1  
    17   14   16 1  
    18   16   17 1  
    19   17   18 1  
    20   18   19 1  
    21   19   20 1  
    22   20   21 1  
    23    1   22 1  
    24    2   23 1  
    25    3   24 1  
    26    4   25 1  
    27    5   26 1  
    28    6   27 1  
    29    7   28 1  
    30    8   29 1  
    31    8   30 1  
    32    9   31 1  
    33   11   32 1  
    34   13   33 1  
    35   14   34 1  
    36   15   35 1  
    37   16   36 1  
    38   16   37 1  
    39   17   38 1  
    40   17   39 1  
    41   18   40 1  
    42   18   41 1  
    43   19   42 1  
    44   20   43 1  
    45   20   44 1  
    46   21   45 1  
@<TRIPOS>SUBSTRUCTURE
     1 9MR         1

