### 
### Created by X-TOOL on Mon Sep 10 21:13:05 2018
### 

@<TRIPOS>MOLECULE
3rxa_ligand
   24    24     1     0     0
SMALL
GAST_HUCK


@<TRIPOS>ATOM
      1 N          -1.6920  -13.0360   17.8190 N.4       1 SZ1         0.2207
      2 C1         -1.3980  -14.1260   16.8950 C.3       1 SZ1        -0.0244
      3 C2         -1.5320  -13.6400   15.4520 C.3       1 SZ1        -0.0098
      4 C3         -0.6390  -14.4240   14.4950 C.3       1 SZ1        -0.0480
      5 C4         -1.2750  -15.7380   14.0640 C.3       1 SZ1        -0.0529
      6 C5         -1.4660  -16.6560   15.2620 C.3       1 SZ1        -0.0529
      7 C6         -2.6710  -16.2540   16.0930 C.3       1 SZ1        -0.0480
      8 C7         -2.3230  -15.2990   17.2380 C.3       1 SZ1        -0.0098
      9 H1         -1.0947  -12.2506   17.6130 H         1 SZ1         0.1997
     10 H2         -1.5281  -13.3438   18.7648 H         1 SZ1         0.1997
     11 H3         -2.6563  -12.7604   17.7176 H         1 SZ1         0.1997
     12 H4         -0.3583  -14.4520   17.0456 H         1 SZ1         0.0850
     13 H5         -1.2511  -12.5774   15.4084 H         1 SZ1         0.0320
     14 H6         -2.5789  -13.7558   15.1348 H         1 SZ1         0.0320
     15 H7          0.3154  -14.6401   14.9973 H         1 SZ1         0.0267
     16 H8         -0.4524  -13.8105   13.6013 H         1 SZ1         0.0267
     17 H9         -0.6221  -16.2324   13.3297 H         1 SZ1         0.0265
     18 H10        -2.2536  -15.5332   13.6054 H         1 SZ1         0.0265
     19 H11        -0.5665  -16.6095   15.8934 H         1 SZ1         0.0265
     20 H12        -1.6088  -17.6857   14.9025 H         1 SZ1         0.0265
     21 H13        -3.1200  -17.1628   16.5201 H         1 SZ1         0.0267
     22 H14        -3.4003  -15.7593   15.4347 H         1 SZ1         0.0267
     23 H15        -3.2651  -14.8803   17.6215 H         1 SZ1         0.0320
     24 H16        -1.8354  -15.8888   18.0281 H         1 SZ1         0.0320
@<TRIPOS>BOND
     1    1    2 1  
     2    2    3 1  
     3    2    8 1  
     4    3    4 1  
     5    4    5 1  
     6    5    6 1  
     7    6    7 1  
     8    7    8 1  
     9    1    9 1  
    10    1   10 1  
    11    1   11 1  
    12    2   12 1  
    13    3   13 1  
    14    3   14 1  
    15    4   15 1  
    16    4   16 1  
    17    5   17 1  
    18    5   18 1  
    19    6   19 1  
    20    6   20 1  
    21    7   21 1  
    22    7   22 1  
    23    8   23 1  
    24    8   24 1  
@<TRIPOS>SUBSTRUCTURE
     1 SZ1         1

