### 
### Created by X-TOOL on Mon Sep 10 21:13:05 2018
### 

@<TRIPOS>MOLECULE
3rxb_ligand
   21    20     1     0     0
SMALL
GAST_HUCK


@<TRIPOS>ATOM
      1 C          -1.5150  -16.7930   14.4380 C.2       1 ALG         0.0349
      2 O          -1.8670  -17.0730   15.5740 O.co2     1 ALG        -0.5690
      3 CA         -0.6160  -15.6130   14.1430 C.3       1 ALG         0.0034
      4 CB         -0.5470  -14.6440   15.3190 C.3       1 ALG        -0.0082
      5 CD         -1.8630  -13.9040   15.5130 C.3       1 ALG         0.0640
      6 NE         -1.9700  -13.2890   16.8210 N.pl3     1 ALG        -0.2722
      7 CZ         -2.2600  -13.9520   17.9490 C.cat     1 ALG         0.2882
      8 NH1        -2.4110  -15.2070   17.9950 N.pl3     1 ALG        -0.2849
      9 NH2        -2.4090  -13.2670   19.0760 N.pl3     1 ALG        -0.2849
     10 OXT        -1.9460  -17.5560   13.4450 O.co2     1 ALG        -0.5690
     11 H1         -1.0067  -15.0789   13.2643 H         1 ALG         0.0432
     12 H2          0.3971  -15.9828   13.9268 H         1 ALG         0.0432
     13 H3          0.2507  -13.9103   15.1308 H         1 ALG         0.0317
     14 H4         -0.3170  -15.2091   16.2343 H         1 ALG         0.0317
     15 H5         -2.6902  -14.6188   15.3913 H         1 ALG         0.0690
     16 H6         -1.9415  -13.1184   14.7471 H         1 ALG         0.0690
     17 H7         -1.8125  -12.2733   16.8882 H         1 ALG         0.2642
     18 H8         -2.6335  -15.6665   18.8896 H         1 ALG         0.2615
     19 H9         -2.3115  -15.7695   17.1379 H         1 ALG         0.2615
     20 H10        -2.2933  -12.2435   19.0757 H         1 ALG         0.2615
     21 H11        -2.6403  -13.7589   19.9509 H         1 ALG         0.2615
@<TRIPOS>BOND
     1    1    2 ar 
     2    1    3 1  
     3    1   10 ar 
     4    3    4 1  
     5    4    5 1  
     6    5    6 1  
     7    6    7 ar 
     8    7    8 ar 
     9    7    9 ar 
    10    3   11 1  
    11    3   12 1  
    12    4   13 1  
    13    4   14 1  
    14    5   15 1  
    15    5   16 1  
    16    6   17 1  
    17    8   18 1  
    18    8   19 1  
    19    9   20 1  
    20    9   21 1  
@<TRIPOS>SUBSTRUCTURE
     1 ALG         1

