### 
### Created by X-TOOL on Mon Sep 10 21:13:05 2018
### 

@<TRIPOS>MOLECULE
3rxd_ligand
   22    22     1     0     0
SMALL
GAST_HUCK


@<TRIPOS>ATOM
      1 N          -3.0990  -13.4560   18.8870 N.4       1 SZ4         0.2307
      2 O          -2.5500  -17.4520   15.6230 O.3       1 SZ4        -0.3230
      3 C1         -1.8080  -13.3330   18.2350 C.3       1 SZ4        -0.0041
      4 C2         -1.7610  -14.1020   16.9290 C.ar      1 SZ4        -0.0076
      5 C3         -1.2870  -13.4970   15.7670 C.ar      1 SZ4        -0.0664
      6 C4         -1.2420  -14.2100   14.5720 C.ar      1 SZ4        -0.0770
      7 C5         -1.6680  -15.5340   14.5320 C.ar      1 SZ4        -0.0401
      8 C6         -2.1380  -16.1440   15.6890 C.ar      1 SZ4         0.0842
      9 C7         -3.0580  -18.1250   16.7780 C.3       1 SZ4         0.0592
     10 C8         -2.1820  -15.4280   16.8870 C.ar      1 SZ4        -0.0272
     11 H1         -3.0913  -12.9331   19.7487 H         1 SZ4         0.2008
     12 H2         -3.2844  -14.4269   19.0847 H         1 SZ4         0.2008
     13 H3         -3.8177  -13.0934   18.2804 H         1 SZ4         0.2008
     14 H4         -1.0308  -13.7253   18.9073 H         1 SZ4         0.0977
     15 H5         -1.6127  -12.2702   18.0295 H         1 SZ4         0.0977
     16 H6         -0.9517  -12.4665   15.7934 H         1 SZ4         0.0466
     17 H7         -0.8743  -13.7327   13.6709 H         1 SZ4         0.0572
     18 H8         -1.6334  -16.0882   13.6010 H         1 SZ4         0.0486
     19 H9         -3.3296  -19.1570   16.5112 H         1 SZ4         0.0577
     20 H10        -3.9482  -17.5958   17.1488 H         1 SZ4         0.0577
     21 H11        -2.2870  -18.1400   17.5624 H         1 SZ4         0.0577
     22 H12        -2.5458  -15.9072   17.7887 H         1 SZ4         0.0480
@<TRIPOS>BOND
     1    3    1 1  
     2    8    2 1  
     3    2    9 1  
     4    4    3 1  
     5    5    4 ar 
     6    4   10 ar 
     7    6    5 ar 
     8    7    6 ar 
     9    7    8 ar 
    10    8   10 ar 
    11    1   11 1  
    12    1   12 1  
    13    1   13 1  
    14    3   14 1  
    15    3   15 1  
    16    5   16 1  
    17    6   17 1  
    18    7   18 1  
    19    9   19 1  
    20    9   20 1  
    21    9   21 1  
    22   10   22 1  
@<TRIPOS>SUBSTRUCTURE
     1 SZ4         1

