### 
### Created by X-TOOL on Mon Sep 10 21:13:05 2018
### 

@<TRIPOS>MOLECULE
3rxe_ligand
   18    18     1     0     0
SMALL
GAST_HUCK


@<TRIPOS>ATOM
      1 C1         -1.7940  -14.3500   16.8480 C.ar      1 BEN         0.0260
      2 C2         -1.9920  -15.7300   16.7760 C.ar      1 BEN        -0.0565
      3 C3         -1.6850  -16.4260   15.6090 C.ar      1 BEN        -0.0618
      4 C4         -1.1710  -15.7630   14.5030 C.ar      1 BEN        -0.0618
      5 C5         -0.9650  -14.3960   14.5680 C.ar      1 BEN        -0.0618
      6 C6         -1.2730  -13.6960   15.7300 C.ar      1 BEN        -0.0565
      7 C          -2.1260  -13.5810   18.1020 C.cat     1 BEN         0.2356
      8 N1         -2.8610  -14.0760   19.0050 N.pl3     1 BEN        -0.2721
      9 N2         -1.6570  -12.3450   18.3060 N.pl3     1 BEN        -0.2721
     10 H1         -2.3870  -16.2631   17.6332 H         1 BEN         0.0617
     11 H2         -1.8492  -17.4966   15.5641 H         1 BEN         0.0618
     12 H3         -0.9335  -16.3102   13.5979 H         1 BEN         0.0618
     13 H4         -0.5623  -13.8690   13.7106 H         1 BEN         0.0618
     14 H5         -1.1058  -12.6256   15.7680 H         1 BEN         0.0617
     15 H6         -3.0734  -13.5307   19.8526 H         1 BEN         0.3181
     16 H7         -3.2470  -15.0243   18.8925 H         1 BEN         0.3181
     17 H8         -1.0544  -11.8996   17.5993 H         1 BEN         0.3181
     18 H9         -1.8984  -11.8386   19.1698 H         1 BEN         0.3181
@<TRIPOS>BOND
     1    1    2 ar 
     2    1    6 ar 
     3    1    7 1  
     4    2    3 ar 
     5    3    4 ar 
     6    4    5 ar 
     7    5    6 ar 
     8    7    8 ar 
     9    7    9 ar 
    10    2   10 1  
    11    3   11 1  
    12    4   12 1  
    13    5   13 1  
    14    6   14 1  
    15    8   15 1  
    16    8   16 1  
    17    9   17 1  
    18    9   18 1  
@<TRIPOS>SUBSTRUCTURE
     1 BEN         1

