### 
### Created by X-TOOL on Mon Sep 10 21:13:05 2018
### 

@<TRIPOS>MOLECULE
3rxf_ligand
   13    13     1     0     0
SMALL
GAST_HUCK


@<TRIPOS>ATOM
      1 N1         -1.6380  -15.8820   14.7300 N.ar      1 4AP        -0.3162
      2 C2         -0.9730  -14.7160   14.6380 C.ar      1 4AP        -0.0037
      3 C3         -0.9560  -13.8260   15.7110 C.ar      1 4AP        -0.0170
      4 C4         -1.6340  -14.1470   16.8820 C.ar      1 4AP         0.0560
      5 C5         -2.3100  -15.3610   16.9500 C.ar      1 4AP        -0.0170
      6 C6         -2.2980  -16.2160   15.8510 C.ar      1 4AP        -0.0037
      7 N4         -1.6370  -13.3020   17.9420 N.pl3     1 4AP        -0.3286
      8 H1         -0.4469  -14.4669   13.7235 H         1 4AP         0.0780
      9 H2         -0.4171  -12.8887   15.6329 H         1 4AP         0.0609
     10 H3         -2.8424  -15.6394   17.8523 H         1 4AP         0.0609
     11 H4         -2.8268  -17.1610   15.9007 H         1 4AP         0.0780
     12 H5         -1.1349  -12.4044   17.8865 H         1 4AP         0.1762
     13 H6         -2.1414  -13.5576   18.8029 H         1 4AP         0.1762
@<TRIPOS>BOND
     1    1    2 ar 
     2    1    6 ar 
     3    2    3 ar 
     4    3    4 ar 
     5    4    5 ar 
     6    4    7 1  
     7    5    6 ar 
     8    2    8 1  
     9    3    9 1  
    10    5   10 1  
    11    6   11 1  
    12    7   12 1  
    13    7   13 1  
@<TRIPOS>SUBSTRUCTURE
     1 4AP         1

