### 
### Created by X-TOOL on Mon Sep 10 21:13:05 2018
### 

@<TRIPOS>MOLECULE
3rxg_ligand
   22    22     1     0     0
SMALL
GAST_HUCK


@<TRIPOS>ATOM
      1 N          -1.8230  -13.0100   18.1140 N.4       1 SZ3         0.2207
      2 O          -1.3590  -16.6540   13.7340 O.3       1 SZ3        -0.3918
      3 C1         -1.3590  -13.9410   17.0970 C.3       1 SZ3        -0.0242
      4 C2         -1.5750  -13.3400   15.7160 C.3       1 SZ3        -0.0074
      5 C3         -1.1370  -14.2560   14.5810 C.3       1 SZ3        -0.0218
      6 C4         -1.5160  -15.7220   14.8250 C.3       1 SZ3         0.0556
      7 C5         -1.6280  -16.2920   16.2460 C.3       1 SZ3        -0.0218
      8 C6         -2.1260  -15.2510   17.2380 C.3       1 SZ3        -0.0074
      9 H1         -1.3205  -12.1404   18.0278 H         1 SZ3         0.1997
     10 H2         -1.6607  -13.4026   19.0281 H         1 SZ3         0.1997
     11 H3         -2.8092  -12.8418   17.9908 H         1 SZ3         0.1997
     12 H4         -1.8987  -16.3777   13.0028 H         1 SZ3         0.2098
     13 H5         -0.2856  -14.1334   17.2408 H         1 SZ3         0.0850
     14 H6         -1.0009  -12.4041   15.6496 H         1 SZ3         0.0321
     15 H7         -2.6464  -13.1224   15.5944 H         1 SZ3         0.0321
     16 H8         -0.0442  -14.1878   14.4752 H         1 SZ3         0.0292
     17 H9         -1.6172  -13.9184   13.6508 H         1 SZ3         0.0292
     18 H10        -2.5972  -15.5705   14.6908 H         1 SZ3         0.0593
     19 H11        -0.6364  -16.6434   16.5673 H         1 SZ3         0.0292
     20 H12        -2.3311  -17.1379   16.2354 H         1 SZ3         0.0292
     21 H13        -3.1940  -15.0627   17.0540 H         1 SZ3         0.0321
     22 H14        -1.9923  -15.6365   18.2595 H         1 SZ3         0.0321
@<TRIPOS>BOND
     1    3    1 1  
     2    6    2 1  
     3    4    3 1  
     4    3    8 1  
     5    5    4 1  
     6    5    6 1  
     7    6    7 1  
     8    7    8 1  
     9    1    9 1  
    10    1   10 1  
    11    1   11 1  
    12    2   12 1  
    13    3   13 1  
    14    4   14 1  
    15    4   15 1  
    16    5   16 1  
    17    5   17 1  
    18    6   18 1  
    19    7   19 1  
    20    7   20 1  
    21    8   21 1  
    22    8   22 1  
@<TRIPOS>SUBSTRUCTURE
     1 SZ3         1

