### 
### Created by X-TOOL on Mon Sep 10 21:13:05 2018
### 

@<TRIPOS>MOLECULE
3rxh_ligand
   18    18     1     0     0
SMALL
GAST_HUCK


@<TRIPOS>ATOM
      1 N          -1.8620  -12.8960   18.3310 N.4       1 HSM         0.2196
      2 CA         -2.0360  -13.9460   17.3470 C.3       1 HSM        -0.0294
      3 CB         -1.4510  -13.5410   15.9970 C.3       1 HSM         0.0142
      4 CG         -1.4540  -14.7300   15.0680 C.2       1 HSM        -0.0021
      5 ND1        -2.3860  -15.7060   15.0300 N.2       1 HSM        -0.3253
      6 CD2        -0.5010  -15.0280   14.1030 C.2       1 HSM         0.0291
      7 CE1        -2.0330  -16.5910   14.0710 C.2       1 HSM         0.0907
      8 NE2        -0.8770  -16.1810   13.5060 N.pl3     1 HSM        -0.2752
      9 H1         -2.2569  -13.1908   19.2103 H         1 HSM         0.1995
     10 H2         -2.3290  -12.0600   18.0164 H         1 HSM         0.1995
     11 H3         -0.8791  -12.7071   18.4506 H         1 HSM         0.1995
     12 H4         -3.1102  -14.1495   17.2258 H         1 HSM         0.0830
     13 H5         -1.5279  -14.8557   17.6996 H         1 HSM         0.0830
     14 H6         -0.4187  -13.1877   16.1363 H         1 HSM         0.0424
     15 H7         -2.0590  -12.7344   15.5615 H         1 HSM         0.0424
     16 H8          0.3861  -14.4408   13.8700 H         1 HSM         0.0729
     17 H9         -2.5892  -17.4869   13.7989 H         1 HSM         0.1199
     18 H10        -0.3695  -16.6635   12.7507 H         1 HSM         0.2361
@<TRIPOS>BOND
     1    1    2 1  
     2    2    3 1  
     3    3    4 1  
     4    4    5 1  
     5    4    6 2  
     6    5    7 2  
     7    6    8 1  
     8    7    8 1  
     9    1    9 1  
    10    1   10 1  
    11    1   11 1  
    12    2   12 1  
    13    2   13 1  
    14    3   14 1  
    15    3   15 1  
    16    6   16 1  
    17    7   17 1  
    18    8   18 1  
@<TRIPOS>SUBSTRUCTURE
     1 HSM         1

