### 
### Created by X-TOOL on Mon Sep 10 21:13:05 2018
### 

@<TRIPOS>MOLECULE
3rxi_ligand
   25    26     1     0     0
SMALL
GAST_HUCK


@<TRIPOS>ATOM
      1 N1         -1.8700  -12.6160   18.0770 N.4       1 TSS         0.2194
      2 CA         -2.0810  -13.3560   16.8440 C.3       1 TSS        -0.0312
      3 CB         -0.9290  -14.3270   16.6480 C.3       1 TSS         0.0040
      4 CG         -1.2040  -15.3060   15.5340 C.2       1 TSS        -0.0413
      5 CD1        -0.6300  -15.3160   14.2650 C.2       1 TSS         0.0166
      6 NE1        -1.1060  -16.3600   13.5250 N.pl3     1 TSS        -0.2891
      7 CE2        -1.9930  -17.0870   14.2300 C.ar      1 TSS         0.0603
      8 CD2        -2.1140  -16.4670   15.5580 C.ar      1 TSS        -0.0214
      9 CZ2        -2.7550  -18.2190   13.9610 C.ar      1 TSS        -0.0443
     10 CH2        -3.6010  -18.7290   14.9480 C.ar      1 TSS        -0.0768
     11 CZ3        -3.7030  -18.1280   16.2110 C.ar      1 TSS        -0.0792
     12 CE3        -2.9550  -16.9920   16.5260 C.ar      1 TSS        -0.0747
     13 H1         -2.6305  -11.9689   18.2148 H         1 TSS         0.1995
     14 H2         -1.0020  -12.1069   18.0190 H         1 TSS         0.1995
     15 H3         -1.8313  -13.2589   18.8523 H         1 TSS         0.1995
     16 H4         -2.1222  -12.6564   15.9962 H         1 TSS         0.0828
     17 H5         -3.0272  -13.9136   16.9056 H         1 TSS         0.0828
     18 H6         -0.7718  -14.8860   17.5822 H         1 TSS         0.0401
     19 H7         -0.0204  -13.7568   16.4045 H         1 TSS         0.0401
     20 H8          0.0998  -14.5894   13.9109 H         1 TSS         0.0795
     21 H9         -0.8238  -16.5643   12.5557 H         1 TSS         0.2216
     22 H10        -2.6926  -18.7017   12.9924 H         1 TSS         0.0541
     23 H11        -4.1933  -19.6110   14.7327 H         1 TSS         0.0530
     24 H12        -4.3713  -18.5510   16.9523 H         1 TSS         0.0510
     25 H13        -3.0304  -16.5317   17.5045 H         1 TSS         0.0540
@<TRIPOS>BOND
     1    1    2 1  
     2    2    3 1  
     3    3    4 1  
     4    4    5 2  
     5    4    8 1  
     6    5    6 1  
     7    6    7 1  
     8    7    8 ar 
     9    7    9 ar 
    10    8   12 ar 
    11    9   10 ar 
    12   10   11 ar 
    13   11   12 ar 
    14    1   13 1  
    15    1   14 1  
    16    1   15 1  
    17    2   16 1  
    18    2   17 1  
    19    3   18 1  
    20    3   19 1  
    21    5   20 1  
    22    6   21 1  
    23    9   22 1  
    24   10   23 1  
    25   11   24 1  
    26   12   25 1  
@<TRIPOS>SUBSTRUCTURE
     1 TSS         1

