### 
### Created by X-TOOL on Mon Sep 10 21:13:05 2018
### 

@<TRIPOS>MOLECULE
3rxj_ligand
   22    22     1     0     0
SMALL
GAST_HUCK


@<TRIPOS>ATOM
      1 CD         -0.2630  -15.1340   13.4860 C.2       1 GBS         0.3689
      2 OD         -0.5370  -16.2780   12.7900 O.co2     1 GBS        -0.2576
      3 C1         -0.9620  -14.9950   14.7640 C.ar      1 GBS         0.0633
      4 C21        -0.7010  -13.9270   15.6300 C.ar      1 GBS        -0.0512
      5 C22        -1.9090  -15.9640   15.1260 C.ar      1 GBS        -0.0512
      6 C31        -1.2860  -13.8840   16.8890 C.ar      1 GBS        -0.0347
      7 C32        -2.4990  -15.9310   16.3820 C.ar      1 GBS        -0.0347
      8 C4         -2.1520  -14.9190   17.3100 C.ar      1 GBS         0.0543
      9 NE         -2.7620  -14.8980   18.5790 N.pl3     1 GBS        -0.2994
     10 CZ         -2.5200  -13.7590   19.4550 C.cat     1 GBS         0.1291
     11 NH1        -2.1750  -12.6040   18.9560 N.pl3     1 GBS        -0.3576
     12 NH2        -2.6050  -14.0820   20.8430 N.pl3     1 GBS        -0.3576
     13 OXT         0.5440  -14.3600   12.9560 O.co2     1 GBS        -0.2576
     14 H1         -0.0383  -13.1286   15.3163 H         1 GBS         0.0625
     15 H2         -2.1814  -16.7420   14.4220 H         1 GBS         0.0625
     16 H3         -1.0774  -13.0524   17.5523 H         1 GBS         0.0550
     17 H4         -3.2296  -16.6842   16.6541 H         1 GBS         0.0550
     18 H5         -3.3681  -15.6735   18.8824 H         1 GBS         0.1963
     19 H6         -2.0054  -11.8030   19.5809 H         1 GBS         0.1637
     20 H7         -2.0722  -12.4932   17.9372 H         1 GBS         0.1637
     21 H8         -2.8887  -15.0281   21.1352 H         1 GBS         0.1637
     22 H9         -2.3827  -13.3690   21.5523 H         1 GBS         0.1637
@<TRIPOS>BOND
     1    1    2 ar 
     2    1    3 1  
     3    1   13 ar 
     4    3    4 ar 
     5    3    5 ar 
     6    4    6 ar 
     7    5    7 ar 
     8    6    8 ar 
     9    7    8 ar 
    10    8    9 1  
    11    9   10 ar 
    12   10   11 ar 
    13   10   12 ar 
    14    4   14 1  
    15    5   15 1  
    16    6   16 1  
    17    7   17 1  
    18    9   18 1  
    19   11   19 1  
    20   11   20 1  
    21   12   21 1  
    22   12   22 1  
@<TRIPOS>SUBSTRUCTURE
     1 GBS         1

