### 
### Created by X-TOOL on Mon Sep 10 21:13:05 2018
### 

@<TRIPOS>MOLECULE
3rxk_ligand
   27    27     1     0     0
SMALL
GAST_HUCK


@<TRIPOS>ATOM
      1 C1         -1.9180  -13.6920   17.0890 C.3       1 SZ8         0.0241
      2 N1         -1.6460  -12.9600   18.2640 N.4       1 SZ8         0.2248
      3 O1         -3.5930  -17.4980   16.4300 O.3       1 SZ8        -0.2759
      4 C2         -0.9480  -13.6180   15.9520 C.3       1 SZ8         0.0143
      5 N2         -1.1960  -14.8060   15.1790 N.4       1 SZ8         0.2572
      6 O2         -2.5750  -17.3230   14.4470 O.2       1 SZ8        -0.3641
      7 C3         -0.7650  -15.0530   13.8070 C.3       1 SZ8        -0.0407
      8 C4         -1.9540  -15.7200   15.9800 C.3       1 SZ8         0.0852
      9 C5         -2.7180  -16.8790   15.5140 C.2       1 SZ8         0.2828
     10 C6         -4.4800  -18.4550   15.8810 C.3       1 SZ8         0.0660
     11 C7         -2.4480  -15.0860   17.2380 C.3       1 SZ8         0.0570
     12 H1         -2.7872  -13.1446   16.6956 H         1 SZ8         0.0907
     13 H2         -1.2980  -12.0466   18.0178 H         1 SZ8         0.1999
     14 H3         -0.9534  -13.4473   18.8107 H         1 SZ8         0.1999
     15 H4         -2.4923  -12.8630   18.8030 H         1 SZ8         0.1999
     16 H5          0.0866  -13.6077   16.3254 H         1 SZ8         0.0871
     17 H6         -1.1284  -12.7174   15.3468 H         1 SZ8         0.0871
     18 H7         -0.3274  -15.2141   15.4874 H         1 SZ8         0.2056
     19 H8         -1.1051  -16.0498   13.4897 H         1 SZ8         0.0778
     20 H9          0.3327  -15.0058   13.7533 H         1 SZ8         0.0778
     21 H10        -1.1977  -14.2897   13.1436 H         1 SZ8         0.0778
     22 H11        -1.1025  -16.2863   16.3852 H         1 SZ8         0.1118
     23 H12        -5.1113  -18.8707   16.6802 H         1 SZ8         0.0577
     24 H13        -3.9015  -19.2646   15.4122 H         1 SZ8         0.0577
     25 H14        -5.1165  -17.9733   15.1242 H         1 SZ8         0.0577
     26 H15        -3.5467  -15.0961   17.2900 H         1 SZ8         0.0404
     27 H16        -2.0342  -15.5816   18.1286 H         1 SZ8         0.0404
@<TRIPOS>BOND
     1    1    2 1  
     2    4    1 1  
     3    1   11 1  
     4    9    3 1  
     5    3   10 1  
     6    5    4 1  
     7    5    7 1  
     8    8    5 1  
     9    9    6 2  
    10    8    9 1  
    11    8   11 1  
    12    1   12 1  
    13    2   13 1  
    14    2   14 1  
    15    2   15 1  
    16    4   16 1  
    17    4   17 1  
    18    5   18 1  
    19    7   19 1  
    20    7   20 1  
    21    7   21 1  
    22    8   22 1  
    23   10   23 1  
    24   10   24 1  
    25   10   25 1  
    26   11   26 1  
    27   11   27 1  
@<TRIPOS>SUBSTRUCTURE
     1 SZ8         1

