### 
### Created by X-TOOL on Mon Sep 10 21:13:05 2018
### 

@<TRIPOS>MOLECULE
3rxl_ligand
   21    21     1     0     0
SMALL
GAST_HUCK


@<TRIPOS>ATOM
      1 N          -3.0610  -13.5410   19.0190 N.4       1 SZ9         0.2242
      2 O          -1.7990  -15.8270   15.4890 O.3       1 SZ9        -0.2743
      3 C1         -1.2030  -14.4140   13.4960 C.3       1 SZ9        -0.0068
      4 C2         -1.4650  -14.6050   14.9670 C.2       1 SZ9         0.0798
      5 C3         -1.3840  -13.5520   15.8610 C.2       1 SZ9        -0.0732
      6 C4         -1.6880  -14.1050   17.0970 C.2       1 SZ9        -0.0215
      7 C5         -1.7460  -13.3980   18.4320 C.3       1 SZ9        -0.0252
      8 C6         -1.9430  -15.5490   16.8230 C.2       1 SZ9         0.0839
      9 C7         -2.3130  -16.7250   17.6870 C.3       1 SZ9        -0.0120
     10 H1         -3.0858  -13.0656   19.9075 H         1 SZ9         0.2000
     11 H2         -3.2635  -14.5190   19.1555 H         1 SZ9         0.2000
     12 H3         -3.7496  -13.1380   18.4030 H         1 SZ9         0.2000
     13 H4         -0.9537  -13.3604   13.3018 H         1 SZ9         0.0401
     14 H5         -2.1017  -14.6894   12.9247 H         1 SZ9         0.0401
     15 H6         -0.3623  -15.0526   13.1873 H         1 SZ9         0.0401
     16 H7         -1.1356  -12.5145   15.6422 H         1 SZ9         0.0171
     17 H8         -0.9972  -13.8368   19.1078 H         1 SZ9         0.0878
     18 H9         -1.5276  -12.3297   18.2867 H         1 SZ9         0.0878
     19 H10        -2.4035  -16.3973   18.7331 H         1 SZ9         0.0373
     20 H11        -1.5323  -17.4961   17.6106 H         1 SZ9         0.0373
     21 H12        -3.2735  -17.1408   17.3486 H         1 SZ9         0.0373
@<TRIPOS>BOND
     1    7    1 1  
     2    4    2 1  
     3    2    8 1  
     4    4    3 1  
     5    5    4 2  
     6    6    5 1  
     7    6    7 1  
     8    6    8 2  
     9    8    9 1  
    10    1   10 1  
    11    1   11 1  
    12    1   12 1  
    13    3   13 1  
    14    3   14 1  
    15    3   15 1  
    16    5   16 1  
    17    7   17 1  
    18    7   18 1  
    19    9   19 1  
    20    9   20 1  
    21    9   21 1  
@<TRIPOS>SUBSTRUCTURE
     1 SZ9         1

