### 
### Created by X-TOOL on Mon Sep 10 21:13:05 2018
### 

@<TRIPOS>MOLECULE
3rxm_ligand
   21    22     1     0     0
SMALL
GAST_HUCK


@<TRIPOS>ATOM
      1 C1         -1.8110  -13.2780   18.3170 C.3       1 SW1        -0.0013
      2 N1         -3.1100  -13.4840   18.9220 N.4       1 SW1         0.2291
      3 S1         -1.2070  -14.5710   14.5140 S.3       1 SW1        -0.0244
      4 C2         -1.7380  -13.9920   16.9860 C.2       1 SW1         0.0403
      5 N2         -2.2930  -15.2280   16.7640 N.2       1 SW1        -0.3080
      6 S2         -3.9090  -17.7880   15.8520 S.3       1 SW1        -0.0299
      7 C3         -1.0970  -13.4800   15.8520 C.2       1 SW1         0.0067
      8 C4         -2.0970  -15.6720   15.5040 C.2       1 SW1         0.1100
      9 C5         -2.6200  -16.9860   15.0450 C.2       1 SW1         0.0706
     10 C6         -2.1340  -17.6890   13.9500 C.2       1 SW1        -0.0573
     11 C7         -2.8280  -18.8980   13.7750 C.2       1 SW1        -0.0652
     12 C8         -3.8260  -19.0960   14.7240 C.2       1 SW1         0.0014
     13 H1         -1.0317  -13.6735   18.9851 H         1 SW1         0.0953
     14 H2         -1.6488  -12.2012   18.1615 H         1 SW1         0.0953
     15 H3         -3.1479  -13.0044   19.8078 H         1 SW1         0.2006
     16 H4         -3.2605  -14.4701   19.0672 H         1 SW1         0.2006
     17 H5         -3.8260  -13.1209   18.3124 H         1 SW1         0.2006
     18 H6         -0.5923  -12.5157   15.8164 H         1 SW1         0.0587
     19 H7         -1.3212  -17.3476   13.3107 H         1 SW1         0.0515
     20 H8         -2.6075  -19.6072   12.9785 H         1 SW1         0.0448
     21 H9         -4.4762  -19.9691   14.7529 H         1 SW1         0.0810
@<TRIPOS>BOND
     1    1    2 1  
     2    4    1 1  
     3    3    7 1  
     4    8    3 1  
     5    5    4 1  
     6    4    7 2  
     7    8    5 2  
     8    9    6 1  
     9    6   12 1  
    10    8    9 1  
    11    9   10 2  
    12   10   11 1  
    13   11   12 2  
    14    1   13 1  
    15    1   14 1  
    16    2   15 1  
    17    2   16 1  
    18    2   17 1  
    19    7   18 1  
    20   10   19 1  
    21   11   20 1  
    22   12   21 1  
@<TRIPOS>SUBSTRUCTURE
     1 SW1         1

