### 
### Created by X-TOOL on Mon Sep 10 21:13:05 2018
### 

@<TRIPOS>MOLECULE
3rxo_ligand
   26    27     1     0     0
SMALL
GAST_HUCK


@<TRIPOS>ATOM
      1 C1         -1.7030  -13.4820   18.3010 C.3       1 SW2        -0.0031
      2 N1         -3.0300  -13.4880   18.8880 N.4       1 SW2         0.2307
      3 C2         -1.6840  -14.1980   16.9640 C.ar      1 SW2        -0.0027
      4 N2         -2.9610  -17.3110   15.3810 N.pl3     1 SW2        -0.2428
      5 C3         -1.0160  -13.6220   15.8960 C.ar      1 SW2        -0.0620
      6 C4         -0.9950  -14.2710   14.6750 C.ar      1 SW2        -0.0721
      7 C5         -1.6420  -15.4930   14.5190 C.ar      1 SW2        -0.0337
      8 C6         -2.3260  -16.1280   15.5640 C.ar      1 SW2         0.0872
      9 C7         -2.5980  -18.2220   14.4730 C.2       1 SW2         0.0285
     10 C8         -3.5160  -19.2510   14.5990 C.2       1 SW2        -0.0842
     11 C9         -4.4160  -18.8950   15.5900 C.2       1 SW2        -0.0842
     12 C10        -4.0510  -17.6570   16.0690 C.2       1 SW2         0.0285
     13 C11        -2.3230  -15.4290   16.7870 C.ar      1 SW2        -0.0208
     14 H1         -1.0064  -13.9866   18.9867 H         1 SW2         0.0978
     15 H2         -1.3821  -12.4403   18.1533 H         1 SW2         0.0978
     16 H3         -3.0081  -13.0058   19.7729 H         1 SW2         0.2008
     17 H4         -3.3297  -14.4397   19.0313 H         1 SW2         0.2008
     18 H5         -3.6740  -13.0227   18.2676 H         1 SW2         0.2008
     19 H6         -0.5132  -12.6692   16.0164 H         1 SW2         0.0502
     20 H7         -0.4724  -13.8259   13.8360 H         1 SW2         0.0583
     21 H8         -1.6157  -15.9740   13.5479 H         1 SW2         0.0530
     22 H9         -1.7588  -18.1668   13.7812 H         1 SW2         0.0810
     23 H10        -3.5282  -20.1747   14.0223 H         1 SW2         0.0283
     24 H11        -5.2627  -19.4894   15.9301 H         1 SW2         0.0283
     25 H12        -4.5482  -17.0801   16.8474 H         1 SW2         0.0810
     26 H13        -2.8415  -15.8669   17.6323 H         1 SW2         0.0525
@<TRIPOS>BOND
     1    1    2 1  
     2    3    1 1  
     3    5    3 ar 
     4    3   13 ar 
     5    8    4 1  
     6    4    9 1  
     7    4   12 1  
     8    6    5 ar 
     9    7    6 ar 
    10    7    8 ar 
    11    8   13 ar 
    12    9   10 2  
    13   10   11 1  
    14   11   12 2  
    15    1   14 1  
    16    1   15 1  
    17    2   16 1  
    18    2   17 1  
    19    2   18 1  
    20    5   19 1  
    21    6   20 1  
    22    7   21 1  
    23    9   22 1  
    24   10   23 1  
    25   11   24 1  
    26   12   25 1  
    27   13   26 1  
@<TRIPOS>SUBSTRUCTURE
     1 SW2         1

