### 
### Created by X-TOOL on Mon Sep 10 21:13:05 2018
### 

@<TRIPOS>MOLECULE
3rxp_ligand
   21    21     1     0     0
SMALL
GAST_HUCK


@<TRIPOS>ATOM
      1 C1         -1.0050  -14.1400   13.4810 C.3       1 SW3        -0.0034
      2 N1         -3.1200  -13.5550   18.9450 N.4       1 SW3         0.2295
      3 C2         -1.3460  -14.4720   14.9100 C.2       1 SW3         0.0595
      4 N2         -1.8970  -15.3340   16.8790 N.2       1 SW3        -0.2376
      5 C3         -1.3340  -13.4410   15.8310 C.2       1 SW3        -0.0440
      6 N3         -1.6800  -15.5930   15.5240 N.pl3     1 SW3        -0.2188
      7 C4         -1.6850  -14.0050   17.0590 C.2       1 SW3         0.0374
      8 C5         -1.8130  -13.2910   18.3840 C.3       1 SW3        -0.0015
      9 C6         -1.8490  -16.9950   15.0660 C.3       1 SW3         0.0553
     10 H1         -0.7829  -13.0659   13.3971 H         1 SW3         0.0437
     11 H2         -1.8580  -14.3897   12.8329 H         1 SW3         0.0437
     12 H3         -0.1250  -14.7218   13.1693 H         1 SW3         0.0437
     13 H4         -3.2082  -13.0796   19.8295 H         1 SW3         0.2006
     14 H5         -3.2318  -14.5471   19.0841 H         1 SW3         0.2006
     15 H6         -3.8307  -13.2222   18.3124 H         1 SW3         0.2006
     16 H7         -1.0976  -12.3958   15.6370 H         1 SW3         0.0217
     17 H8         -1.0369  -13.6543   19.0736 H         1 SW3         0.0961
     18 H9         -1.6904  -12.2086   18.2314 H         1 SW3         0.0961
     19 H10        -2.1399  -17.6266   15.9183 H         1 SW3         0.0589
     20 H11        -0.9003  -17.3604   14.6459 H         1 SW3         0.0589
     21 H12        -2.6320  -17.0369   14.2945 H         1 SW3         0.0589
@<TRIPOS>BOND
     1    3    1 1  
     2    8    2 1  
     3    5    3 2  
     4    3    6 1  
     5    4    6 1  
     6    7    4 2  
     7    7    5 1  
     8    6    9 1  
     9    7    8 1  
    10    1   10 1  
    11    1   11 1  
    12    1   12 1  
    13    2   13 1  
    14    2   14 1  
    15    2   15 1  
    16    5   16 1  
    17    8   17 1  
    18    8   18 1  
    19    9   19 1  
    20    9   20 1  
    21    9   21 1  
@<TRIPOS>SUBSTRUCTURE
     1 SW3         1

