### 
### Created by X-TOOL on Mon Sep 10 21:13:05 2018
### 

@<TRIPOS>MOLECULE
3ry8_ligand
   18    17     1     0     0
SMALL
GAST_HUCK


@<TRIPOS>ATOM
      1 CAC         4.5180   13.5750   39.7130 C.2       1 FLC         0.0371
      2 CA          4.8140   12.4740   40.6540 C.3       1 FLC         0.0356
      3 CB          4.8420   11.0960   40.0410 C.3       1 FLC         0.1328
      4 CBC         3.5000   10.7540   39.4830 C.2       1 FLC         0.0796
      5 CG          5.2210   10.1660   41.1570 C.3       1 FLC         0.0356
      6 CGC         5.3320    8.7300   40.7660 C.2       1 FLC         0.0371
      7 OA1         3.6220   13.4510   38.8500 O.co2     1 FLC        -0.5690
      8 OA2         5.1710   14.6450   39.8240 O.co2     1 FLC        -0.5690
      9 OB1         2.4820   10.6640   40.2360 O.co2     1 FLC        -0.5449
     10 OB2         3.3370   10.5520   38.2400 O.co2     1 FLC        -0.5449
     11 OG1         5.2620    8.3480   39.5680 O.co2     1 FLC        -0.5690
     12 OG2         5.5110    7.8470   41.6490 O.co2     1 FLC        -0.5690
     13 OHB         5.8150   11.0420   39.0390 O.3       1 FLC        -0.3818
     14 H           4.0140   12.4712   41.3943 H         1 FLC         0.0452
     15 H           5.8120   12.6607   41.0505 H         1 FLC         0.0452
     16 H           4.4299   10.2299   41.9041 H         1 FLC         0.0452
     17 H           6.2062   10.4757   41.5057 H         1 FLC         0.0452
     18 H           5.8454   10.1556   38.6715 H         1 FLC         0.2091
@<TRIPOS>BOND
     1    1    2 1  
     2    1    7 ar 
     3    1    8 ar 
     4    2    3 1  
     5    3    4 1  
     6    3    5 1  
     7    3   13 1  
     8    4    9 ar 
     9    4   10 ar 
    10    5    6 1  
    11    6   11 ar 
    12    6   12 ar 
    13    2   14 1  
    14    2   15 1  
    15    5   16 1  
    16    5   17 1  
    17   13   18 1  
@<TRIPOS>SUBSTRUCTURE
     1 FLC         1

