### 
### Created by X-TOOL on Mon Sep 10 21:13:05 2018
### 

@<TRIPOS>MOLECULE
3ryv_ligand
   27    27     1     0     0
SMALL
GAST_HUCK


@<TRIPOS>ATOM
      1 S          15.0830   -0.0050   16.8010 S.o2      1 RYV         0.0677
      2 N'         18.6830    4.7570   13.6040 N.am      1 RYV        -0.2864
      3 O'         16.6900    5.7540   13.6820 O.2       1 RYV        -0.3847
      4 C1         16.8540    3.6010   14.6440 C.ar      1 RYV         0.0499
      5 C2         14.9090    2.4100   15.5030 C.ar      1 RYV        -0.0295
      6 C3         15.4640    3.5180   14.8420 C.ar      1 RYV        -0.0401
      7 C4         15.7320    1.3580   15.9510 C.ar      1 RYV         0.1122
      8 C5         17.6880    2.5520   15.1200 C.ar      1 RYV        -0.0401
      9 C6         17.1360    1.4600   15.7910 C.ar      1 RYV        -0.0295
     10 C7         17.4400    4.7600   13.9120 C.2       1 RYV         0.2049
     11 C1'        19.2990    5.8870   12.8630 C.3       1 RYV         0.0276
     12 O1S        13.6680    0.0790   16.6480 O.2       1 RYV        -0.1499
     13 C2'        19.4690    6.9820   13.9400 C.3       1 RYV        -0.0449
     14 O2S        15.5900    0.0490   18.1750 O.2       1 RYV        -0.1499
     15 N3S        15.6990   -1.3180   16.0630 N.am      1 RYV        -0.2605
     16 H1         19.2508    3.9773   13.8680 H         1 RYV         0.1844
     17 H2         13.8389    2.3639   15.6698 H         1 RYV         0.0649
     18 H3         14.8189    4.3118   14.4832 H         1 RYV         0.0670
     19 H4         18.7591    2.6010   14.9606 H         1 RYV         0.0670
     20 H5         17.7832    0.6878   16.1909 H         1 RYV         0.0649
     21 H6         18.6385    6.2319   12.0538 H         1 RYV         0.0517
     22 H7         20.2729    5.5959   12.4425 H         1 RYV         0.0517
     23 H8         19.9243    7.8748   13.4865 H         1 RYV         0.0249
     24 H9         20.1191    6.6074   14.7444 H         1 RYV         0.0249
     25 H10        18.4847    7.2434   14.3557 H         1 RYV         0.0249
     26 H11        15.4592   -2.2328   16.3879 H         1 RYV         0.1635
     27 H12        16.3174   -1.2100   15.2845 H         1 RYV         0.1635
@<TRIPOS>BOND
     1    7    1 1  
     2    1   12 2  
     3    1   14 2  
     4    1   15 am 
     5   10    2 am 
     6    2   11 1  
     7   10    3 2  
     8    6    4 ar 
     9    4    8 ar 
    10    4   10 1  
    11    5    6 ar 
    12    5    7 ar 
    13    7    9 ar 
    14    8    9 ar 
    15   11   13 1  
    16    2   16 1  
    17    5   17 1  
    18    6   18 1  
    19    8   19 1  
    20    9   20 1  
    21   11   21 1  
    22   11   22 1  
    23   13   23 1  
    24   13   24 1  
    25   13   25 1  
    26   15   26 1  
    27   15   27 1  
@<TRIPOS>SUBSTRUCTURE
     1 RYV         1

