### 
### Created by X-TOOL on Mon Sep 10 21:13:05 2018
### 

@<TRIPOS>MOLECULE
3ryx_ligand
   30    30     1     0     0
SMALL
GAST_HUCK


@<TRIPOS>ATOM
      1 S          15.3200   -0.0610   16.9560 S.o2      1 RYX         0.0677
      2 N'         18.6740    4.8340   13.6410 N.am      1 RYX        -0.2801
      3 O'         16.6340    5.7160   13.7550 O.2       1 RYX        -0.3847
      4 C1         16.8450    3.6210   14.7750 C.ar      1 RYX         0.0499
      5 C2         17.2920    1.4320   15.8440 C.ar      1 RYX        -0.0295
      6 C3         17.7040    2.5550   15.1230 C.ar      1 RYX        -0.0401
      7 C4         15.9090    1.2880   16.1400 C.ar      1 RYX         0.1122
      8 C5         15.4790    3.5400   15.0770 C.ar      1 RYX        -0.0401
      9 C6         15.0580    2.3560   15.7010 C.ar      1 RYX        -0.0295
     10 C7         17.3920    4.7960   14.0350 C.2       1 RYX         0.2051
     11 F2'1       21.2210    5.9120   13.4060 F         1 RYX        -0.1936
     12 F3'1       20.3440    8.3910   12.5280 F         1 RYX        -0.1649
     13 F2'2       19.9110    6.4730   15.1970 F         1 RYX        -0.1936
     14 F3'2       20.8790    8.7160   14.6690 F         1 RYX        -0.1649
     15 F3'3       18.8560    8.1270   14.3260 F         1 RYX        -0.1649
     16 C1'        19.1600    5.9710   12.8980 C.3       1 RYX         0.1027
     17 O1S        13.8650    0.0450   16.8310 O.2       1 RYX        -0.1499
     18 C2'        20.1680    6.5780   13.8780 C.3       1 RYX         0.3608
     19 O2S        15.8390    0.0180   18.2890 O.2       1 RYX        -0.1499
     20 C3'        20.0870    8.0650   13.8130 C.3       1 RYX         0.4559
     21 N3S        15.9410   -1.3240   16.2230 N.am      1 RYX        -0.2605
     22 H1         19.2898    4.0776   13.8614 H         1 RYX         0.1847
     23 H2         18.0097    0.6879   16.1701 H         1 RYX         0.0649
     24 H3         18.7412    2.6117   14.8131 H         1 RYX         0.0670
     25 H4         14.7897    4.3431   14.8428 H         1 RYX         0.0670
     26 H5         13.9932    2.2376   15.8663 H         1 RYX         0.0649
     27 H6         18.3481    6.6772   12.6700 H         1 RYX         0.0582
     28 H7         19.6484    5.6594   11.9629 H         1 RYX         0.0582
     29 H8         15.7235   -2.2456   16.5444 H         1 RYX         0.1635
     30 H9         16.5498   -1.1983   15.4397 H         1 RYX         0.1635
@<TRIPOS>BOND
     1    7    1 1  
     2    1   17 2  
     3    1   19 2  
     4    1   21 am 
     5    2   10 am 
     6   16    2 1  
     7   10    3 2  
     8    4    6 ar 
     9    4    8 ar 
    10   10    4 1  
    11    6    5 ar 
    12    5    7 ar 
    13    9    7 ar 
    14    8    9 ar 
    15   18   11 1  
    16   20   12 1  
    17   18   13 1  
    18   20   14 1  
    19   20   15 1  
    20   18   16 1  
    21   18   20 1  
    22    2   22 1  
    23    5   23 1  
    24    6   24 1  
    25    8   25 1  
    26    9   26 1  
    27   16   27 1  
    28   16   28 1  
    29   21   29 1  
    30   21   30 1  
@<TRIPOS>SUBSTRUCTURE
     1 RYX         1

