### 
### Created by X-TOOL on Mon Sep 10 21:13:05 2018
### 

@<TRIPOS>MOLECULE
3ryy_ligand
   30    30     1     0     0
SMALL
GAST_HUCK


@<TRIPOS>ATOM
      1 N          18.5170    5.7450   13.5730 N.am      1 RYY        -0.2861
      2 S          15.1030    0.9020   16.8800 S.o2      1 RYY         0.0677
      3 C1         16.7630    4.5320   14.6920 C.ar      1 RYY         0.0499
      4 C2         15.3780    4.4480   14.9410 C.ar      1 RYY        -0.0401
      5 C3         14.8680    3.3380   15.6160 C.ar      1 RYY        -0.0295
      6 C4         15.7400    2.3080   16.0770 C.ar      1 RYY         0.1122
      7 C5         17.1160    2.4270   15.8230 C.ar      1 RYY        -0.0295
      8 C6         17.6310    3.5150   15.1390 C.ar      1 RYY        -0.0401
      9 C7         17.2660    5.7260   13.9230 C.2       1 RYY         0.2049
     10 O7         16.4970    6.6680   13.6900 O.2       1 RYY        -0.3847
     11 C1'        19.0250    6.8480   12.7240 C.3       1 RYY         0.0302
     12 C16        19.5680    8.2250   14.6180 C.3       1 RYY        -0.0635
     13 O1S        13.6560    0.9670   16.7210 O.2       1 RYY        -0.1499
     14 C2'        20.0920    7.5370   13.4110 C.3       1 RYY        -0.0356
     15 O2S        15.6430    0.9820   18.2400 O.2       1 RYY        -0.1499
     16 N3S        15.6800   -0.3700   16.1230 N.am      1 RYY        -0.2605
     17 H1         19.1342    5.0186   13.8752 H         1 RYY         0.1845
     18 H2         14.7145    5.2391   14.6109 H         1 RYY         0.0670
     19 H3         13.8012    3.2582   15.7912 H         1 RYY         0.0649
     20 H4         17.7888    1.6510   16.1696 H         1 RYY         0.0649
     21 H5         18.6958    3.5845   14.9482 H         1 RYY         0.0670
     22 H6         18.2084    7.5546   12.5146 H         1 RYY         0.0519
     23 H7         19.4052    6.4360   11.7776 H         1 RYY         0.0519
     24 H8         20.3912    8.7447   15.1302 H         1 RYY         0.0230
     25 H9         19.1227    7.4840   15.2982 H         1 RYY         0.0230
     26 H10        18.8020    8.9560   14.3199 H         1 RYY         0.0230
     27 H11        20.5384    8.2807   12.7346 H         1 RYY         0.0282
     28 H12        20.8591    6.8087   13.7128 H         1 RYY         0.0282
     29 H13        15.4331   -1.2891   16.4299 H         1 RYY         0.1635
     30 H14        16.2901   -0.2515   15.3396 H         1 RYY         0.1635
@<TRIPOS>BOND
     1    9    1 am 
     2    1   11 1  
     3    6    2 1  
     4    2   13 2  
     5    2   15 2  
     6    2   16 am 
     7    4    3 ar 
     8    3    8 ar 
     9    3    9 1  
    10    5    4 ar 
    11    5    6 ar 
    12    6    7 ar 
    13    7    8 ar 
    14    9   10 2  
    15   11   14 1  
    16   14   12 1  
    17    1   17 1  
    18    4   18 1  
    19    5   19 1  
    20    7   20 1  
    21    8   21 1  
    22   11   22 1  
    23   11   23 1  
    24   12   24 1  
    25   12   25 1  
    26   12   26 1  
    27   14   27 1  
    28   14   28 1  
    29   16   29 1  
    30   16   30 1  
@<TRIPOS>SUBSTRUCTURE
     1 RYY         1

