### 
### Created by X-TOOL on Mon Sep 10 21:13:05 2018
### 

@<TRIPOS>MOLECULE
3ryz_ligand
   33    33     1     0     0
SMALL
GAST_HUCK


@<TRIPOS>ATOM
      1 S          15.1040    0.9880   16.8390 S.o2      1 RYZ         0.0677
      2 N'         18.5310    5.8400   13.5380 N.am      1 RYZ        -0.2802
      3 O'         16.4300    6.6550   13.5280 O.2       1 RYZ        -0.3847
      4 C1         16.7230    4.6060   14.6110 C.ar      1 RYZ         0.0499
      5 C2         17.0410    2.4570   15.8020 C.ar      1 RYZ        -0.0295
      6 C3         17.5720    3.5920   15.0880 C.ar      1 RYZ        -0.0401
      7 C4         15.6480    2.3260   16.0060 C.ar      1 RYZ         0.1122
      8 C5         15.3340    4.5110   14.8270 C.ar      1 RYZ        -0.0401
      9 C6         14.7890    3.4040   15.5440 C.ar      1 RYZ        -0.0295
     10 C7         17.2400    5.7600   13.8490 C.2       1 RYZ         0.2051
     11 F2'1       20.3320    7.6460   14.7320 F         1 RYZ        -0.1965
     12 F3'1       19.1060    9.6650   12.1060 F         1 RYZ        -0.1891
     13 F4'1       21.0910   11.1990   13.0750 F         1 RYZ        -0.1648
     14 F2'2       18.5850    8.4970   14.5200 F         1 RYZ        -0.1965
     15 F3'2       21.0520    8.7730   12.2830 F         1 RYZ        -0.1891
     16 F4'2       20.9180   10.1310   14.9930 F         1 RYZ        -0.1648
     17 F4'3       19.2270   11.0340   14.2300 F         1 RYZ        -0.1648
     18 C1'        19.0970    6.9690   12.7710 C.3       1 RYZ         0.1000
     19 O1S        13.6350    1.0140   16.7140 O.2       1 RYZ        -0.1499
     20 C2'        19.5480    8.0920   13.7510 C.3       1 RYZ         0.3388
     21 O2S        15.6060    1.0450   18.1780 O.2       1 RYZ        -0.1499
     22 C3'        20.0450    9.2570   12.9640 C.3       1 RYZ         0.4045
     23 N3S        15.7080   -0.3050   16.0840 N.am      1 RYZ        -0.2605
     24 C4'        20.3610   10.4530   13.8530 C.3       1 RYZ         0.4602
     25 H1         19.1427    5.1069   13.8351 H         1 RYZ         0.1847
     26 H2         17.7146    1.6990   16.1850 H         1 RYZ         0.0649
     27 H3         18.6400    3.6642   14.9168 H         1 RYZ         0.0670
     28 H4         14.6754    5.2833   14.4463 H         1 RYZ         0.0670
     29 H5         13.7246    3.3666   15.7460 H         1 RYZ         0.0649
     30 H6         18.3332    7.3658   12.0861 H         1 RYZ         0.0581
     31 H7         19.9638    6.6195   12.1909 H         1 RYZ         0.0581
     32 H8         15.5030   -1.2231   16.4232 H         1 RYZ         0.1635
     33 H9         16.2871   -0.1877   15.2772 H         1 RYZ         0.1635
@<TRIPOS>BOND
     1    7    1 1  
     2    1   19 2  
     3    1   21 2  
     4    1   23 am 
     5    2   10 am 
     6   18    2 1  
     7   10    3 2  
     8    4    6 ar 
     9    4    8 ar 
    10   10    4 1  
    11    6    5 ar 
    12    5    7 ar 
    13    9    7 ar 
    14    8    9 ar 
    15   20   11 1  
    16   22   12 1  
    17   24   13 1  
    18   20   14 1  
    19   22   15 1  
    20   24   16 1  
    21   24   17 1  
    22   20   18 1  
    23   22   20 1  
    24   22   24 1  
    25    2   25 1  
    26    5   26 1  
    27    6   27 1  
    28    8   28 1  
    29    9   29 1  
    30   18   30 1  
    31   18   31 1  
    32   23   32 1  
    33   23   33 1  
@<TRIPOS>SUBSTRUCTURE
     1 RYZ         1

