### 
### Created by X-TOOL on Mon Sep 10 21:13:05 2018
### 

@<TRIPOS>MOLECULE
3rz0_ligand
   33    33     1     0     0
SMALL
GAST_HUCK


@<TRIPOS>ATOM
      1 S          15.3240    0.2730   16.9610 S.o2      1 RZ0         0.0677
      2 N'         18.4980    5.2960   13.4880 N.am      1 RZ0        -0.2861
      3 O'         16.6560    5.9550   13.6820 O.2       1 RZ0        -0.3847
      4 C1         16.9030    3.8300   14.8090 C.ar      1 RZ0         0.0499
      5 C2         17.2810    1.7410   15.9160 C.ar      1 RZ0        -0.0295
      6 C3         17.8050    2.8440   15.2040 C.ar      1 RZ0        -0.0401
      7 C4         15.9080    1.5890   16.1340 C.ar      1 RZ0         0.1122
      8 C5         15.5380    3.7430   15.0770 C.ar      1 RZ0        -0.0401
      9 C6         15.0400    2.6120   15.7390 C.ar      1 RZ0        -0.0295
     10 C7         17.3860    5.0480   14.0630 C.2       1 RZ0         0.2049
     11 C1'        19.8640    5.2350   13.2870 C.3       1 RZ0         0.0304
     12 O1S        13.8810    0.3040   16.8460 O.2       1 RZ0        -0.1499
     13 C2'        20.0270    6.7430   13.1270 C.3       1 RZ0        -0.0330
     14 O2S        15.8420    0.2550   18.2990 O.2       1 RZ0        -0.1499
     15 C3'        19.7290    7.5190   14.4490 C.3       1 RZ0        -0.0541
     16 N3S        15.8590   -1.0240   16.2840 N.am      1 RZ0        -0.2605
     17 C4'        20.5120    8.8240   14.6280 C.3       1 RZ0        -0.0652
     18 H1         18.2087    5.8855   12.7338 H         1 RZ0         0.1845
     19 H2         17.9623    0.9923   16.3038 H         1 RZ0         0.0649
     20 H3         18.8619    2.9195   14.9753 H         1 RZ0         0.0670
     21 H4         14.8687    4.5412   14.7768 H         1 RZ0         0.0670
     22 H5         13.9790    2.5302   15.9453 H         1 RZ0         0.0649
     23 H6         20.1424    4.6728   12.3835 H         1 RZ0         0.0519
     24 H7         20.4098    4.8316   14.1526 H         1 RZ0         0.0519
     25 H8         19.3329    7.0925   12.3485 H         1 RZ0         0.0285
     26 H9         21.0612    6.9555   12.8185 H         1 RZ0         0.0285
     27 H10        19.9712    6.8578   15.2941 H         1 RZ0         0.0263
     28 H11        18.6560    7.7603   14.4679 H         1 RZ0         0.0263
     29 H12        15.6075   -1.9197   16.6507 H         1 RZ0         0.1635
     30 H13        16.4539   -0.9609   15.4827 H         1 RZ0         0.1635
     31 H14        20.2323    9.2913   15.5837 H         1 RZ0         0.0230
     32 H15        20.2753    9.5100   13.8013 H         1 RZ0         0.0230
     33 H16        21.5905    8.6076   14.6275 H         1 RZ0         0.0230
@<TRIPOS>BOND
     1    7    1 1  
     2    1   12 2  
     3    1   14 2  
     4    1   16 am 
     5   10    2 am 
     6    2   11 1  
     7   10    3 2  
     8    6    4 ar 
     9    4    8 ar 
    10    4   10 1  
    11    5    6 ar 
    12    5    7 ar 
    13    7    9 ar 
    14    8    9 ar 
    15   11   13 1  
    16   13   15 1  
    17   15   17 1  
    18    2   18 1  
    19    5   19 1  
    20    6   20 1  
    21    8   21 1  
    22    9   22 1  
    23   11   23 1  
    24   11   24 1  
    25   13   25 1  
    26   13   26 1  
    27   15   27 1  
    28   15   28 1  
    29   16   29 1  
    30   16   30 1  
    31   17   31 1  
    32   17   32 1  
    33   17   33 1  
@<TRIPOS>SUBSTRUCTURE
     1 RZ0         1

