### 
### Created by X-TOOL on Mon Sep 10 21:13:05 2018
### 

@<TRIPOS>MOLECULE
3rz1_ligand
   36    36     1     0     0
SMALL
GAST_HUCK


@<TRIPOS>ATOM
      1 S          15.0320    0.9630   16.8950 S.o2      1 RZ1         0.0677
      2 N'         18.4380    5.7950   13.5160 N.am      1 RZ1        -0.2802
      3 O'         16.3570    6.6410   13.5250 O.2       1 RZ1        -0.3847
      4 C1         16.6170    4.5570   14.6220 C.ar      1 RZ1         0.0499
      5 C2         17.0450    2.4410   15.7830 C.ar      1 RZ1        -0.0295
      6 C3         17.5010    3.5550   15.0600 C.ar      1 RZ1        -0.0401
      7 C4         15.6400    2.3200   16.0370 C.ar      1 RZ1         0.1122
      8 C5         15.2400    4.4630   14.8810 C.ar      1 RZ1        -0.0401
      9 C6         14.7530    3.3690   15.5850 C.ar      1 RZ1        -0.0295
     10 C7         17.1510    5.7170   13.8420 C.2       1 RZ1         0.2051
     11 F2'1       20.4280    7.4840   14.4460 F         1 RZ1        -0.1967
     12 F3'1       18.8090    9.6780   12.2750 F         1 RZ1        -0.1921
     13 F4'1       20.7630    9.9010   15.3950 F         1 RZ1        -0.1889
     14 F5'1       22.4090   10.0310   13.7550 F         1 RZ1        -0.1648
     15 F2'2       18.5620    8.3570   14.5730 F         1 RZ1        -0.1967
     16 F3'2       20.7940    8.8810   12.1470 F         1 RZ1        -0.1921
     17 F4'2       19.1460   11.0040   14.1990 F         1 RZ1        -0.1889
     18 F5'2       21.6080   12.0200   14.4730 F         1 RZ1        -0.1648
     19 F5'3       21.0730   11.3970   12.3790 F         1 RZ1        -0.1648
     20 C1'        18.9730    6.8860   12.7310 C.3       1 RZ1         0.0999
     21 O1S        13.5690    0.9980   16.7560 O.2       1 RZ1        -0.1499
     22 C2'        19.4690    7.9620   13.7020 C.3       1 RZ1         0.3362
     23 O2S        15.5810    1.0440   18.2360 O.2       1 RZ1        -0.1499
     24 C3'        19.8650    9.2310   13.0060 C.3       1 RZ1         0.3826
     25 N3S        15.6550   -0.3490   16.1820 N.am      1 RZ1        -0.2605
     26 C4'        20.2590   10.2590   14.1310 C.3       1 RZ1         0.4085
     27 C5'        21.4370   10.9980   13.6240 C.3       1 RZ1         0.4603
     28 H1         19.0581    5.0737   13.8246 H         1 RZ1         0.1847
     29 H2         17.7399    1.6898   16.1408 H         1 RZ1         0.0649
     30 H3         18.5575    3.6445   14.8346 H         1 RZ1         0.0670
     31 H4         14.5639    5.2364   14.5350 H         1 RZ1         0.0670
     32 H5         13.6925    3.3006   15.7987 H         1 RZ1         0.0649
     33 H6         18.1874    7.3008   12.0823 H         1 RZ1         0.0581
     34 H7         19.8083    6.5271   12.1117 H         1 RZ1         0.0581
     35 H8         15.4287   -1.2602   16.5263 H         1 RZ1         0.1635
     36 H9         16.2663   -0.2487   15.3970 H         1 RZ1         0.1635
@<TRIPOS>BOND
     1    7    1 1  
     2    1   21 2  
     3    1   23 2  
     4    1   25 am 
     5    2   10 am 
     6   20    2 1  
     7   10    3 2  
     8    4    6 ar 
     9    4    8 ar 
    10   10    4 1  
    11    6    5 ar 
    12    5    7 ar 
    13    9    7 ar 
    14    8    9 ar 
    15   22   11 1  
    16   24   12 1  
    17   26   13 1  
    18   27   14 1  
    19   22   15 1  
    20   24   16 1  
    21   26   17 1  
    22   27   18 1  
    23   27   19 1  
    24   22   20 1  
    25   24   22 1  
    26   26   24 1  
    27   26   27 1  
    28    2   28 1  
    29    5   29 1  
    30    6   30 1  
    31    8   31 1  
    32    9   32 1  
    33   20   33 1  
    34   20   34 1  
    35   25   35 1  
    36   25   36 1  
@<TRIPOS>SUBSTRUCTURE
     1 RZ1         1

