### 
### Created by X-TOOL on Mon Sep 10 21:13:07 2018
### 

@<TRIPOS>MOLECULE
3rz3_ligand
   49    50     1     0     0
SMALL
GAST_HUCK


@<TRIPOS>ATOM
      1 O1         -3.8060  -38.0130  -22.0570 O.co2     1 U94        -0.5663
      2 C2         -3.3550  -36.8190  -22.1160 C.2       1 U94         0.0660
      3 C3         -3.9980  -35.7630  -23.1250 C.3       1 U94         0.1353
      4 O4         -2.3860  -36.3830  -21.4260 O.co2     1 U94        -0.5663
      5 C5         -4.3710  -36.3220  -24.5000 C.3       1 U94         0.1173
      6 C6         -3.2460  -36.2250  -25.5640 C.3       1 U94         0.0815
      7 C7         -2.3880  -34.9580  -25.5450 C.3       1 U94         0.0071
      8 O8         -5.1580  -35.0460  -22.6270 O.3       1 U94        -0.3750
      9 O9         -5.5610  -35.6880  -24.9460 O.3       1 U94        -0.3850
     10 N10        -3.7740  -36.2110  -26.8920 N.am      1 U94        -0.2773
     11 C11        -3.8390  -37.2130  -27.7540 C.2       1 U94         0.2025
     12 O12        -3.6230  -38.4010  -27.5590 O.2       1 U94        -0.3945
     13 C13        -4.3400  -36.7960  -29.1000 C.3       1 U94         0.1362
     14 O14        -4.3360  -37.7690  -30.0280 O.3       1 U94        -0.3627
     15 C15        -5.1940  -37.0830  -30.8660 C.3       1 U94         0.0395
     16 C16        -0.9740  -35.3790  -25.9690 C.ar      1 U94        -0.0397
     17 C17        -0.1380  -35.8920  -24.9990 C.ar      1 U94        -0.0589
     18 C18         1.1280  -36.2760  -25.3490 C.ar      1 U94        -0.0600
     19 C19         1.5650  -36.1390  -26.6420 C.ar      1 U94        -0.0241
     20 C20         0.7380  -35.6280  -27.6180 C.ar      1 U94        -0.0600
     21 C21        -0.5450  -35.2570  -27.2930 C.ar      1 U94        -0.0589
     22 C22         2.8280  -36.5880  -26.9230 C.ar      1 U94        -0.0211
     23 C23         3.8810  -36.3650  -26.0580 C.ar      1 U94        -0.0416
     24 C24         5.1430  -36.8540  -26.3550 C.ar      1 U94         0.0404
     25 C25         5.3500  -37.5990  -27.5120 C.ar      1 U94        -0.0348
     26 C26         4.2830  -37.8120  -28.3690 C.ar      1 U94         0.0404
     27 C27         3.0200  -37.3250  -28.0740 C.ar      1 U94        -0.0416
     28 CL28        4.5240  -38.7120  -29.8010 Cl        1 U94        -0.0710
     29 CL29        6.4610  -36.5710  -25.2850 Cl        1 U94        -0.0710
     30 H          -3.1641  -35.0682  -23.2252 H         1 U94         0.0790
     31 H          -4.5314  -37.3930  -24.3758 H         1 U94         0.0663
     32 H          -2.6456  -37.0968  -25.3042 H         1 U94         0.0607
     33 H          -2.3790  -34.5090  -24.5518 H         1 U94         0.0453
     34 H          -2.7899  -34.2056  -26.2236 H         1 U94         0.0453
     35 H          -5.3782  -34.3353  -23.2336 H         1 U94         0.2125
     36 H          -6.2364  -35.7646  -24.2681 H         1 U94         0.2101
     37 H          -4.1468  -35.3183  -27.2154 H         1 U94         0.1857
     38 H          -3.6715  -36.0133  -29.4585 H         1 U94         0.0804
     39 H          -5.3769  -36.4860  -28.9702 H         1 U94         0.0804
     40 H          -6.1358  -36.8998  -30.3487 H         1 U94         0.0526
     41 H          -4.7417  -36.1321  -31.1476 H         1 U94         0.0526
     42 H          -5.3790  -37.6778  -31.7604 H         1 U94         0.0526
     43 H          -0.4808  -35.9900  -23.9690 H         1 U94         0.0560
     44 H           1.7943  -36.6940  -24.5944 H         1 U94         0.0609
     45 H           1.0985  -35.5186  -28.6408 H         1 U94         0.0609
     46 H          -1.2191  -34.8725  -28.0584 H         1 U94         0.0560
     47 H           3.7189  -35.8025  -25.1386 H         1 U94         0.0622
     48 H           6.3345  -38.0077  -27.7398 H         1 U94         0.0621
     49 H           2.1845  -37.5223  -28.7456 H         1 U94         0.0622
@<TRIPOS>BOND
     1    1    2 ar 
     2    2    3 1  
     3    2    4 ar 
     4    3    5 1  
     5    3    8 1  
     6    5    6 1  
     7    5    9 1  
     8    6    7 1  
     9    6   10 1  
    10    7   16 1  
    11   10   11 am 
    12   11   12 2  
    13   11   13 1  
    14   13   14 1  
    15   14   15 1  
    16   16   17 ar 
    17   16   21 ar 
    18   17   18 ar 
    19   18   19 ar 
    20   19   20 ar 
    21   19   22 1  
    22   20   21 ar 
    23   22   23 ar 
    24   22   27 ar 
    25   23   24 ar 
    26   24   25 ar 
    27   24   29 1  
    28   25   26 ar 
    29   26   27 ar 
    30   26   28 1  
    31    3   30 1  
    32    5   31 1  
    33    6   32 1  
    34    7   33 1  
    35    7   34 1  
    36    8   35 1  
    37    9   36 1  
    38   10   37 1  
    39   13   38 1  
    40   13   39 1  
    41   15   40 1  
    42   15   41 1  
    43   15   42 1  
    44   17   43 1  
    45   18   44 1  
    46   20   45 1  
    47   21   46 1  
    48   23   47 1  
    49   25   48 1  
    50   27   49 1  
@<TRIPOS>SUBSTRUCTURE
     1 U94         1

