### 
### Created by X-TOOL on Mon Sep 10 21:13:05 2018
### 

@<TRIPOS>MOLECULE
3rz5_ligand
   36    36     1     0     0
SMALL
GAST_HUCK


@<TRIPOS>ATOM
      1 S          15.0430    0.9770   16.8780 S.o2      1 RZ5         0.0677
      2 N'         18.5540    5.7500   13.5970 N.am      1 RZ5        -0.2861
      3 O'         16.4660    6.6910   13.5840 O.2       1 RZ5        -0.3847
      4 C1         16.6720    4.5790   14.6460 C.ar      1 RZ5         0.0499
      5 C2         17.0120    2.4570   15.7980 C.ar      1 RZ5        -0.0295
      6 C3         17.5260    3.5630   15.0850 C.ar      1 RZ5        -0.0401
      7 C4         15.6270    2.3040   16.0670 C.ar      1 RZ5         0.1122
      8 C5         15.2980    4.4290   14.8710 C.ar      1 RZ5        -0.0401
      9 C6         14.7700    3.3550   15.5940 C.ar      1 RZ5        -0.0295
     10 C7         17.2340    5.7470   13.8940 C.2       1 RZ5         0.2049
     11 C1'        19.2410    6.8540   12.8650 C.3       1 RZ5         0.0304
     12 O1S        13.5900    1.0140   16.7640 O.2       1 RZ5        -0.1499
     13 C2'        19.6380    7.8610   13.9610 C.3       1 RZ5        -0.0328
     14 O2S        15.5900    1.0310   18.2070 O.2       1 RZ5        -0.1499
     15 C3'        19.9940    9.1990   13.3810 C.3       1 RZ5        -0.0515
     16 N3S        15.6350   -0.3410   16.2120 N.am      1 RZ5        -0.2605
     17 C4'        19.9990   10.2340   14.4950 C.3       1 RZ5        -0.0558
     18 C5'        19.3390   11.4780   13.9350 C.3       1 RZ5        -0.0653
     19 H1         19.1023    4.9650   13.8854 H         1 RZ5         0.1845
     20 H2         17.7001    1.6981   16.1523 H         1 RZ5         0.0649
     21 H3         18.5881    3.6241   14.8772 H         1 RZ5         0.0670
     22 H4         14.6189    5.1727   14.4700 H         1 RZ5         0.0670
     23 H5         13.7063    3.3153   15.7990 H         1 RZ5         0.0649
     24 H6         18.5599    7.3203   12.1379 H         1 RZ5         0.0519
     25 H7         20.1328    6.4773   12.3427 H         1 RZ5         0.0519
     26 H8         20.5065    7.4675   14.5094 H         1 RZ5         0.0285
     27 H9         18.7928    7.9860   14.6538 H         1 RZ5         0.0285
     28 H10        19.2521    9.4803   12.6192 H         1 RZ5         0.0266
     29 H11        20.9915    9.1480   12.9202 H         1 RZ5         0.0266
     30 H12        15.3876   -1.2392   16.5753 H         1 RZ5         0.1635
     31 H13        16.2545   -0.2712   15.4301 H         1 RZ5         0.1635
     32 H14        21.0318   10.4575   14.8005 H         1 RZ5         0.0263
     33 H15        19.4327    9.8615   15.3614 H         1 RZ5         0.0263
     34 H16        19.3180   12.2611   14.7072 H         1 RZ5         0.0230
     35 H17        18.3104   11.2400   13.6261 H         1 RZ5         0.0230
     36 H18        19.9095   11.8359   13.0653 H         1 RZ5         0.0230
@<TRIPOS>BOND
     1    7    1 1  
     2    1   12 2  
     3    1   14 2  
     4    1   16 am 
     5   10    2 am 
     6    2   11 1  
     7   10    3 2  
     8    6    4 ar 
     9    4    8 ar 
    10    4   10 1  
    11    5    6 ar 
    12    5    7 ar 
    13    7    9 ar 
    14    8    9 ar 
    15   11   13 1  
    16   13   15 1  
    17   15   17 1  
    18   17   18 1  
    19    2   19 1  
    20    5   20 1  
    21    6   21 1  
    22    8   22 1  
    23    9   23 1  
    24   11   24 1  
    25   11   25 1  
    26   13   26 1  
    27   13   27 1  
    28   15   28 1  
    29   15   29 1  
    30   16   30 1  
    31   16   31 1  
    32   17   32 1  
    33   17   33 1  
    34   18   34 1  
    35   18   35 1  
    36   18   36 1  
@<TRIPOS>SUBSTRUCTURE
     1 RZ5         1

