### 
### Created by X-TOOL on Mon Sep 10 21:13:05 2018
### 

@<TRIPOS>MOLECULE
3rz7_ligand
   39    39     1     0     0
SMALL
GAST_HUCK


@<TRIPOS>ATOM
      1 S          15.0510    0.9480   16.8880 S.o2      1 RZ7         0.0677
      2 N'         18.3700    5.7220   13.4820 N.am      1 RZ7        -0.2802
      3 O'         16.3390    6.6840   13.5580 O.2       1 RZ7        -0.3847
      4 C1         16.5900    4.5640   14.6100 C.ar      1 RZ7         0.0499
      5 C2         17.0480    2.4930   15.8100 C.ar      1 RZ7        -0.0295
      6 C3         17.4960    3.6100   15.0650 C.ar      1 RZ7        -0.0401
      7 C4         15.6600    2.2750   16.0410 C.ar      1 RZ7         0.1122
      8 C5         15.2030    4.3820   14.8290 C.ar      1 RZ7        -0.0401
      9 C6         14.7870    3.2730   15.5660 C.ar      1 RZ7        -0.0295
     10 C7         17.0930    5.7180   13.8350 C.2       1 RZ7         0.2051
     11 F2'1       20.5340    7.2610   14.2990 F         1 RZ7        -0.1967
     12 F3'1       18.8460    9.5170   12.1360 F         1 RZ7        -0.1922
     13 F4'1       20.7450    9.8020   15.2580 F         1 RZ7        -0.1919
     14 F5'1       21.1890   11.3280   12.3680 F         1 RZ7        -0.1889
     15 F6'1       22.9570   11.2520   15.5260 F         1 RZ7        -0.1648
     16 F2'2       18.7020    8.2750   14.5630 F         1 RZ7        -0.1967
     17 F3'2       20.8620    8.8050   11.9730 F         1 RZ7        -0.1922
     18 F4'2       19.2380   11.0390   14.0170 F         1 RZ7        -0.1919
     19 F5'2       22.2470    9.5790   13.6240 F         1 RZ7        -0.1889
     20 F6'2       21.2400   12.5940   14.9990 F         1 RZ7        -0.1648
     21 F6'3       23.0240   12.5060   13.7780 F         1 RZ7        -0.1648
     22 C1'        18.9010    6.8430   12.6980 C.3       1 RZ7         0.0999
     23 O1S        13.6240    0.9430   16.7790 O.2       1 RZ7        -0.1499
     24 C2'        19.5290    7.8470   13.6550 C.3       1 RZ7         0.3360
     25 O2S        15.5970    1.0270   18.2470 O.2       1 RZ7        -0.1499
     26 C3'        19.9050    9.1070   12.8930 C.3       1 RZ7         0.3799
     27 N3S        15.6750   -0.3490   16.2170 N.am      1 RZ7        -0.2605
     28 C4'        20.2680   10.1760   14.0010 C.3       1 RZ7         0.3866
     29 C5'        21.5490   10.7620   13.5450 C.3       1 RZ7         0.4087
     30 C6'        22.2020   11.7900   14.5230 C.3       1 RZ7         0.4603
     31 H1         18.9681    4.9660   13.7481 H         1 RZ7         0.1847
     32 H2         17.7724    1.7931   16.2107 H         1 RZ7         0.0649
     33 H3         18.5518    3.7234   14.8472 H         1 RZ7         0.0670
     34 H4         14.4815    5.0877   14.4334 H         1 RZ7         0.0670
     35 H5         13.7302    3.1736   15.7859 H         1 RZ7         0.0649
     36 H6         18.0851    7.3239   12.1385 H         1 RZ7         0.0581
     37 H7         19.6619    6.4757   11.9937 H         1 RZ7         0.0581
     38 H8         15.4427   -1.2554   16.5697 H         1 RZ7         0.1635
     39 H9         16.3002   -0.2593   15.4417 H         1 RZ7         0.1635
@<TRIPOS>BOND
     1    7    1 1  
     2    1   23 2  
     3    1   25 2  
     4    1   27 am 
     5    2   10 am 
     6   22    2 1  
     7   10    3 2  
     8    4    6 ar 
     9    4    8 ar 
    10   10    4 1  
    11    6    5 ar 
    12    5    7 ar 
    13    9    7 ar 
    14    8    9 ar 
    15   24   11 1  
    16   26   12 1  
    17   28   13 1  
    18   29   14 1  
    19   30   15 1  
    20   24   16 1  
    21   26   17 1  
    22   28   18 1  
    23   29   19 1  
    24   30   20 1  
    25   30   21 1  
    26   24   22 1  
    27   26   24 1  
    28   28   26 1  
    29   29   28 1  
    30   29   30 1  
    31    2   31 1  
    32    5   32 1  
    33    6   33 1  
    34    8   34 1  
    35    9   35 1  
    36   22   36 1  
    37   22   37 1  
    38   27   38 1  
    39   27   39 1  
@<TRIPOS>SUBSTRUCTURE
     1 RZ7         1

