### 
### Created by X-TOOL on Mon Sep 10 21:13:10 2018
### 

@<TRIPOS>MOLECULE
3rzb_ligand
   26    27     1     0     0
SMALL
GAST_HUCK


@<TRIPOS>ATOM
      1 C1         94.4780   79.6370  -50.1200 C.2       1 02Z         0.1732
      2 N1         91.7900   82.0990  -51.0290 N.2       1 02Z        -0.2729
      3 S1         92.3540   80.9210  -48.8170 S.3       1 02Z         0.0101
      4 N2         93.4440   81.2580  -52.4820 N.pl3     1 02Z        -0.3326
      5 N3         90.3180   82.7280  -49.2810 N.pl3     1 02Z        -0.2331
      6 C12        93.3190   80.5890  -50.1700 C.2       1 02Z         0.1062
      7 C13        92.8790   81.3100  -51.2750 C.2       1 02Z         0.0841
      8 C14        91.3950   81.9920  -49.7580 C.2       1 02Z         0.2028
      9 C15        89.5730   82.5770  -48.1340 C.ar      1 02Z         0.0697
     10 C16        89.7610   81.4740  -47.0800 C.ar      1 02Z        -0.0373
     11 C17        88.9440   81.4140  -45.9120 C.ar      1 02Z        -0.0711
     12 C18        87.8970   82.4440  -45.7130 C.ar      1 02Z        -0.0731
     13 C19        87.6960   83.5210  -46.7170 C.ar      1 02Z        -0.0711
     14 C20        88.5150   83.5860  -47.9070 C.ar      1 02Z        -0.0373
     15 O21        95.1730   79.4140  -51.1220 O.2       1 02Z        -0.4148
     16 N22        94.7070   79.0410  -48.9410 N.am      1 02Z        -0.3090
     17 H1         94.2640   80.6553  -52.6413 H         1 02Z         0.1739
     18 H2         93.0604   81.8205  -53.2549 H         1 02Z         0.1739
     19 H3         90.0308   83.5131  -49.8826 H         1 02Z         0.2240
     20 H4         90.5311   80.7255  -47.2274 H         1 02Z         0.0539
     21 H5         89.0869   80.6266  -45.1808 H         1 02Z         0.0588
     22 H6         87.2725   82.4114  -44.8275 H         1 02Z         0.0521
     23 H7         86.9262   84.2669  -46.5554 H         1 02Z         0.0588
     24 H8         88.3537   84.3745  -48.6332 H         1 02Z         0.0539
     25 H9         95.4654   78.3962  -48.8456 H         1 02Z         0.1784
     26 H10        94.1194   79.2413  -48.1570 H         1 02Z         0.1784
@<TRIPOS>BOND
     1    6    1 1  
     2    1   15 2  
     3    1   16 am 
     4    2    7 1  
     5    8    2 2  
     6    3    6 1  
     7    3    8 1  
     8    7    4 1  
     9    8    5 1  
    10    5    9 1  
    11    6    7 2  
    12    9   10 ar 
    13    9   14 ar 
    14   10   11 ar 
    15   11   12 ar 
    16   12   13 ar 
    17   13   14 ar 
    18    4   17 1  
    19    4   18 1  
    20    5   19 1  
    21   10   20 1  
    22   11   21 1  
    23   12   22 1  
    24   13   23 1  
    25   14   24 1  
    26   16   25 1  
    27   16   26 1  
@<TRIPOS>SUBSTRUCTURE
     1 02Z         1

