### 
### Created by X-TOOL on Mon Sep 10 21:13:08 2018
### 

@<TRIPOS>MOLECULE
3rzi_ligand
   27    28     1     0     0
SMALL
GAST_HUCK


@<TRIPOS>ATOM
      1 N         -65.3320   93.2790   -7.7920 N.4       1 TRP         0.2336
      2 CA        -65.3910   94.6330   -7.1790 C.3       1 TRP         0.0324
      3 C         -66.4120   94.7010   -6.0470 C.2       1 TRP         0.0858
      4 O         -67.2720   93.8480   -5.8490 O.co2     1 TRP        -0.5642
      5 CB        -65.7350   95.6790   -8.2270 C.3       1 TRP         0.0190
      6 CG        -66.9860   95.3660   -8.9770 C.2       1 TRP        -0.0392
      7 CD1       -67.1360   94.4570   -9.9850 C.2       1 TRP         0.0167
      8 CD2       -68.2690   95.9550   -8.7730 C.ar      1 TRP        -0.0213
      9 NE1       -68.4390   94.4470  -10.4240 N.pl3     1 TRP        -0.2890
     10 CE2       -69.1600   95.3390   -9.6780 C.ar      1 TRP         0.0603
     11 CE3       -68.7620   96.9090   -7.8800 C.ar      1 TRP        -0.0747
     12 CZ2       -70.5140   95.6710   -9.7360 C.ar      1 TRP        -0.0443
     13 CZ3       -70.1060   97.2350   -7.9350 C.ar      1 TRP        -0.0792
     14 CH2       -70.9640   96.6280   -8.8670 C.ar      1 TRP        -0.0768
     15 OXT       -66.4390   95.6830   -5.3330 O.co2     1 TRP        -0.5642
     16 H1        -64.6485   93.2751   -8.5329 H         1 TRP         0.2011
     17 H2        -66.2364   93.0406   -8.1680 H         1 TRP         0.2011
     18 H3        -65.0710   92.6037   -7.0906 H         1 TRP         0.2011
     19 H4        -64.3985   94.8641   -6.7647 H         1 TRP         0.1040
     20 H5        -64.9035   95.7428   -8.9442 H         1 TRP         0.0423
     21 H6        -65.8614   96.6495   -7.7248 H         1 TRP         0.0423
     22 H7        -66.3391   93.8308  -10.3834 H         1 TRP         0.0795
     23 H8        -68.8107   93.8645  -11.1879 H         1 TRP         0.2216
     24 H9        -68.1061   97.3839   -7.1593 H         1 TRP         0.0540
     25 H10       -71.1827   95.1903  -10.4409 H         1 TRP         0.0541
     26 H11       -70.5036   97.9719   -7.2466 H         1 TRP         0.0510
     27 H12       -72.0063   96.9242   -8.8987 H         1 TRP         0.0530
@<TRIPOS>BOND
     1    1    2 1  
     2    2    3 1  
     3    2    5 1  
     4    3    4 ar 
     5    3   15 ar 
     6    5    6 1  
     7    6    7 2  
     8    6    8 1  
     9    7    9 1  
    10    8   10 ar 
    11    8   11 ar 
    12    9   10 1  
    13   10   12 ar 
    14   11   13 ar 
    15   12   14 ar 
    16   13   14 ar 
    17    1   16 1  
    18    1   17 1  
    19    1   18 1  
    20    2   19 1  
    21    5   20 1  
    22    5   21 1  
    23    7   22 1  
    24    9   23 1  
    25   11   24 1  
    26   12   25 1  
    27   13   26 1  
    28   14   27 1  
@<TRIPOS>SUBSTRUCTURE
     1 TRP         1

