### 
### Created by X-TOOL on Mon Sep 10 21:13:11 2018
### 

@<TRIPOS>MOLECULE
3s00_ligand
   30    31     1     0     0
SMALL
GAST_HUCK


@<TRIPOS>ATOM
      1 CL        -81.2810   99.2500  -57.3380 Cl        1 Z60        -0.0500
      2 N1        -78.0420  104.1110  -64.1900 N.2       1 Z60        -0.2772
      3 C2        -78.9680  104.1980  -63.1860 C.2       1 Z60         0.0819
      4 N3        -79.3860  105.4660  -63.0490 N.pl3     1 Z60        -0.3322
      5 C4        -79.3220  103.0690  -62.4950 C.2       1 Z60         0.0895
      6 C5        -80.2710  102.9450  -61.3960 C.2       1 Z60         0.1315
      7 C6        -80.4500  101.6540  -60.6680 C.2       1 Z60         0.0734
      8 O7        -80.9120  103.9510  -61.0510 O.2       1 Z60        -0.4103
      9 S8        -78.4250  101.7790  -63.1500 S.3       1 Z60         0.0060
     10 C9        -77.6550  102.8530  -64.2830 C.2       1 Z60         0.1843
     11 N10       -76.7250  102.4730  -65.1990 N.pl3     1 Z60        -0.2798
     12 C11       -76.3140  101.0900  -65.4150 C.3       1 Z60         0.0347
     13 C12       -74.9710  101.0270  -66.1490 C.3       1 Z60        -0.0345
     14 C13       -74.5370   99.5910  -66.3820 C.3       1 Z60        -0.0634
     15 S14       -80.8510  101.7080  -58.9800 S.3       1 Z60        -0.0164
     16 C15       -80.9000  100.0170  -58.8580 C.2       1 Z60         0.1021
     17 C16       -80.6220   99.3880  -60.0390 C.2       1 Z60        -0.0528
     18 C17       -80.3600  100.3290  -61.0940 C.2       1 Z60        -0.0571
     19 H1        -80.0872  105.7025  -62.3326 H         1 Z60         0.1745
     20 H2        -79.0055  106.2026  -63.6603 H         1 Z60         0.1745
     21 H3        -76.2845  103.2049  -65.7745 H         1 Z60         0.1931
     22 H4        -77.0781  100.5772  -66.0176 H         1 Z60         0.0533
     23 H5        -76.2163  100.5871  -64.4416 H         1 Z60         0.0533
     24 H6        -74.2077  101.5384  -65.5442 H         1 Z60         0.0283
     25 H7        -75.0693  101.5337  -67.1204 H         1 Z60         0.0283
     26 H8        -73.5718   99.5807  -66.9096 H         1 Z60         0.0230
     27 H9        -75.2931   99.0736  -66.9907 H         1 Z60         0.0230
     28 H10       -74.4315   99.0782  -65.4146 H         1 Z60         0.0230
     29 H11       -80.6014   98.3066  -60.1655 H         1 Z60         0.0447
     30 H12       -80.1175  100.0386  -62.1152 H         1 Z60         0.0512
@<TRIPOS>BOND
     1   16    1 1  
     2    3    2 1  
     3   10    2 2  
     4    3    4 1  
     5    5    3 2  
     6    6    5 1  
     7    5    9 1  
     8    7    6 1  
     9    6    8 2  
    10   15    7 1  
    11    7   18 2  
    12    9   10 1  
    13   10   11 1  
    14   11   12 1  
    15   12   13 1  
    16   13   14 1  
    17   15   16 1  
    18   16   17 2  
    19   17   18 1  
    20    4   19 1  
    21    4   20 1  
    22   11   21 1  
    23   12   22 1  
    24   12   23 1  
    25   13   24 1  
    26   13   25 1  
    27   14   26 1  
    28   14   27 1  
    29   14   28 1  
    30   17   29 1  
    31   18   30 1  
@<TRIPOS>SUBSTRUCTURE
     1 Z60         1

