### 
### Created by X-TOOL on Mon Sep 10 21:13:05 2018
### 

@<TRIPOS>MOLECULE
3s0b_ligand
   30    32     1     0     0
SMALL
GAST_HUCK


@<TRIPOS>ATOM
      1 C1         -5.4150   -7.2970   11.5030 C.ar      1 FNA        -0.0719
      2 N1         -8.6620   -6.3100    9.9120 N.pl3     1 FNA        -0.2710
      3 C2         -6.6980   -7.4250   10.9440 C.ar      1 FNA        -0.0391
      4 C3         -4.8190   -5.9860   11.6110 C.ar      1 FNA        -0.0738
      5 C4         -7.3480   -6.2990   10.5170 C.ar      1 FNA         0.0604
      6 C5         -5.4760   -4.9160   11.1980 C.ar      1 FNA        -0.0719
      7 C6         -6.7900   -5.0460   10.6230 C.ar      1 FNA        -0.0391
      8 C7         -9.7590   -8.3120   10.9920 C.ar      1 FNA         0.0112
      9 C8        -10.3750   -9.5280   10.8530 C.ar      1 FNA        -0.0281
     10 C9         -9.5930   -7.4220    9.7910 C.ar      1 FNA         0.0712
     11 C10       -10.8340  -10.0870    9.5270 C.ar      1 FNA        -0.0704
     12 C11        -9.6860   -8.0750    8.4930 C.ar      1 FNA        -0.0413
     13 C12       -10.5910   -9.1880    8.3560 C.ar      1 FNA        -0.0768
     14 C13       -10.2080   -9.9070   13.2080 C.ar      1 FNA        -0.0646
     15 C14       -10.5980  -10.3390   12.0110 C.ar      1 FNA        -0.0594
     16 C15        -9.4110   -7.8520   12.2550 C.ar      1 FNA        -0.0542
     17 C16        -9.6260   -8.6290   13.3500 C.ar      1 FNA        -0.0639
     18 H1         -4.8785   -8.1729   11.8494 H         1 FNA         0.0586
     19 H2         -8.9800   -5.4143    9.5153 H         1 FNA         0.2117
     20 H3         -7.1648   -8.3991   10.8526 H         1 FNA         0.0532
     21 H4         -3.8265   -5.8788   12.0335 H         1 FNA         0.0516
     22 H5         -5.0234   -3.9355   11.2926 H         1 FNA         0.0586
     23 H6         -7.3303   -4.1713   10.2795 H         1 FNA         0.0532
     24 H7        -11.3015  -11.0604    9.4315 H         1 FNA         0.0477
     25 H8         -9.0913   -7.7336    7.6534 H         1 FNA         0.0480
     26 H9        -11.0916   -9.3724    7.4123 H         1 FNA         0.0576
     27 H10       -10.3380  -10.5400   14.0783 H         1 FNA         0.0613
     28 H11       -11.0836  -11.3032   11.9134 H         1 FNA         0.0595
     29 H12        -8.9663   -6.8699   12.3685 H         1 FNA         0.0629
     30 H13        -9.3500   -8.2663   14.3335 H         1 FNA         0.0587
@<TRIPOS>BOND
     1    3    1 ar 
     2    1    4 ar 
     3    2    5 1  
     4   10    2 1  
     5    5    3 ar 
     6    6    4 ar 
     7    5    7 ar 
     8    7    6 ar 
     9    8    9 ar 
    10    8   10 ar 
    11    8   16 ar 
    12    9   11 ar 
    13    9   15 ar 
    14   10   12 ar 
    15   11   13 ar 
    16   12   13 ar 
    17   15   14 ar 
    18   14   17 ar 
    19   16   17 ar 
    20    1   18 1  
    21    2   19 1  
    22    3   20 1  
    23    4   21 1  
    24    6   22 1  
    25    7   23 1  
    26   11   24 1  
    27   12   25 1  
    28   13   26 1  
    29   14   27 1  
    30   15   28 1  
    31   16   29 1  
    32   17   30 1  
@<TRIPOS>SUBSTRUCTURE
     1 FNA         1

