### 
### Created by X-TOOL on Mon Sep 10 21:13:05 2018
### 

@<TRIPOS>MOLECULE
3s0d_ligand
   33    32     1     0     0
SMALL
GAST_HUCK


@<TRIPOS>ATOM
      1 C1          8.4290   10.5450   29.6370 C.2       1 CTV        -0.1293
      2 N1          8.3110   15.0570   33.2940 N.4       1 CTV         0.2185
      3 C2          8.0320   12.4880   28.4760 C.3       1 CTV        -0.0300
      4 C3          8.4860   11.8660   29.5840 C.2       1 CTV        -0.0766
      5 C4          8.6150   12.6790   30.8830 C.3       1 CTV        -0.0183
      6 C5          9.8330   12.7030   31.6070 C.3       1 CTV        -0.0409
      7 C6         10.0100   11.4250   32.3590 C.3       1 CTV        -0.0481
      8 C7          9.9170   11.5230   33.9240 C.3       1 CTV        -0.0389
      9 C8          9.4170   12.6810   34.6790 C.3       1 CTV        -0.0101
     10 C9         10.2830   10.2120   34.8180 C.3       1 CTV        -0.0622
     11 C10         8.9130   13.8440   34.0050 C.3       1 CTV        -0.0351
     12 H1          8.3376    9.9667   28.7188 H         1 CTV         0.0075
     13 H2          8.4734   10.0362   30.5988 H         1 CTV         0.0075
     14 H3          9.0480   15.6928   33.0320 H         1 CTV         0.1994
     15 H4          7.6682   15.5249   33.9136 H         1 CTV         0.1994
     16 H5          7.8202   14.7528   32.4678 H         1 CTV         0.1994
     17 H6          8.1497   13.5755   28.5918 H         1 CTV         0.0424
     18 H7          6.9685   12.2478   28.3304 H         1 CTV         0.0424
     19 H8          8.6077   12.1479   27.6026 H         1 CTV         0.0424
     20 H9          7.8486   12.2936   31.5715 H         1 CTV         0.0460
     21 H10         8.3837   13.7227   30.6239 H         1 CTV         0.0460
     22 H11         9.8176   13.5432   32.3167 H         1 CTV         0.0292
     23 H12        10.6705   12.8309   30.9054 H         1 CTV         0.0292
     24 H13        11.0016   11.0214   32.1063 H         1 CTV         0.0270
     25 H14         9.2320   10.7253   32.0197 H         1 CTV         0.0270
     26 H15        10.9471   11.9057   33.9722 H         1 CTV         0.0300
     27 H16        10.2484   13.0232   35.3128 H         1 CTV         0.0319
     28 H17         8.5997   12.3100   35.3149 H         1 CTV         0.0319
     29 H18        10.6452    9.4087   34.1596 H         1 CTV         0.0232
     30 H19         9.3846    9.8704   35.3529 H         1 CTV         0.0232
     31 H20        11.0665   10.4712   35.5453 H         1 CTV         0.0232
     32 H21         9.4165   14.5004   34.7300 H         1 CTV         0.0813
     33 H22         9.5824   13.6579   33.1522 H         1 CTV         0.0813
@<TRIPOS>BOND
     1    4    1 2  
     2   11    2 1  
     3    4    3 1  
     4    5    4 1  
     5    6    5 1  
     6    7    6 1  
     7    8    7 1  
     8    9    8 1  
     9    8   10 1  
    10    9   11 1  
    11    1   12 1  
    12    1   13 1  
    13    2   14 1  
    14    2   15 1  
    15    2   16 1  
    16    3   17 1  
    17    3   18 1  
    18    3   19 1  
    19    5   20 1  
    20    5   21 1  
    21    6   22 1  
    22    6   23 1  
    23    7   24 1  
    24    7   25 1  
    25    8   26 1  
    26    9   27 1  
    27    9   28 1  
    28   10   29 1  
    29   10   30 1  
    30   10   31 1  
    31   11   32 1  
    32   11   33 1  
@<TRIPOS>SUBSTRUCTURE
     1 CTV         1

