### 
### Created by X-TOOL on Mon Sep 10 21:13:06 2018
### 

@<TRIPOS>MOLECULE
3s0e_ligand
   24    24     1     0     0
SMALL
GAST_HUCK


@<TRIPOS>ATOM
      1 C1          2.6470  -10.6740  -10.6630 C.ar      1 EOL        -0.0375
      2 O1          2.8980  -13.1590   -8.0060 O.3       1 EOL        -0.3411
      3 C2          2.8070  -11.4940  -11.7850 C.ar      1 EOL        -0.0506
      4 O2          2.5130  -10.4990   -8.2410 O.3       1 EOL        -0.3265
      5 C3          2.6910  -11.2420   -9.3920 C.ar      1 EOL         0.1134
      6 C4          3.0330  -12.8590  -11.6300 C.ar      1 EOL        -0.0777
      7 C5          2.8680  -12.6100   -9.2510 C.ar      1 EOL         0.1095
      8 C6          3.0590  -13.4270  -10.3610 C.ar      1 EOL        -0.0476
      9 C7          2.7420  -10.9150  -13.1630 C.3       1 EOL         0.0005
     10 C8          3.6280   -9.7660  -13.4730 C.2       1 EOL        -0.0800
     11 C9          4.8050   -9.6300  -12.8030 C.2       1 EOL        -0.1155
     12 C10         2.3600   -9.1300   -8.3130 C.3       1 EOL         0.0568
     13 H1          2.4904   -9.6079  -10.7815 H         1 EOL         0.0455
     14 H2          3.6136  -12.7784   -7.5104 H         1 EOL         0.2421
     15 H3          3.1895  -13.4822  -12.5030 H         1 EOL         0.0441
     16 H4          3.2257  -14.4911  -10.2383 H         1 EOL         0.0494
     17 H5          1.7062  -10.5855  -13.3319 H         1 EOL         0.0577
     18 H6          2.9903  -11.7207  -13.8695 H         1 EOL         0.0577
     19 H7          3.3393   -9.0380  -14.2297 H         1 EOL         0.0685
     20 H8          5.4628   -8.7904  -13.0227 H         1 EOL         0.0297
     21 H9          5.0889  -10.3608  -12.0472 H         1 EOL         0.0297
     22 H10         2.2318   -8.7216   -7.2997 H         1 EOL         0.0573
     23 H11         1.4737   -8.8915   -8.9193 H         1 EOL         0.0573
     24 H12         3.2525   -8.6852   -8.7773 H         1 EOL         0.0573
@<TRIPOS>BOND
     1    1    3 ar 
     2    5    1 ar 
     3    7    2 1  
     4    3    6 ar 
     5    3    9 1  
     6    5    4 1  
     7    4   12 1  
     8    5    7 ar 
     9    6    8 ar 
    10    7    8 ar 
    11    9   10 1  
    12   10   11 2  
    13    1   13 1  
    14    2   14 1  
    15    6   15 1  
    16    8   16 1  
    17    9   17 1  
    18    9   18 1  
    19   10   19 1  
    20   11   20 1  
    21   11   21 1  
    22   12   22 1  
    23   12   23 1  
    24   12   24 1  
@<TRIPOS>SUBSTRUCTURE
     1 EOL         1

