### 
### Created by X-TOOL on Mon Sep 10 21:13:06 2018
### 

@<TRIPOS>MOLECULE
3s0j_ligand
   35    36     1     0     0
SMALL
GAST_HUCK


@<TRIPOS>ATOM
      1 C1         33.9510   24.1830   30.2140 C.ar      1 Z15         0.0811
      2 O1         32.6260   24.4710   30.3150 O.3       1 Z15        -0.3440
      3 C2         34.4360   23.4810   29.1030 C.ar      1 Z15         0.0093
      4 C3         35.7980   23.1840   29.0210 C.ar      1 Z15        -0.0367
      5 C4         36.6720   23.6060   30.0250 C.ar      1 Z15         0.0842
      6 O4         38.0010   23.3200   29.9390 O.3       1 Z15        -0.3411
      7 C5         36.1890   24.3100   31.1260 C.ar      1 Z15         0.0518
      8 CL5        37.2880   24.8100   32.3690 Cl        1 Z15        -0.0878
      9 C6         34.8260   24.6040   31.2230 C.ar      1 Z15        -0.0343
     10 C1'        33.4670   23.0000   28.0060 C.3       1 Z15         0.1177
     11 C2'        33.8790   23.1900   26.5320 C.3       1 Z15         0.1176
     12 O2'        34.0720   24.5790   26.2470 O.3       1 Z15        -0.3847
     13 C3'        32.7930   22.5930   25.6090 C.3       1 Z15         0.1134
     14 O3'        33.2040   22.6700   24.2420 O.3       1 Z15        -0.3863
     15 C4'        32.4890   21.1310   25.9830 C.3       1 Z15         0.1121
     16 O4'        31.3320   20.6870   25.2750 O.3       1 Z15        -0.3865
     17 C5'        32.2470   20.9720   27.5030 C.3       1 Z15         0.1127
     18 O5'        33.3390   21.5610   28.2470 O.3       1 Z15        -0.3553
     19 C6'        32.1360   19.5020   27.9220 C.3       1 Z15         0.0731
     20 O6'        33.2260   18.7530   27.3670 O.3       1 Z15        -0.3924
     21 H1         32.4671   24.9469   31.1218 H         1 Z15         0.2420
     22 H2         36.1783   22.6236   28.1746 H         1 Z15         0.0455
     23 H3         38.1200   22.3779   29.9127 H         1 Z15         0.2448
     24 H4         34.4477   25.1558   32.0760 H         1 Z15         0.0501
     25 H5         32.5004   23.5044   28.1516 H         1 Z15         0.0764
     26 H6         34.8260   22.6588   26.3556 H         1 Z15         0.0667
     27 H7         33.2623   25.0494   26.4069 H         1 Z15         0.2102
     28 H8         31.8722   23.1821   25.7320 H         1 Z15         0.0648
     29 H9         33.3460   23.5791   24.0059 H         1 Z15         0.2100
     30 H10        33.3487   20.5081   25.6952 H         1 Z15         0.0647
     31 H11        30.5908   21.2337   25.5074 H         1 Z15         0.2100
     32 H12        31.3105   21.4879   27.7617 H         1 Z15         0.0648
     33 H13        31.1851   19.0888   27.5547 H         1 Z15         0.0584
     34 H14        32.1667   19.4321   29.0193 H         1 Z15         0.0584
     35 H15        34.0475   19.1089   27.6847 H         1 Z15         0.2095
@<TRIPOS>BOND
     1    1    2 1  
     2    1    3 ar 
     3    1    9 ar 
     4    3    4 ar 
     5    3   10 1  
     6    4    5 ar 
     7    5    6 1  
     8    5    7 ar 
     9    7    8 1  
    10    7    9 ar 
    11   10   11 1  
    12   10   18 1  
    13   11   12 1  
    14   11   13 1  
    15   13   14 1  
    16   13   15 1  
    17   15   16 1  
    18   15   17 1  
    19   17   18 1  
    20   17   19 1  
    21   19   20 1  
    22    2   21 1  
    23    4   22 1  
    24    6   23 1  
    25    9   24 1  
    26   10   25 1  
    27   11   26 1  
    28   12   27 1  
    29   13   28 1  
    30   14   29 1  
    31   15   30 1  
    32   16   31 1  
    33   17   32 1  
    34   19   33 1  
    35   19   34 1  
    36   20   35 1  
@<TRIPOS>SUBSTRUCTURE
     1 Z15         1

