### 
### Created by X-TOOL on Mon Sep 10 21:13:06 2018
### 

@<TRIPOS>MOLECULE
3s0n_ligand
   46    49     1     0     0
SMALL
GAST_HUCK


@<TRIPOS>ATOM
      1 C1         20.9980   29.0420    8.6840 C.3       1 0BB         0.0566
      2 O1         21.3810   28.7350    5.7600 O.2       1 0BB        -0.3950
      3 C3         20.3910   24.2490    7.1600 C.ar      1 0BB        -0.0530
      4 C4         20.1160   23.7510    8.4080 C.ar      1 0BB        -0.0902
      5 C5         20.0840   24.6270    9.6300 C.ar      1 0BB        -0.0902
      6 C6         20.3260   25.9790    9.5850 C.ar      1 0BB        -0.0531
      7 C7         20.6330   26.5910    8.2440 C.ar      1 0BB         0.0944
      8 C8         20.6650   25.7200    7.0320 C.ar      1 0BB         0.0960
      9 N9         20.9600   26.5060    5.9960 N.am      1 0BB        -0.1980
     10 C10        21.1060   27.7850    6.4750 C.2       1 0BB         0.3137
     11 N11        20.9150   27.8360    7.8340 N.am      1 0BB        -0.2057
     12 C12        22.4340   29.2970    9.1870 C.3       1 0BB        -0.0159
     13 C13        22.9540   30.6950    8.7930 C.3       1 0BB         0.0025
     14 C17        21.1060   26.1270    4.5810 C.3       1 0BB         0.0783
     15 C18        22.5280   25.8230    4.0690 C.2       1 0BB        -0.0200
     16 C19        22.8900   25.2290    2.7440 C.ar      1 0BB        -0.0125
     17 C20        24.3440   25.1100    2.6590 C.ar      1 0BB         0.0286
     18 S21        25.1290   25.6720    4.0520 S.3       1 0BB        -0.0574
     19 C22        23.6920   26.0880    4.8330 C.2       1 0BB        -0.0119
     20 C23        22.1120   24.7850    1.6170 C.ar      1 0BB        -0.0472
     21 C24        22.7640   24.2460    0.4660 C.ar      1 0BB        -0.0698
     22 C25        24.1700   24.1430    0.4130 C.ar      1 0BB        -0.0776
     23 C26        24.9430   24.5790    1.5130 C.ar      1 0BB        -0.0574
     24 C34        20.6040   24.8590    1.5810 C.3       1 0BB        -0.0325
     25 C39        24.3950   30.9880    9.2750 C.2       1 0BB         0.0349
     26 O40        24.9430   32.0000    8.8400 O.co2     1 0BB        -0.5690
     27 O41        24.9540   30.2180   10.0700 O.co2     1 0BB        -0.5690
     28 H1         20.3357   28.9107    9.5524 H         1 0BB         0.0586
     29 H2         20.6670   29.9125    8.0986 H         1 0BB         0.0586
     30 H3         20.4100   23.6001    6.2919 H         1 0BB         0.0460
     31 H4         19.9152   22.6914    8.5171 H         1 0BB         0.0453
     32 H5         19.8603   24.1721   10.5882 H         1 0BB         0.0453
     33 H6         20.2969   26.5840   10.4840 H         1 0BB         0.0460
     34 H7         23.1006   28.5368    8.7537 H         1 0BB         0.0307
     35 H8         22.4448   29.2120   10.2836 H         1 0BB         0.0307
     36 H9         22.2830   31.4496    9.2293 H         1 0BB         0.0431
     37 H10        22.9328   30.7758    7.6962 H         1 0BB         0.0431
     38 H11        20.7076   26.9544    3.9754 H         1 0BB         0.0704
     39 H12        20.4970   25.2259    4.4166 H         1 0BB         0.0704
     40 H13        23.6618   26.5203    5.8321 H         1 0BB         0.0597
     41 H14        22.1708   23.9118   -0.3775 H         1 0BB         0.0486
     42 H15        24.6543   23.7322   -0.4655 H         1 0BB         0.0552
     43 H16        26.0231   24.5000    1.4670 H         1 0BB         0.0507
     44 H17        20.2355   25.2905    2.5234 H         1 0BB         0.0393
     45 H18        20.1902   23.8477    1.4542 H         1 0BB         0.0393
     46 H19        20.2879   25.4927    0.7393 H         1 0BB         0.0393
@<TRIPOS>BOND
     1   11    1 1  
     2    1   12 1  
     3   10    2 2  
     4    3    4 ar 
     5    8    3 ar 
     6    4    5 ar 
     7    6    5 ar 
     8    7    6 ar 
     9    8    7 ar 
    10    7   11 1  
    11    9    8 1  
    12    9   10 am 
    13    9   14 1  
    14   10   11 am 
    15   12   13 1  
    16   13   25 1  
    17   14   15 1  
    18   15   16 1  
    19   15   19 2  
    20   16   17 ar 
    21   16   20 ar 
    22   17   18 1  
    23   17   23 ar 
    24   18   19 1  
    25   20   21 ar 
    26   20   24 1  
    27   21   22 ar 
    28   22   23 ar 
    29   25   26 ar 
    30   25   27 ar 
    31    1   28 1  
    32    1   29 1  
    33    3   30 1  
    34    4   31 1  
    35    5   32 1  
    36    6   33 1  
    37   12   34 1  
    38   12   35 1  
    39   13   36 1  
    40   13   37 1  
    41   14   38 1  
    42   14   39 1  
    43   19   40 1  
    44   21   41 1  
    45   22   42 1  
    46   23   43 1  
    47   24   44 1  
    48   24   45 1  
    49   24   46 1  
@<TRIPOS>SUBSTRUCTURE
     1 0BB         1

