### 
### Created by X-TOOL on Mon Sep 10 21:13:11 2018
### 

@<TRIPOS>MOLECULE
3s0o_ligand
   34    35     1     0     0
SMALL
GAST_HUCK


@<TRIPOS>ATOM
      1 N1         64.7940   82.1740  -86.5730 N.2       1 50Z        -0.3075
      2 C2         65.7490   81.2390  -86.7490 C.2       1 50Z         0.0519
      3 N3         66.2670   81.0190  -87.9780 N.pl3     1 50Z        -0.3521
      4 C4         66.1090   80.5560  -85.5720 C.2       1 50Z         0.0591
      5 C5         67.0340   79.5400  -85.4400 C.3       1 50Z         0.1297
      6 C6         67.3180   78.8690  -84.1220 C.ar      1 50Z         0.0613
      7 C8         67.2980   78.8590  -81.6430 C.ar      1 50Z         0.0025
      8 N8         67.0320   79.5100  -82.8810 N.ar      1 50Z        -0.2950
      9 C9         67.8400   77.5910  -81.6420 C.ar      1 50Z        -0.0414
     10 C10        68.1300   76.9390  -82.8210 C.ar      1 50Z        -0.0491
     11 C11        67.8780   77.5560  -84.0810 C.ar      1 50Z        -0.0292
     12 O12        67.7150   79.0830  -86.5260 O.3       1 50Z        -0.3705
     13 S13        65.2050   81.1460  -84.2320 S.3       1 50Z        -0.0014
     14 C14        64.4020   82.2390  -85.2830 C.2       1 50Z         0.1686
     15 N15        63.4270   83.1240  -84.8800 N.pl3     1 50Z        -0.2888
     16 C16        62.9760   83.1960  -83.4950 C.3       1 50Z         0.0315
     17 C17        62.0210   82.0700  -83.1600 C.3       1 50Z        -0.0351
     18 C18        62.3170   81.1180  -82.0710 C.3       1 50Z        -0.0634
     19 H1         66.9966   80.3038  -88.1089 H         1 50Z         0.1624
     20 H2         65.9321   81.5666  -88.7836 H         1 50Z         0.1624
     21 H3         67.8181   80.2851  -85.2400 H         1 50Z         0.0877
     22 H4         67.0757   79.3574  -80.7064 H         1 50Z         0.0802
     23 H5         68.0414   77.0986  -80.6975 H         1 50Z         0.0649
     24 H6         68.5559   75.9426  -82.7897 H         1 50Z         0.0717
     25 H7         68.1098   77.0323  -85.0014 H         1 50Z         0.0651
     26 H8         68.6479   79.1888  -86.3810 H         1 50Z         0.2156
     27 H9         63.0040   83.7534  -85.5770 H         1 50Z         0.1879
     28 H10        62.4647   84.1568  -83.3356 H         1 50Z         0.0526
     29 H11        63.8506   83.1315  -82.8310 H         1 50Z         0.0526
     30 H12        61.9099   81.4716  -84.0763 H         1 50Z         0.0282
     31 H13        61.0586   82.5406  -82.9104 H         1 50Z         0.0282
     32 H14        61.5013   80.3841  -81.9938 H         1 50Z         0.0230
     33 H15        62.4094   81.6647  -81.1210 H         1 50Z         0.0230
     34 H16        63.2608   80.5958  -82.2869 H         1 50Z         0.0230
@<TRIPOS>BOND
     1    1    2 1  
     2    1   14 2  
     3    2    3 1  
     4    2    4 2  
     5    4    5 1  
     6    4   13 1  
     7    5    6 1  
     8    5   12 1  
     9    6    8 ar 
    10    6   11 ar 
    11    8    7 ar 
    12    7    9 ar 
    13    9   10 ar 
    14   10   11 ar 
    15   13   14 1  
    16   14   15 1  
    17   15   16 1  
    18   16   17 1  
    19   17   18 1  
    20    3   19 1  
    21    3   20 1  
    22    5   21 1  
    23    7   22 1  
    24    9   23 1  
    25   10   24 1  
    26   11   25 1  
    27   12   26 1  
    28   15   27 1  
    29   16   28 1  
    30   16   29 1  
    31   17   30 1  
    32   17   31 1  
    33   18   32 1  
    34   18   33 1  
    35   18   34 1  
@<TRIPOS>SUBSTRUCTURE
     1 50Z         1

