### 
### Created by X-TOOL on Mon Sep 10 21:13:09 2018
### 

@<TRIPOS>MOLECULE
3s1g_ligand
   25    27     1     0     0
SMALL
GAST_HUCK


@<TRIPOS>ATOM
      1 N1         15.9290   16.7050   22.1700 N.2       1 ITE        -0.3057
      2 N3         19.0480   18.0790   16.0260 N.pl3     1 ITE        -0.2782
      3 C4         18.7570   17.7600   19.3990 C.ar      1 ITE         0.0125
      4 C5         18.6570   17.8790   17.2550 C.2       1 ITE         0.2123
      5 C6         18.1380   17.8710   14.9000 C.3       1 ITE         0.0222
      6 C7         17.4930   17.3930   18.9710 C.ar      1 ITE         0.0736
      7 C8         16.5030   17.0230   19.8840 C.ar      1 ITE        -0.0333
      8 C10        16.1760   16.7050   23.4930 C.2       1 ITE         0.1223
      9 C1         16.8410   17.0520   21.2440 C.ar      1 ITE         0.0079
     10 C2         18.1280   17.4320   21.6660 C.ar      1 ITE         0.0478
     11 C3         19.1250   17.8040   20.7470 C.ar      1 ITE        -0.0518
     12 N2         19.4200   18.0390   18.2630 N.2       1 ITE        -0.3153
     13 N4         17.4700   17.4840   17.6130 N.pl3     1 ITE        -0.2298
     14 C9         18.3510   17.4180   23.0470 C.2       1 ITE         0.2305
     15 O1         19.5830   17.7870   23.5410 O.2       1 ITE        -0.3875
     16 N5         17.3960   17.0670   23.9420 N.am      1 ITE        -0.2015
     17 H          20.0138   18.3886   15.8460 H         1 ITE         0.1892
     18 H          18.6623   18.0935   13.9589 H         1 ITE         0.0490
     19 H          17.2694   18.5381   15.0024 H         1 ITE         0.0490
     20 H          17.7979   16.8249   14.8917 H         1 ITE         0.0490
     21 H          15.5140   16.7257   19.5545 H         1 ITE         0.0475
     22 H          15.3968   16.4149   24.1963 H         1 ITE         0.1489
     23 H          20.1167   18.1060   21.0638 H         1 ITE         0.0561
     24 H          16.6729   17.2809   16.9931 H         1 ITE         0.2314
     25 H          17.5927   17.0761   24.9224 H         1 ITE         0.2537
@<TRIPOS>BOND
     1    1    8 2  
     2    9    1 1  
     3    4    2 1  
     4    2    5 1  
     5    6    3 ar 
     6    3   11 ar 
     7    3   12 1  
     8    4   12 2  
     9   13    4 1  
    10    7    6 ar 
    11    6   13 1  
    12    7    9 ar 
    13    8   16 am 
    14    9   10 ar 
    15   10   11 ar 
    16   10   14 1  
    17   14   15 2  
    18   14   16 am 
    19    2   17 1  
    20    5   18 1  
    21    5   19 1  
    22    5   20 1  
    23    7   21 1  
    24    8   22 1  
    25   11   23 1  
    26   13   24 1  
    27   16   25 1  
@<TRIPOS>SUBSTRUCTURE
     1 ITE         1

