### 
### Created by X-TOOL on Mon Sep 10 21:13:11 2018
### 

@<TRIPOS>MOLECULE
3s1h_ligand
   45    47     1     0     0
SMALL
GAST_HUCK


@<TRIPOS>ATOM
      1 C1         96.2020   77.2120  -47.0020 C.ar      1 56Z         0.0836
      2 N1         92.2610   81.9090  -51.3390 N.2       1 56Z        -0.3024
      3 O1         86.2250   80.8410  -45.4210 O.2       1 56Z        -0.1520
      4 S1         92.9860   80.7360  -49.1500 S.3       1 56Z         0.0019
      5 C2         97.2400   77.9420  -47.7770 C.ar      1 56Z        -0.0395
      6 N2         93.7920   81.0630  -52.9230 N.pl3     1 56Z        -0.3519
      7 O2         86.9220   83.1470  -44.3330 O.2       1 56Z        -0.1520
      8 S2         87.4330   81.7170  -44.8730 S.o2      1 56Z         0.0607
      9 C3         96.8790   78.6870  -48.9880 C.ar      1 56Z        -0.0653
     10 N3         90.9060   82.5510  -49.5490 N.pl3     1 56Z        -0.2419
     11 O3         95.6300   79.2820  -51.8560 O.3       1 56Z        -0.3745
     12 C4         94.4470   77.9660  -48.6570 C.ar      1 56Z        -0.0653
     13 N4         88.1570   80.9180  -43.7310 N.am      1 56Z        -0.2622
     14 C5         94.7880   77.2320  -47.4650 C.ar      1 56Z        -0.0395
     15 O6         96.5340   76.5090  -45.8450 O.3       1 56Z        -0.3257
     16 C7         95.6740   75.8150  -45.0650 C.3       1 56Z         0.0579
     17 C10        95.4640   78.7110  -49.4420 C.ar      1 56Z        -0.0199
     18 C11        95.0130   79.4550  -50.6680 C.3       1 56Z         0.1107
     19 C12        93.8380   80.4130  -50.5990 C.2       1 56Z         0.0568
     20 C13        93.3150   81.1280  -51.6600 C.2       1 56Z         0.0538
     21 C14        91.9600   81.8150  -50.0460 C.2       1 56Z         0.1879
     22 C15        90.1390   82.3120  -48.4360 C.ar      1 56Z         0.0662
     23 C16        90.3240   81.1300  -47.5020 C.ar      1 56Z        -0.0365
     24 C17        89.4840   80.9440  -46.3810 C.ar      1 56Z        -0.0451
     25 C18        88.4150   81.9190  -46.1240 C.ar      1 56Z         0.0960
     26 C19        88.2260   83.0740  -47.0150 C.ar      1 56Z        -0.0451
     27 C20        89.0670   83.2720  -48.1470 C.ar      1 56Z        -0.0365
     28 H1         98.2716   77.9235  -47.4445 H         1 56Z         0.0525
     29 H2         94.5975   80.4585  -53.1388 H         1 56Z         0.1623
     30 H3         93.3500   81.6180  -53.6697 H         1 56Z         0.1623
     31 H4         97.6402   79.2172  -49.5488 H         1 56Z         0.0531
     32 H5         90.6605   83.3951  -50.0857 H         1 56Z         0.2193
     33 H6         95.5653   78.3703  -52.1154 H         1 56Z         0.2149
     34 H7         93.4159   77.9747  -48.9913 H         1 56Z         0.0531
     35 H8         88.5300   80.0088  -43.9160 H         1 56Z         0.1633
     36 H9         88.2450   81.3185  -42.8189 H         1 56Z         0.1633
     37 H10        94.0227   76.7001  -46.9114 H         1 56Z         0.0525
     38 H11        96.2225   75.3662  -44.2237 H         1 56Z         0.0575
     39 H12        95.1998   75.0201  -45.6593 H         1 56Z         0.0575
     40 H13        94.9004   76.4943  -44.6776 H         1 56Z         0.0575
     41 H14        95.7050   80.2738  -50.4218 H         1 56Z         0.0829
     42 H15        91.1150   80.4154  -47.6985 H         1 56Z         0.0535
     43 H16        89.6259   80.0957  -45.7212 H         1 56Z         0.0606
     44 H17        87.4347   83.7851  -46.8068 H         1 56Z         0.0606
     45 H18        88.9159   84.1291  -48.7933 H         1 56Z         0.0535
@<TRIPOS>BOND
     1    5    1 ar 
     2   14    1 ar 
     3    1   15 1  
     4    2   20 1  
     5   21    2 2  
     6    8    3 2  
     7    4   19 1  
     8   21    4 1  
     9    9    5 ar 
    10   20    6 1  
    11    8    7 2  
    12    8   13 am 
    13   25    8 1  
    14   17    9 ar 
    15   10   21 1  
    16   22   10 1  
    17   18   11 1  
    18   12   14 ar 
    19   17   12 ar 
    20   15   16 1  
    21   18   17 1  
    22   19   18 1  
    23   19   20 2  
    24   23   22 ar 
    25   22   27 ar 
    26   24   23 ar 
    27   24   25 ar 
    28   25   26 ar 
    29   26   27 ar 
    30    5   28 1  
    31    6   29 1  
    32    6   30 1  
    33    9   31 1  
    34   10   32 1  
    35   11   33 1  
    36   12   34 1  
    37   13   35 1  
    38   13   36 1  
    39   14   37 1  
    40   16   38 1  
    41   16   39 1  
    42   16   40 1  
    43   18   41 1  
    44   23   42 1  
    45   24   43 1  
    46   26   44 1  
    47   27   45 1  
@<TRIPOS>SUBSTRUCTURE
     1 56Z         1

