### 
### Created by X-TOOL on Mon Sep 10 21:13:06 2018
### 

@<TRIPOS>MOLECULE
3s1y_ligand
   55    56     1     0     0
SMALL
GAST_HUCK


@<TRIPOS>ATOM
      1 S1          1.3230    9.9260   17.7920 S.o2      1 S1Y        -0.1199
      2 O2          1.0680   10.3550   16.5220 O.co2     1 S1Y        -0.4676
      3 O3          0.5160   10.8830   18.7680 O.co2     1 S1Y        -0.4676
      4 O4          1.0150    8.6060   17.9310 O.co2     1 S1Y        -0.4676
      5 N5          2.9270    9.9870   18.1360 N.am      1 S1Y        -0.2756
      6 C6          3.3320   11.4040   18.4230 C.3       1 S1Y         0.0616
      7 C7          3.2240   12.2920   17.1610 C.3       1 S1Y        -0.0109
      8 C8          4.3540   13.2730   17.3170 C.3       1 S1Y         0.0365
      9 N9          5.3330   12.5400   18.0720 N.am      1 S1Y        -0.2524
     10 C10         4.8290   11.3170   18.6110 C.3       1 S1Y         0.0878
     11 C11         5.3100   10.1330   17.8110 C.3       1 S1Y         0.0689
     12 O12         5.5140   10.1860   16.6060 O.3       1 S1Y        -0.3927
     13 C13         6.6620   12.7290   18.1000 C.2       1 S1Y         0.2605
     14 O14         7.4170   11.9350   18.5590 O.2       1 S1Y        -0.4006
     15 N15         7.1580   14.0150   17.7630 N.am      1 S1Y        -0.2698
     16 C16         8.6080   14.2400   17.7760 C.3       1 S1Y         0.0474
     17 C17         8.9260   14.4510   16.2960 C.3       1 S1Y        -0.0251
     18 C18        10.4240   14.7030   16.1750 C.3       1 S1Y        -0.0105
     19 C19        10.7790   16.1650   16.3360 C.3       1 S1Y        -0.0316
     20 N20        10.4860   16.8010   17.6240 N.4       1 S1Y         0.2390
     21 C21        12.0100   17.1840   17.8160 C.3       1 S1Y         0.0091
     22 C22        13.0000   16.2310   17.0070 C.3       1 S1Y         0.0057
     23 N23        14.2530   16.0970   17.8280 N.4       1 S1Y         0.2223
     24 C24        10.2290   15.8840   18.7690 C.3       1 S1Y        -0.0296
     25 C25         8.7570   15.4550   18.6750 C.3       1 S1Y         0.0103
     26 H           3.5544    9.1829   18.1523 H         1 S1Y         0.1644
     27 H           2.7291   11.7997   19.2403 H         1 S1Y         0.0534
     28 H           2.2546   12.7839   17.0805 H         1 S1Y         0.0303
     29 H           3.2986   11.7151   16.2392 H         1 S1Y         0.0303
     30 H           4.0440   14.1915   17.8154 H         1 S1Y         0.0520
     31 H           4.7402   13.6211   16.3590 H         1 S1Y         0.0520
     32 H           5.1483   11.1883   19.6452 H         1 S1Y         0.0597
     33 H           4.5598    9.3420   17.9577 H         1 S1Y         0.0580
     34 H           6.5179   14.7698   17.5161 H         1 S1Y         0.1848
     35 H           9.2784   13.4685   18.1547 H         1 S1Y         0.0555
     36 H           8.3658   15.3004   15.9051 H         1 S1Y         0.0289
     37 H           8.6415   13.5718   15.7179 H         1 S1Y         0.0289
     38 H          10.7394   14.3873   15.1805 H         1 S1Y         0.0317
     39 H          10.9244   14.1457   16.9669 H         1 S1Y         0.0317
     40 H          10.1693   16.6950   15.6042 H         1 S1Y         0.0814
     41 H          11.8623   16.2154   16.2261 H         1 S1Y         0.0814
     42 H          12.2460   17.0846   18.8755 H         1 S1Y         0.0868
     43 H          12.1466   18.1986   17.4417 H         1 S1Y         0.0868
     44 H          13.2249   16.6522   16.0272 H         1 S1Y         0.0866
     45 H          12.5437   15.2555   16.8388 H         1 S1Y         0.0866
     46 H          14.9140   15.4917   17.3411 H         1 S1Y         0.1996
     47 H          14.6696   17.0182   17.9631 H         1 S1Y         0.1996
     48 H          14.0222   15.6906   18.7346 H         1 S1Y         0.1996
     49 H          10.4263   16.3843   19.7171 H         1 S1Y         0.0815
     50 H          10.8881   15.0169   18.7256 H         1 S1Y         0.0815
     51 H           8.3998   15.2008   19.6729 H         1 S1Y         0.0339
     52 H           8.1767   16.2768   18.2556 H         1 S1Y         0.0339
     53 H           6.2622    9.8245   18.2672 H         1 S1Y         0.0580
     54 H           6.1802   10.8393   16.4272 H         1 S1Y         0.2095
     55 H           9.8163   17.5528   17.5770 H         1 S1Y         0.2035
@<TRIPOS>BOND
     1    1    2 ar 
     2    1    3 ar 
     3    1    4 ar 
     4    1    5 am 
     5    5    6 1  
     6    6    7 1  
     7    6   10 1  
     8    7    8 1  
     9    8    9 1  
    10    9   10 1  
    11    9   13 am 
    12   10   11 1  
    13   11   12 1  
    14   13   14 2  
    15   13   15 am 
    16   15   16 1  
    17   16   17 1  
    18   16   25 1  
    19   17   18 1  
    20   18   19 1  
    21   19   20 1  
    22   20   21 1  
    23   20   24 1  
    24   21   22 1  
    25   22   23 1  
    26   24   25 1  
    27    5   26 1  
    28    6   27 1  
    29    7   28 1  
    30    7   29 1  
    31    8   30 1  
    32    8   31 1  
    33   10   32 1  
    34   11   33 1  
    35   15   34 1  
    36   16   35 1  
    37   17   36 1  
    38   17   37 1  
    39   18   38 1  
    40   18   39 1  
    41   19   40 1  
    42   19   41 1  
    43   21   42 1  
    44   21   43 1  
    45   22   44 1  
    46   22   45 1  
    47   23   46 1  
    48   23   47 1  
    49   23   48 1  
    50   24   49 1  
    51   24   50 1  
    52   25   51 1  
    53   25   52 1  
    54   11   53 1  
    55   12   54 1  
    56   20   55 1  
@<TRIPOS>SUBSTRUCTURE
     1 S1Y         1

