### 
### Created by X-TOOL on Mon Sep 10 21:13:06 2018
### 

@<TRIPOS>MOLECULE
3s22_ligand
   45    45     1     0     0
SMALL
GAST_HUCK


@<TRIPOS>ATOM
      1 C4         10.4060   15.6940   19.1450 C.3       1 3S2        -0.0108
      2 C5          9.5280   15.6510   17.9170 C.3       1 3S2        -0.0282
      3 C6         10.4900   17.0890   19.7110 C.3       1 3S2        -0.0339
      4 C7          9.0540   14.2360   17.6500 C.3       1 3S2         0.0314
      5 C8          5.7300   10.4940   18.5290 C.3       1 3S2         0.0689
      6 C10         5.2640   11.6650   19.3410 C.3       1 3S2         0.0878
      7 N12        10.8330   17.0330   21.1260 N.4       1 3S2         0.2248
      8 C1         11.6430   18.1970   21.4420 C.3       1 3S2        -0.0449
      9 C2          3.6760   12.6750   17.9000 C.3       1 3S2        -0.0109
     10 C3          4.8790   13.6060   17.9840 C.3       1 3S2         0.0365
     11 C9          3.7830   11.8000   19.1350 C.3       1 3S2         0.0616
     12 C11         7.2210   12.9580   18.6160 C.2       1 3S2         0.2602
     13 N13         7.6510   14.0960   17.9690 N.am      1 3S2        -0.2730
     14 N14         3.2600   10.4360   18.9210 N.am      1 3S2        -0.2756
     15 N15         5.8500   12.8280   18.7230 N.am      1 3S2        -0.2524
     16 O16         1.6370   10.4370   16.8230 O.co2     1 3S2        -0.4676
     17 O17         5.6950   10.4130   17.3120 O.3       1 3S2        -0.3927
     18 O18         7.9910   12.1180   19.0790 O.2       1 3S2        -0.4007
     19 O19         0.8610   11.2740   19.1140 O.co2     1 3S2        -0.4676
     20 O20         1.2720    8.8690   18.6540 O.co2     1 3S2        -0.4676
     21 S21         1.6550   10.2570   18.4340 S.o2      1 3S2        -0.1199
     22 H          11.4092   15.3724   18.8653 H         1 3S2         0.0317
     23 H           9.9758   15.0382   19.9019 H         1 3S2         0.0317
     24 H          10.1032   15.9988   17.0590 H         1 3S2         0.0286
     25 H           8.6599   16.2895   18.0807 H         1 3S2         0.0286
     26 H           9.5246   17.5816   19.5953 H         1 3S2         0.0814
     27 H          11.2596   17.6467   19.1773 H         1 3S2         0.0814
     28 H           9.6266   13.5498   18.2740 H         1 3S2         0.0517
     29 H           9.1985   14.0103   16.5935 H         1 3S2         0.0517
     30 H           5.1446    9.6370   18.8935 H         1 3S2         0.0580
     31 H           5.5200   11.5549   20.3948 H         1 3S2         0.0597
     32 H          11.3524   16.1786   21.3278 H         1 3S2         0.2011
     33 H           9.9851   17.0310   21.6929 H         1 3S2         0.2011
     34 H          12.5484   18.1836   20.8352 H         1 3S2         0.0777
     35 H          11.0746   19.1023   21.2288 H         1 3S2         0.0777
     36 H          11.9116   18.1753   22.4982 H         1 3S2         0.0777
     37 H           3.6788   12.0870   16.9822 H         1 3S2         0.0303
     38 H           2.7357   13.2255   17.8705 H         1 3S2         0.0303
     39 H           4.6436   14.5536   18.4685 H         1 3S2         0.0520
     40 H           5.2437   13.9105   17.0030 H         1 3S2         0.0520
     41 H           3.2198   12.2383   19.9589 H         1 3S2         0.0534
     42 H           6.9883   14.8298   17.7185 H         1 3S2         0.1845
     43 H           3.8556    9.6205   19.0644 H         1 3S2         0.1644
     44 H           6.7876   10.3568   18.7984 H         1 3S2         0.0580
     45 H           6.0472    9.5732   17.0414 H         1 3S2         0.2095
@<TRIPOS>BOND
     1    2    1 1  
     2    1    3 1  
     3    4    2 1  
     4    3    7 1  
     5   13    4 1  
     6    6    5 1  
     7    5   17 1  
     8    6   11 1  
     9   15    6 1  
    10    7    8 1  
    11   10    9 1  
    12    9   11 1  
    13   15   10 1  
    14   11   14 1  
    15   12   13 am 
    16   12   15 am 
    17   12   18 2  
    18   14   21 am 
    19   21   16 ar 
    20   21   19 ar 
    21   21   20 ar 
    22    1   22 1  
    23    1   23 1  
    24    2   24 1  
    25    2   25 1  
    26    3   26 1  
    27    3   27 1  
    28    4   28 1  
    29    4   29 1  
    30    5   30 1  
    31    6   31 1  
    32    7   32 1  
    33    7   33 1  
    34    8   34 1  
    35    8   35 1  
    36    8   36 1  
    37    9   37 1  
    38    9   38 1  
    39   10   39 1  
    40   10   40 1  
    41   11   41 1  
    42   13   42 1  
    43   14   43 1  
    44    5   44 1  
    45   17   45 1  
@<TRIPOS>SUBSTRUCTURE
     1 3S2         1

