### 
### Created by X-TOOL on Mon Sep 10 21:13:08 2018
### 

@<TRIPOS>MOLECULE
3s2a_ligand
   54    58     1     0     0
SMALL
GAST_HUCK


@<TRIPOS>ATOM
      1 N1         26.6260   12.4580   22.4990 N.ar      1 2NQ        -0.3009
      2 N2         19.2280   12.9160   24.3330 N.ar      1 2NQ        -0.3204
      3 C1         24.5420   13.3150   20.9270 C.ar      1 2NQ        -0.0220
      4 C2         25.8260   13.2580   20.3980 C.ar      1 2NQ         0.1064
      5 C3         25.6640   16.2980   19.1630 C.ar      1 2NQ         0.1102
      6 C4         26.8770   16.5550   19.7950 C.ar      1 2NQ        -0.0365
      7 C5         27.0360   17.7390   20.5090 C.ar      1 2NQ        -0.0263
      8 C6         24.7680   18.3890   19.9330 C.ar      1 2NQ        -0.0263
      9 C7         22.6290   11.9500   23.6100 C.ar      1 2NQ        -0.0512
     10 C8         20.4660   12.9560   23.8150 C.ar      1 2NQ         0.0321
     11 C9         22.1740   14.0230   22.4770 C.ar      1 2NQ        -0.0379
     12 C10        19.9610   15.0440   22.6960 C.ar      1 2NQ         0.0754
     13 C11        21.6450   16.7450   21.8210 C.3       1 2NQ         0.0558
     14 C12        21.6350   18.2590   21.5670 C.3       1 2NQ         0.0684
     15 C13        19.1840   16.7680   21.0480 C.3       1 2NQ         0.0558
     16 O1         20.6930   18.5820   20.5320 O.3       1 2NQ        -0.3757
     17 C14        19.3490   18.2920   20.9700 C.3       1 2NQ         0.0684
     18 N3         20.2650   16.1610   21.8700 N.pl3     1 2NQ        -0.2898
     19 C15        20.8750   14.0150   22.9860 C.ar      1 2NQ         0.0332
     20 C16        18.6850   14.9480   23.2570 C.ar      1 2NQ        -0.0167
     21 C17        18.3490   13.8730   24.0780 C.ar      1 2NQ        -0.0105
     22 C18        21.3430   11.9290   24.1300 C.ar      1 2NQ        -0.0448
     23 C19        23.0530   12.9950   22.7930 C.ar      1 2NQ        -0.0139
     24 C20        24.3400   12.9580   22.2650 C.ar      1 2NQ        -0.0111
     25 C21        25.4150   12.5110   23.0290 C.ar      1 2NQ        -0.0030
     26 C22        26.8600   12.8130   21.2180 C.ar      1 2NQ         0.1334
     27 CL1        28.4590   12.7160   20.5630 Cl        1 2NQ        -0.0534
     28 N4         26.1090   13.5810   19.1290 N.am      1 2NQ        -0.1807
     29 S1         25.4860   14.8400   18.2840 S.o2      1 2NQ         0.0886
     30 O2         24.0450   14.5680   17.9700 O.2       1 2NQ        -0.1450
     31 O3         26.2620   15.0030   17.0100 O.2       1 2NQ        -0.1450
     32 C23        25.9790   18.6500   20.5730 C.ar      1 2NQ         0.1325
     33 F1         26.1270   19.7890   21.2680 F         1 2NQ        -0.1834
     34 C24        24.6100   17.2060   19.2170 C.ar      1 2NQ        -0.0365
     35 H          23.7034   13.6336   20.3079 H         1 2NQ         0.0580
     36 H          27.6941   15.8364   19.7314 H         1 2NQ         0.0627
     37 H          27.9777   17.9537   21.0142 H         1 2NQ         0.0604
     38 H          23.9501   19.1070   19.9931 H         1 2NQ         0.0604
     39 H          23.3169   11.1375   23.8441 H         1 2NQ         0.0654
     40 H          22.4997   14.8376   21.8301 H         1 2NQ         0.0674
     41 H          22.1186   16.5695   22.7869 H         1 2NQ         0.0551
     42 H          22.1818   16.2701   20.9998 H         1 2NQ         0.0551
     43 H          22.6304   18.5750   21.2548 H         1 2NQ         0.0580
     44 H          21.3474   18.7728   22.4843 H         1 2NQ         0.0580
     45 H          19.2361   16.3568   20.0399 H         1 2NQ         0.0551
     46 H          18.2226   16.5417   21.5092 H         1 2NQ         0.0551
     47 H          19.1711   18.7373   21.9489 H         1 2NQ         0.0580
     48 H          18.6288   18.7099   20.2666 H         1 2NQ         0.0580
     49 H          17.9451   15.7213   23.0506 H         1 2NQ         0.0544
     50 H          17.3518   13.8194   24.5149 H         1 2NQ         0.0803
     51 H          21.0251   11.1135   24.7796 H         1 2NQ         0.0614
     52 H          25.2587   12.2049   24.0634 H         1 2NQ         0.0668
     53 H          26.7776   12.9852   18.6408 H         1 2NQ         0.2182
     54 H          23.6719   16.9929   18.7045 H         1 2NQ         0.0627
@<TRIPOS>BOND
     1    1   25 ar 
     2   26    1 ar 
     3   10    2 ar 
     4    2   21 ar 
     5    4    3 ar 
     6    3   24 ar 
     7    4   26 ar 
     8   28    4 1  
     9    5    6 ar 
    10   29    5 1  
    11    5   34 ar 
    12    6    7 ar 
    13    7   32 ar 
    14    8   32 ar 
    15   34    8 ar 
    16    9   22 ar 
    17   23    9 ar 
    18   19   10 ar 
    19   22   10 ar 
    20   11   19 ar 
    21   23   11 ar 
    22   12   18 1  
    23   19   12 ar 
    24   12   20 ar 
    25   13   14 1  
    26   18   13 1  
    27   14   16 1  
    28   15   17 1  
    29   18   15 1  
    30   17   16 1  
    31   20   21 ar 
    32   24   23 1  
    33   24   25 ar 
    34   26   27 1  
    35   28   29 am 
    36   29   30 2  
    37   29   31 2  
    38   32   33 1  
    39    3   35 1  
    40    6   36 1  
    41    7   37 1  
    42    8   38 1  
    43    9   39 1  
    44   11   40 1  
    45   13   41 1  
    46   13   42 1  
    47   14   43 1  
    48   14   44 1  
    49   15   45 1  
    50   15   46 1  
    51   17   47 1  
    52   17   48 1  
    53   20   49 1  
    54   21   50 1  
    55   22   51 1  
    56   25   52 1  
    57   28   53 1  
    58   34   54 1  
@<TRIPOS>SUBSTRUCTURE
     1 2NQ         1

