### 
### Created by X-TOOL on Mon Sep 10 21:13:07 2018
### 

@<TRIPOS>MOLECULE
3s2o_ligand
   57    61     1     0     0
SMALL
GAST_HUCK


@<TRIPOS>ATOM
      1 C1        -15.9650   39.7380    9.5740 C.ar      1 EV6         0.0787
      2 C2        -16.2090   40.0720   10.9150 C.ar      1 EV6        -0.0440
      3 C3        -16.6630   39.1020   11.8150 C.ar      1 EV6        -0.0648
      4 C4        -16.8670   37.8060   11.3460 C.ar      1 EV6         0.0207
      5 C5        -16.6400   37.4040   10.0040 C.ar      1 EV6        -0.0554
      6 C6        -16.1910   38.3440    9.0920 C.ar      1 EV6         0.0121
      7 N7        -15.8870   38.3000    7.7840 N.2       1 EV6        -0.3136
      8 C8        -15.5100   39.5700    7.5090 C.2       1 EV6         0.2136
      9 N9        -15.5200   40.4560    8.5380 N.pl3     1 EV6        -0.2109
     10 N10       -15.1350   39.8720    6.2540 N.pl3     1 EV6        -0.2885
     11 CL11      -17.4660   36.5870   12.4810 Cl        1 EV6        -0.0825
     12 C12       -15.2240   41.9280    8.6330 C.3       1 EV6         0.0849
     13 C13       -13.8540   42.3250    8.1130 C.3       1 EV6        -0.0244
     14 C14       -12.7850   41.4930    8.8100 C.3       1 EV6        -0.0625
     15 C15       -16.3430   42.6910    7.9330 C.3       1 EV6         0.0663
     16 C16       -17.6950   42.2010    8.4190 C.2       1 EV6         0.1790
     17 N17       -18.5550   41.5470    7.6070 N.am      1 EV6        -0.2833
     18 O18       -17.9570   42.3890    9.6000 O.2       1 EV6        -0.3970
     19 C19       -19.8600   41.1120    8.1390 C.3       1 EV6         0.0477
     20 C20       -20.8000   40.8490    6.9870 C.3       1 EV6        -0.0172
     21 C21       -22.2000   40.6120    7.5780 C.3       1 EV6        -0.0452
     22 C22       -22.2540   39.3730    8.4690 C.3       1 EV6        -0.0401
     23 C23       -21.8900   38.1650    7.5850 C.3       1 EV6        -0.0473
     24 C24       -20.4580   38.3470    7.0440 C.3       1 EV6        -0.0401
     25 C25       -20.3520   39.6130    6.2140 C.3       1 EV6        -0.0452
     26 C26       -19.8000   39.8340    8.9740 C.3       1 EV6        -0.0172
     27 C27       -19.4470   38.5930    8.1590 C.3       1 EV6        -0.0452
     28 C28       -21.2000   39.5690    9.5710 C.3       1 EV6        -0.0452
     29 H         -16.0438   41.0935   11.2574 H         1 EV6         0.0534
     30 H         -16.8526   39.3541   12.8583 H         1 EV6         0.0519
     31 H         -16.8161   36.3732    9.6966 H         1 EV6         0.0523
     32 H         -15.1388   39.1505    5.5330 H         1 EV6         0.1860
     33 H         -14.8467   40.8227    6.0227 H         1 EV6         0.1860
     34 H         -15.1894   42.1925    9.6898 H         1 EV6         0.0658
     35 H         -13.6810   43.3819    8.3156 H         1 EV6         0.0292
     36 H         -13.8083   42.1484    7.0384 H         1 EV6         0.0292
     37 H         -12.8317   41.6703    9.8845 H         1 EV6         0.0231
     38 H         -12.9590   40.4363    8.6069 H         1 EV6         0.0231
     39 H         -11.8022   41.7792    8.4356 H         1 EV6         0.0231
     40 H         -16.2691   42.5264    6.8580 H         1 EV6         0.0531
     41 H         -16.2462   43.7530    8.1585 H         1 EV6         0.0531
     42 H         -18.3043   41.3563    6.6369 H         1 EV6         0.1854
     43 H         -20.1997   41.9183    8.7891 H         1 EV6         0.0561
     44 H         -20.8065   41.6959    6.3008 H         1 EV6         0.0323
     45 H         -22.8943   40.4630    6.7510 H         1 EV6         0.0271
     46 H         -22.4594   41.4774    8.1879 H         1 EV6         0.0271
     47 H         -23.2337   39.2147    8.9199 H         1 EV6         0.0301
     48 H         -22.5900   38.0966    6.7523 H         1 EV6         0.0271
     49 H         -21.9450   37.2500    8.1748 H         1 EV6         0.0271
     50 H         -20.2537   37.4329    6.4866 H         1 EV6         0.0301
     51 H         -19.3072   39.7484    5.9346 H         1 EV6         0.0271
     52 H         -21.0005   39.5035    5.3448 H         1 EV6         0.0271
     53 H         -19.0269   39.9945    9.7254 H         1 EV6         0.0323
     54 H         -18.4666   38.7450    7.7075 H         1 EV6         0.0271
     55 H         -19.4526   37.7304    8.8253 H         1 EV6         0.0271
     56 H         -21.1535   38.6597   10.1702 H         1 EV6         0.0271
     57 H         -21.4870   40.4303   10.1743 H         1 EV6         0.0271
@<TRIPOS>BOND
     1    1    2 ar 
     2    1    6 ar 
     3    1    9 1  
     4    2    3 ar 
     5    3    4 ar 
     6    4    5 ar 
     7    4   11 1  
     8    5    6 ar 
     9    6    7 1  
    10    7    8 2  
    11    8    9 1  
    12    8   10 1  
    13    9   12 1  
    14   12   13 1  
    15   12   15 1  
    16   13   14 1  
    17   15   16 1  
    18   16   17 am 
    19   16   18 2  
    20   17   19 1  
    21   19   20 1  
    22   19   26 1  
    23   20   21 1  
    24   20   25 1  
    25   21   22 1  
    26   22   23 1  
    27   22   28 1  
    28   23   24 1  
    29   24   25 1  
    30   24   27 1  
    31   26   27 1  
    32   26   28 1  
    33    2   29 1  
    34    3   30 1  
    35    5   31 1  
    36   10   32 1  
    37   10   33 1  
    38   12   34 1  
    39   13   35 1  
    40   13   36 1  
    41   14   37 1  
    42   14   38 1  
    43   14   39 1  
    44   15   40 1  
    45   15   41 1  
    46   17   42 1  
    47   19   43 1  
    48   20   44 1  
    49   21   45 1  
    50   21   46 1  
    51   22   47 1  
    52   23   48 1  
    53   23   49 1  
    54   24   50 1  
    55   25   51 1  
    56   25   52 1  
    57   26   53 1  
    58   27   54 1  
    59   27   55 1  
    60   28   56 1  
    61   28   57 1  
@<TRIPOS>SUBSTRUCTURE
     1 EV6         1

