### 
### Created by X-TOOL on Mon Sep 10 21:13:08 2018
### 

@<TRIPOS>MOLECULE
3s2p_ligand
   46    48     1     0     0
SMALL
GAST_HUCK


@<TRIPOS>ATOM
      1 C1         28.1550   27.2940   25.7680 C.3       1 PMU         0.0533
      2 N1         26.8950   28.0530   25.7380 N.pl3     1 PMU        -0.3089
      3 O1         24.1860   29.9110   30.2760 O.3       1 PMU        -0.3358
      4 C2         24.8130   29.3990   29.1590 C.ar      1 PMU         0.0913
      5 O2         27.2950   27.6400   22.2250 O.3       1 PMU        -0.3872
      6 C3         25.9950   30.0720   28.7280 C.ar      1 PMU        -0.0381
      7 O3         29.8170   27.2000   23.9610 O.3       1 PMU        -0.3872
      8 C4         26.7150   29.6280   27.5810 C.ar      1 PMU        -0.0480
      9 C5         26.2390   28.4970   26.8680 C.ar      1 PMU         0.0340
     10 C6         25.0640   27.8360   27.3110 C.ar      1 PMU        -0.0387
     11 C7         24.3120   28.2590   28.4620 C.ar      1 PMU         0.0203
     12 C8         26.3760   28.3090   24.3870 C.3       1 PMU         0.0533
     13 C9         28.4370   27.0560   24.2720 C.3       1 PMU         0.1019
     14 C10        27.6130   28.1200   23.5210 C.3       1 PMU         0.1019
     15 C11        20.7810   24.5320   28.0600 C.3       1 PMU         0.0041
     16 C12        21.6720   24.0380   26.9030 C.3       1 PMU        -0.0493
     17 C15        23.0500   27.5360   28.9200 C.ar      1 PMU         0.0378
     18 N16        22.3120   27.9370   30.0520 N.ar      1 PMU        -0.2659
     19 C17        21.2040   27.2700   30.4450 C.ar      1 PMU         0.1734
     20 C18        19.3550   24.8320   27.5650 C.3       1 PMU        -0.0493
     21 N18        20.7080   26.1960   29.8210 N.ar      1 PMU        -0.2605
     22 C19        21.3740   25.7630   28.7230 C.ar      1 PMU         0.0292
     23 C20        22.5520   26.4080   28.2400 C.ar      1 PMU        -0.0209
     24 N21        20.5300   27.6530   31.5160 N.pl3     1 PMU        -0.3056
     25 H1         28.0330   26.3422   26.3057 H         1 PMU         0.0535
     26 H2         28.9604   27.8790   26.2361 H         1 PMU         0.0535
     27 H3         23.4162   29.3902   30.4723 H         1 PMU         0.2470
     28 H4         28.0941   27.5374   21.7216 H         1 PMU         0.2100
     29 H5         26.3506   30.9338   29.2812 H         1 PMU         0.0524
     30 H6         29.9490   27.0461   23.0329 H         1 PMU         0.2100
     31 H7         27.6113   30.1455   27.2586 H         1 PMU         0.0526
     32 H8         24.7169   26.9719   26.7561 H         1 PMU         0.0518
     33 H9         25.9814   29.3320   24.2994 H         1 PMU         0.0535
     34 H10        25.5891   27.5883   24.1197 H         1 PMU         0.0535
     35 H11        28.1082   26.0463   23.9851 H         1 PMU         0.0639
     36 H12        28.1705   29.0643   23.4351 H         1 PMU         0.0639
     37 H13        20.7235   23.7311   28.8118 H         1 PMU         0.0505
     38 H14        21.2170   23.1478   26.4442 H         1 PMU         0.0260
     39 H15        22.6686   23.7814   27.2914 H         1 PMU         0.0260
     40 H16        21.7661   24.8322   26.1478 H         1 PMU         0.0260
     41 H17        18.7405   25.1820   28.4075 H         1 PMU         0.0260
     42 H18        18.9129   23.9170   27.1440 H         1 PMU         0.0260
     43 H19        19.3923   25.6115   26.7898 H         1 PMU         0.0260
     44 H20        23.0585   26.0331   27.3580 H         1 PMU         0.0583
     45 H21        20.8436   28.4720   32.0562 H         1 PMU         0.1824
     46 H22        19.6913   27.1324   31.8101 H         1 PMU         0.1824
@<TRIPOS>BOND
     1    2    1 1  
     2    1   13 1  
     3    9    2 1  
     4    2   12 1  
     5    4    3 1  
     6    4    6 ar 
     7   11    4 ar 
     8   14    5 1  
     9    6    8 ar 
    10   13    7 1  
    11    9    8 ar 
    12   10    9 ar 
    13   11   10 ar 
    14   17   11 1  
    15   12   14 1  
    16   14   13 1  
    17   15   16 1  
    18   15   20 1  
    19   22   15 1  
    20   18   17 ar 
    21   17   23 ar 
    22   19   18 ar 
    23   21   19 ar 
    24   19   24 1  
    25   21   22 ar 
    26   22   23 ar 
    27    1   25 1  
    28    1   26 1  
    29    3   27 1  
    30    5   28 1  
    31    6   29 1  
    32    7   30 1  
    33    8   31 1  
    34   10   32 1  
    35   12   33 1  
    36   12   34 1  
    37   13   35 1  
    38   14   36 1  
    39   15   37 1  
    40   16   38 1  
    41   16   39 1  
    42   16   40 1  
    43   20   41 1  
    44   20   42 1  
    45   20   43 1  
    46   23   44 1  
    47   24   45 1  
    48   24   46 1  
@<TRIPOS>SUBSTRUCTURE
     1 PMU         1

