### 
### Created by X-TOOL on Mon Sep 10 21:13:06 2018
### 

@<TRIPOS>MOLECULE
3s2v_ligand
   38    40     1     0     0
SMALL
GAST_HUCK


@<TRIPOS>ATOM
      1 C          42.3890   59.2540    8.0070 C.2       1 3HU         0.0869
      2 N          42.0550   57.1190    6.8080 N.4       1 3HU         0.2344
      3 O          41.2530   59.0160    8.4520 O.co2     1 3HU        -0.5642
      4 CA         42.9780   58.2580    6.9990 C.3       1 3HU         0.0533
      5 CB         43.2260   58.9220    5.6380 C.3       1 3HU         0.1068
      6 OAB        49.2140   54.5490    5.6060 O.co2     1 3HU        -0.5679
      7 OAD        45.6840   55.3510    2.2250 O.2       1 3HU        -0.3874
      8 OAE        45.7480   57.9680    5.9500 O.2       1 3HU        -0.3852
      9 OAF        51.1850   55.4950    5.8470 O.co2     1 3HU        -0.5679
     10 CAH        49.3650   58.9680    3.5080 C.2       1 3HU        -0.0053
     11 CAI        48.2230   58.2580    3.5250 C.2       1 3HU        -0.0630
     12 CAJ        43.0890   56.1230    1.6610 C.2       1 3HU         0.0143
     13 CAK        41.9130   57.7600    3.1870 C.2       1 3HU        -0.0002
     14 CAL        47.1520   56.1000    4.3000 C.3       1 3HU         0.0846
     15 SAN        41.6040   56.8810    1.7860 S.3       1 3HU        -0.0606
     16 SAO        50.5260   58.0440    4.3270 S.3       1 3HU        -0.0441
     17 CAP        50.0100   55.4980    5.4290 C.2       1 3HU         0.0574
     18 CAR        48.2940   57.0670    4.1570 C.2       1 3HU        -0.0186
     19 CAS        49.5520   56.7730    4.6840 C.2       1 3HU         0.0573
     20 CAT        45.1180   56.1440    2.9750 C.2       1 3HU         0.2211
     21 CAU        45.1640   57.5290    4.9580 C.2       1 3HU         0.3177
     22 CAV        43.8180   56.5420    2.6980 C.2       1 3HU         0.0708
     23 CAW        43.1630   57.4660    3.5650 C.2       1 3HU         0.0674
     24 NAY        45.7970   56.6320    4.0790 N.am      1 3HU        -0.1603
     25 NAZ        43.8560   57.9590    4.6880 N.am      1 3HU        -0.2072
     26 OXT        43.1330   60.1830    8.3970 O.co2     1 3HU        -0.5642
     27 H1         42.4522   56.4723    6.1446 H         1 3HU         0.2011
     28 H2         41.1715   57.4571    6.4599 H         1 3HU         0.2011
     29 H3         41.9120   56.6509    7.6892 H         1 3HU         0.2011
     30 H4         43.9348   57.8846    7.3929 H         1 3HU         0.1049
     31 H5         43.8946   59.7849    5.7737 H         1 3HU         0.0652
     32 H6         42.2664   59.2634    5.2226 H         1 3HU         0.0652
     33 H7         49.5148   59.9472    3.0555 H         1 3HU         0.0770
     34 H8         47.3057   58.6183    3.0617 H         1 3HU         0.0414
     35 H9         43.4005   55.4245    0.8858 H         1 3HU         0.0838
     36 H10        41.2265   58.4391    3.6906 H         1 3HU         0.0415
     37 H11        47.1868   55.6934    5.3215 H         1 3HU         0.0709
     38 H12        47.3120   55.2873    3.5762 H         1 3HU         0.0709
@<TRIPOS>BOND
     1    1    3 ar 
     2    4    1 1  
     3    1   26 ar 
     4    4    2 1  
     5    5    4 1  
     6   25    5 1  
     7   17    6 ar 
     8   20    7 2  
     9   21    8 2  
    10   17    9 ar 
    11   11   10 2  
    12   16   10 1  
    13   18   11 1  
    14   12   15 1  
    15   22   12 2  
    16   15   13 1  
    17   13   23 2  
    18   14   18 1  
    19   24   14 1  
    20   19   16 1  
    21   19   17 1  
    22   18   19 2  
    23   20   22 1  
    24   24   20 am 
    25   21   24 am 
    26   21   25 am 
    27   22   23 1  
    28   23   25 1  
    29    2   27 1  
    30    2   28 1  
    31    2   29 1  
    32    4   30 1  
    33    5   31 1  
    34    5   32 1  
    35   10   33 1  
    36   11   34 1  
    37   12   35 1  
    38   13   36 1  
    39   14   37 1  
    40   14   38 1  
@<TRIPOS>SUBSTRUCTURE
     1 3HU         1

