### 
### Created by X-TOOL on Mon Sep 10 21:13:11 2018
### 

@<TRIPOS>MOLECULE
3s3i_ligand
   50    53     1     0     0
SMALL
GAST_HUCK


@<TRIPOS>ATOM
      1 CAA         6.9830   29.5440   31.0730 C.ar      1 CQ0        -0.0484
      2 CAB         5.7790   30.1950   31.3990 C.ar      1 CQ0        -0.0247
      3 CAC         4.6760   30.0220   30.5650 C.ar      1 CQ0         0.0064
      4 CAD         4.7900   29.1620   29.4490 C.ar      1 CQ0        -0.0327
      5 CAE         5.9750   28.5320   29.0960 C.ar      1 CQ0         0.0487
      6 CAF         7.0960   28.7560   29.9230 C.ar      1 CQ0        -0.0438
      7 CAG         3.3750   30.5370   30.7200 C.2       1 CQ0         0.0076
      8 CAH         2.9530   31.6830   30.0050 C.2       1 CQ0         0.0220
      9 CAI         1.6500   32.1350   30.1510 C.2       1 CQ0         0.2014
     10 NAJ         0.7880   31.4550   31.0080 N.pl3     1 CQ0        -0.1590
     11 CAK         1.1850   30.2370   31.7010 C.2       1 CQ0         0.1085
     12 CAL         2.4980   29.8150   31.5450 C.2       1 CQ0         0.0061
     13 NAM         0.9610   33.1870   29.6460 N.2       1 CQ0        -0.1940
     14 NAN        -0.2490   33.1940   30.0380 N.2       1 CQ0        -0.1998
     15 CAO        -0.4660   32.1710   30.9040 C.2       1 CQ0         0.1300
     16 CAP        -1.8340   31.7700   31.5840 C.3       1 CQ0        -0.0333
     17 CAQ         5.6810   31.0640   32.6390 C.3       1 CQ0        -0.0248
     18 CAR         5.9630   27.6530   27.8240 C.2       1 CQ0         0.2016
     19 NAS         6.8520   26.6460   27.7280 N.am      1 CQ0        -0.2839
     20 CAT         6.9360   25.7480   26.5820 C.3       1 CQ0         0.0416
     21 CAU         7.1770   26.4590   25.2880 C.3       1 CQ0        -0.0279
     22 CAV         8.3000   25.6460   25.9180 C.3       1 CQ0        -0.0279
     23 OAW         5.1540   27.8980   26.9440 O.2       1 CQ0        -0.3875
     24 CAX        -2.9280   32.7050   31.1570 C.3       1 CQ0        -0.1008
     25 CAY        -1.7000   31.7690   33.1000 C.3       1 CQ0        -0.1008
     26 CAZ        -2.2800   30.3590   31.0450 C.3       1 CQ0        -0.1008
     27 H1          7.8406   29.6555   31.7265 H         1 CQ0         0.0582
     28 H2          3.9104   28.9863   28.8403 H         1 CQ0         0.0702
     29 H3          8.0517   28.3142   29.6652 H         1 CQ0         0.0690
     30 H4          3.6451   32.2052   29.3461 H         1 CQ0         0.0715
     31 H5          0.4802   29.6800   32.3166 H         1 CQ0         0.1383
     32 H6          2.8482   28.9233   32.0629 H         1 CQ0         0.0656
     33 H7          6.6506   31.0723   33.1585 H         1 CQ0         0.0419
     34 H8          4.9090   30.6596   33.3101 H         1 CQ0         0.0419
     35 H9          5.4125   32.0901   32.3474 H         1 CQ0         0.0419
     36 H10         7.4903   26.5062   28.4850 H         1 CQ0         0.1846
     37 H11         6.2637   24.8820   26.6717 H         1 CQ0         0.0555
     38 H12         7.2389   27.5571   25.2685 H         1 CQ0         0.0288
     39 H13         6.6915   26.1027   24.3675 H         1 CQ0         0.0288
     40 H14         8.6223   24.6997   25.4590 H         1 CQ0         0.0288
     41 H15         9.1697   26.1541   26.3601 H         1 CQ0         0.0288
     42 H16        -3.8714   32.4104   31.6399 H         1 CQ0         0.0069
     43 H17        -3.0451   32.6577   30.0643 H         1 CQ0         0.0069
     44 H18        -2.6693   33.7321   31.4539 H         1 CQ0         0.0069
     45 H19        -0.8954   31.0800   33.3965 H         1 CQ0         0.0069
     46 H20        -2.6480   31.4416   33.5517 H         1 CQ0         0.0069
     47 H21        -1.4596   32.7846   33.4475 H         1 CQ0         0.0069
     48 H22        -2.3667   30.3958   29.9490 H         1 CQ0         0.0069
     49 H23        -3.2537   30.0909   31.4810 H         1 CQ0         0.0069
     50 H24        -1.5312   29.6047   31.3284 H         1 CQ0         0.0069
@<TRIPOS>BOND
     1    1    2 ar 
     2    1    6 ar 
     3    2    3 ar 
     4    2   17 1  
     5    3    4 ar 
     6    3    7 1  
     7    4    5 ar 
     8    5    6 ar 
     9    5   18 1  
    10    7    8 2  
    11    7   12 1  
    12    8    9 1  
    13    9   10 1  
    14    9   13 2  
    15   10   11 1  
    16   10   15 1  
    17   11   12 2  
    18   13   14 1  
    19   14   15 2  
    20   15   16 1  
    21   16   24 1  
    22   16   25 1  
    23   16   26 1  
    24   18   19 am 
    25   18   23 2  
    26   19   20 1  
    27   20   21 1  
    28   20   22 1  
    29   21   22 1  
    30    1   27 1  
    31    4   28 1  
    32    6   29 1  
    33    8   30 1  
    34   11   31 1  
    35   12   32 1  
    36   17   33 1  
    37   17   34 1  
    38   17   35 1  
    39   19   36 1  
    40   20   37 1  
    41   21   38 1  
    42   21   39 1  
    43   22   40 1  
    44   22   41 1  
    45   24   42 1  
    46   24   43 1  
    47   24   44 1  
    48   25   45 1  
    49   25   46 1  
    50   25   47 1  
    51   26   48 1  
    52   26   49 1  
    53   26   50 1  
@<TRIPOS>SUBSTRUCTURE
     1 CQ0         1

