### 
### Created by X-TOOL on Mon Sep 10 21:13:08 2018
### 

@<TRIPOS>MOLECULE
3s3k_ligand
   19    19     1     0     0
SMALL
GAST_HUCK


@<TRIPOS>ATOM
      1 S1        -16.6410   26.5870   -3.0160 S.o2      1 CSN         0.0087
      2 O4        -17.8470   26.3510   -2.2020 O.3       1 CSN        -0.0336
      3 O3        -16.4390   25.4710   -4.0390 O.co2     1 CSN        -0.4490
      4 O2        -15.4350   26.6120   -2.0970 O.co2     1 CSN        -0.4490
      5 O1        -16.7860   27.9340   -3.7070 O.co2     1 CSN        -0.4490
      6 O7        -19.6490   25.3920   -3.9990 O.3       1 CSN        -0.1808
      7 O6        -16.3410   22.1620    0.5800 O.2       1 CSN        -0.4541
      8 O5        -17.6500   20.3880   -0.4560 O.2       1 CSN        -0.4541
      9 C6        -17.4280   24.1460   -1.1330 C.ar      1 CSN         0.1680
     10 N1        -17.2910   21.7780   -0.4070 N.2       1 CSN        -0.1414
     11 C3        -19.3840   23.1650   -3.1110 C.ar      1 CSN         0.1386
     12 C1        -18.1510   25.0180   -2.1650 C.ar      1 CSN         0.4067
     13 C4        -18.7810   22.2720   -2.2140 C.ar      1 CSN         0.0958
     14 C2        -19.0690   24.5310   -3.1010 C.ar      1 CSN         0.3743
     15 C5        -17.8380   22.6760   -1.2530 C.ar      1 CSN         0.2115
     16 H         -19.3191   26.2807   -3.8474 H         1 CSN         0.3517
     17 H         -16.7113   24.5251   -0.4045 H         1 CSN         0.1054
     18 H         -20.1120   22.7898   -3.8303 H         1 CSN         0.0996
     19 H         -19.0554   21.2183   -2.2640 H         1 CSN         0.1507
@<TRIPOS>BOND
     1    2    1 1  
     2    1    3 ar 
     3    1    4 ar 
     4    1    5 ar 
     5   12    2 1  
     6   14    6 1  
     7   10    7 2  
     8   10    8 2  
     9   12    9 ar 
    10    9   15 ar 
    11   15   10 1  
    12   11   13 ar 
    13   14   11 ar 
    14   12   14 ar 
    15   13   15 ar 
    16    6   16 1  
    17    9   17 1  
    18   11   18 1  
    19   13   19 1  
@<TRIPOS>SUBSTRUCTURE
     1 CSN         1

