### 
### Created by X-TOOL on Mon Sep 10 21:13:07 2018
### 

@<TRIPOS>MOLECULE
3s3m_ligand
   49    52     1     0     0
SMALL
GAST_HUCK


@<TRIPOS>ATOM
      1 CAA       -36.2970   25.8820  -19.4050 C.3       1 DLU        -0.0417
      2 OAB       -38.0710   34.0460  -22.7880 O.2       1 DLU        -0.4059
      3 OAC       -36.4440   29.3970  -17.4480 O.2       1 DLU        -0.3880
      4 OAD       -37.0250   34.2060  -18.8970 O.2       1 DLU        -0.4306
      5 OAE       -36.5870   31.9920  -17.3810 O.3       1 DLU        -0.3306
      6 FAF       -42.5300   39.3240  -20.9210 F         1 DLU        -0.1903
      7 FAG       -38.4720   37.6160  -19.4090 F         1 DLU        -0.1900
      8 CAH       -41.1360   38.1950  -22.5070 C.ar      1 DLU        -0.0389
      9 CAI       -39.9290   37.5220  -22.7650 C.ar      1 DLU        -0.0617
     10 CAJ       -40.5150   38.4550  -20.1720 C.ar      1 DLU        -0.0014
     11 CAK       -37.4540   31.7980  -21.4200 C.2       1 DLU         0.0749
     12 CAL       -39.3220   26.7420  -20.0760 C.3       1 DLU         0.0526
     13 CAM       -38.6640   26.4310  -18.7080 C.3       1 DLU        -0.0063
     14 CAN       -37.7550   36.5760  -22.0470 C.3       1 DLU         0.0619
     15 CAO       -37.2920   29.3670  -21.5130 C.3       1 DLU         0.1048
     16 NAP       -37.4770   35.4600  -21.1520 N.am      1 DLU        -0.2824
     17 OAQ       -39.0750   28.0700  -20.6060 O.3       1 DLU        -0.3515
     18 CAR       -37.6420   34.2370  -21.6590 C.2       1 DLU         0.1853
     19 CAS       -36.7650   29.4270  -18.6460 C.2       1 DLU         0.2327
     20 CAT       -41.4050   38.6520  -21.2100 C.ar      1 DLU         0.1231
     21 CAU       -39.3340   37.7890  -20.4310 C.ar      1 DLU         0.1335
     22 CAV       -39.0350   37.2990  -21.7210 C.ar      1 DLU         0.0086
     23 CAW       -36.8710   31.9030  -18.7040 C.2       1 DLU         0.1710
     24 CAX       -37.3830   33.0190  -20.7920 C.2       1 DLU         0.1043
     25 CAY       -36.9290   30.6470  -19.3340 C.2       1 DLU         0.1899
     26 CAZ       -37.0850   33.0910  -19.4330 C.2       1 DLU         0.1436
     27 CBA       -37.1930   26.8990  -18.6710 C.3       1 DLU         0.0460
     28 CBB       -37.6350   28.1810  -20.7140 C.3       1 DLU         0.1718
     29 NBC       -37.1670   28.2170  -19.3090 N.am      1 DLU        -0.2404
     30 NBD       -37.2340   30.6170  -20.7180 N.pl3     1 DLU        -0.2304
     31 H         -36.3771   24.9106  -18.9171 H         1 DLU         0.0252
     32 H         -36.6207   25.7968  -20.4423 H         1 DLU         0.0252
     33 H         -35.2619   26.2220  -19.3728 H         1 DLU         0.0252
     34 H         -35.7219   31.6107  -17.2142 H         1 DLU         0.2467
     35 H         -41.8560   38.3598  -23.3086 H         1 DLU         0.0552
     36 H         -39.6952   37.1781  -23.7726 H         1 DLU         0.0537
     37 H         -40.7406   38.8179  -19.1693 H         1 DLU         0.0572
     38 H         -37.6862   31.7545  -22.4841 H         1 DLU         0.1288
     39 H         -40.3988   26.6654  -19.9250 H         1 DLU         0.0561
     40 H         -38.8936   26.0398  -20.7912 H         1 DLU         0.0561
     41 H         -38.6883   25.3529  -18.5493 H         1 DLU         0.0310
     42 H         -39.2152   26.9600  -17.9305 H         1 DLU         0.0310
     43 H         -37.8529   36.1726  -23.0549 H         1 DLU         0.0665
     44 H         -36.9385   37.2908  -21.9445 H         1 DLU         0.0665
     45 H         -38.0707   29.4923  -22.2653 H         1 DLU         0.0656
     46 H         -36.3017   29.2017  -21.9374 H         1 DLU         0.0656
     47 H         -37.1726   35.6061  -20.1895 H         1 DLU         0.1853
     48 H         -36.8085   26.9674  -17.6534 H         1 DLU         0.0556
     49 H         -37.1491   27.3577  -21.2377 H         1 DLU         0.0897
@<TRIPOS>BOND
     1   27    1 1  
     2   18    2 2  
     3   19    3 2  
     4   26    4 2  
     5   23    5 1  
     6   20    6 1  
     7   21    7 1  
     8    9    8 ar 
     9    8   20 ar 
    10   22    9 ar 
    11   10   20 ar 
    12   21   10 ar 
    13   24   11 2  
    14   11   30 1  
    15   12   13 1  
    16   17   12 1  
    17   13   27 1  
    18   16   14 1  
    19   14   22 1  
    20   15   28 1  
    21   30   15 1  
    22   18   16 am 
    23   28   17 1  
    24   24   18 1  
    25   25   19 1  
    26   19   29 am 
    27   22   21 ar 
    28   23   25 2  
    29   26   23 1  
    30   24   26 1  
    31   25   30 1  
    32   27   29 1  
    33   28   29 1  
    34    1   31 1  
    35    1   32 1  
    36    1   33 1  
    37    5   34 1  
    38    8   35 1  
    39    9   36 1  
    40   10   37 1  
    41   11   38 1  
    42   12   39 1  
    43   12   40 1  
    44   13   41 1  
    45   13   42 1  
    46   14   43 1  
    47   14   44 1  
    48   15   45 1  
    49   15   46 1  
    50   16   47 1  
    51   27   48 1  
    52   28   49 1  
@<TRIPOS>SUBSTRUCTURE
     1 DLU         1

