### 
### Created by X-TOOL on Mon Sep 10 21:13:07 2018
### 

@<TRIPOS>MOLECULE
3s3n_ligand
   49    52     1     0     0
SMALL
GAST_HUCK


@<TRIPOS>ATOM
      1 CAA       -36.0510   25.5370  -19.4090 C.3       1 DLU        -0.0417
      2 OAB       -38.3370   33.7350  -22.8200 O.2       1 DLU        -0.4059
      3 OAC       -36.1760   29.0600  -17.6050 O.2       1 DLU        -0.3880
      4 OAD       -37.0580   33.8630  -18.9880 O.2       1 DLU        -0.4306
      5 OAE       -36.4790   31.6820  -17.5050 O.3       1 DLU        -0.3306
      6 FAF       -42.5990   38.9160  -20.9320 F         1 DLU        -0.1903
      7 FAG       -38.3960   37.5400  -19.5030 F         1 DLU        -0.1900
      8 CAH       -41.2500   37.6480  -22.4230 C.ar      1 DLU        -0.0389
      9 CAI       -40.0450   36.9880  -22.6900 C.ar      1 DLU        -0.0617
     10 CAJ       -40.5100   38.2230  -20.1670 C.ar      1 DLU        -0.0014
     11 CAK       -37.5950   31.4450  -21.4740 C.2       1 DLU         0.0749
     12 CAL       -39.3790   26.7440  -19.6160 C.3       1 DLU         0.0526
     13 CAM       -38.3730   25.9900  -18.7070 C.3       1 DLU        -0.0063
     14 CAN       -37.8220   36.2420  -22.0100 C.3       1 DLU         0.0619
     15 CAO       -37.3830   29.0400  -21.5580 C.3       1 DLU         0.1048
     16 NAP       -37.5780   35.0890  -21.1860 N.am      1 DLU        -0.2824
     17 OAQ       -39.0050   27.9460  -20.4270 O.3       1 DLU        -0.3515
     18 CAR       -37.8530   33.8900  -21.7000 C.2       1 DLU         0.1853
     19 CAS       -36.6410   29.0870  -18.7500 C.2       1 DLU         0.2327
     20 CAT       -41.4620   38.2540  -21.1730 C.ar      1 DLU         0.1231
     21 CAU       -39.3300   37.5730  -20.4480 C.ar      1 DLU         0.1335
     22 CAV       -39.0910   36.9360  -21.6830 C.ar      1 DLU         0.0086
     23 CAW       -36.8270   31.5700  -18.8150 C.2       1 DLU         0.1710
     24 CAX       -37.5260   32.6690  -20.8590 C.2       1 DLU         0.1043
     25 CAY       -36.8930   30.3090  -19.4300 C.2       1 DLU         0.1899
     26 CAZ       -37.1310   32.7480  -19.5290 C.2       1 DLU         0.1436
     27 CBA       -36.9540   26.5600  -18.7150 C.3       1 DLU         0.0460
     28 CBB       -37.6410   27.8550  -20.7230 C.3       1 DLU         0.1718
     29 NBC       -37.0060   27.8620  -19.3860 N.am      1 DLU        -0.2404
     30 NBD       -37.2890   30.2800  -20.7850 N.pl3     1 DLU        -0.2304
     31 H         -36.0810   24.5960  -18.8596 H         1 DLU         0.0252
     32 H         -36.4030   25.3757  -20.4279 H         1 DLU         0.0252
     33 H         -35.0283   25.9134  -19.4319 H         1 DLU         0.0252
     34 H         -35.5996   31.3192  -17.3766 H         1 DLU         0.2467
     35 H         -42.0263   37.6921  -23.1869 H         1 DLU         0.0552
     36 H         -39.8609   36.5280  -23.6609 H         1 DLU         0.0537
     37 H         -40.6872   38.6913  -19.1988 H         1 DLU         0.0572
     38 H         -37.8949   31.3865  -22.5203 H         1 DLU         0.1288
     39 H         -40.1053   27.1402  -18.9063 H         1 DLU         0.0561
     40 H         -39.6318   26.0026  -20.3740 H         1 DLU         0.0561
     41 H         -38.3073   24.9695  -19.0843 H         1 DLU         0.0310
     42 H         -38.7433   26.0745  -17.6853 H         1 DLU         0.0310
     43 H         -37.8887   35.9013  -23.0432 H         1 DLU         0.0665
     44 H         -37.0075   36.9465  -21.8417 H         1 DLU         0.0665
     45 H         -38.2182   29.1446  -22.2505 H         1 DLU         0.0656
     46 H         -36.4268   28.8895  -22.0591 H         1 DLU         0.0656
     47 H         -37.2072   35.1852  -20.2407 H         1 DLU         0.1853
     48 H         -36.5434   26.7278  -17.7193 H         1 DLU         0.0556
     49 H         -37.2723   26.9857  -21.2675 H         1 DLU         0.0897
@<TRIPOS>BOND
     1   27    1 1  
     2   18    2 2  
     3   19    3 2  
     4   26    4 2  
     5   23    5 1  
     6   20    6 1  
     7   21    7 1  
     8    9    8 ar 
     9    8   20 ar 
    10   22    9 ar 
    11   10   20 ar 
    12   21   10 ar 
    13   24   11 2  
    14   11   30 1  
    15   12   13 1  
    16   17   12 1  
    17   13   27 1  
    18   16   14 1  
    19   14   22 1  
    20   15   28 1  
    21   30   15 1  
    22   18   16 am 
    23   28   17 1  
    24   24   18 1  
    25   25   19 1  
    26   19   29 am 
    27   22   21 ar 
    28   23   25 2  
    29   26   23 1  
    30   24   26 1  
    31   25   30 1  
    32   27   29 1  
    33   28   29 1  
    34    1   31 1  
    35    1   32 1  
    36    1   33 1  
    37    5   34 1  
    38    8   35 1  
    39    9   36 1  
    40   10   37 1  
    41   11   38 1  
    42   12   39 1  
    43   12   40 1  
    44   13   41 1  
    45   13   42 1  
    46   14   43 1  
    47   14   44 1  
    48   15   45 1  
    49   15   46 1  
    50   16   47 1  
    51   27   48 1  
    52   28   49 1  
@<TRIPOS>SUBSTRUCTURE
     1 DLU         1

