### 
### Created by X-TOOL on Mon Sep 10 21:13:07 2018
### 

@<TRIPOS>MOLECULE
3s3o_ligand
   49    52     1     0     0
SMALL
GAST_HUCK


@<TRIPOS>ATOM
      1 CAA       -36.0990   25.7270  -19.3230 C.3       1 DLU        -0.0417
      2 OAB       -37.9060   33.8760  -22.7700 O.2       1 DLU        -0.4059
      3 OAC       -36.5400   29.1010  -17.4580 O.2       1 DLU        -0.3880
      4 OAD       -36.9460   33.9400  -18.7620 O.2       1 DLU        -0.4306
      5 OAE       -36.6720   31.7120  -17.3410 O.3       1 DLU        -0.3306
      6 FAF       -42.3660   39.1910  -20.5990 F         1 DLU        -0.1903
      7 FAG       -38.2040   37.5450  -19.3260 F         1 DLU        -0.1900
      8 CAH       -41.0990   38.0170  -22.2070 C.ar      1 DLU        -0.0389
      9 CAI       -39.9210   37.3330  -22.5290 C.ar      1 DLU        -0.0617
     10 CAJ       -40.3030   38.3790  -19.9200 C.ar      1 DLU        -0.0014
     11 CAK       -37.4590   31.6330  -21.4140 C.2       1 DLU         0.0749
     12 CAL       -39.5130   27.0120  -19.4770 C.3       1 DLU         0.0526
     13 CAM       -38.5090   25.9630  -19.0290 C.3       1 DLU        -0.0063
     14 CAN       -37.7040   36.4330  -21.9680 C.3       1 DLU         0.0619
     15 CAO       -37.4100   29.2060  -21.5460 C.3       1 DLU         0.1048
     16 NAP       -37.4360   35.3050  -21.0750 N.am      1 DLU        -0.2824
     17 OAQ       -39.0950   27.8600  -20.6220 O.3       1 DLU        -0.3515
     18 CAR       -37.5500   34.0770  -21.6110 C.2       1 DLU         0.1853
     19 CAS       -36.8870   29.1700  -18.6510 C.2       1 DLU         0.2327
     20 CAT       -41.2570   38.5210  -20.9080 C.ar      1 DLU         0.1231
     21 CAU       -39.1520   37.7040  -20.2660 C.ar      1 DLU         0.1335
     22 CAV       -38.9500   37.1690  -21.5550 C.ar      1 DLU         0.0086
     23 CAW       -36.9200   31.6500  -18.6720 C.2       1 DLU         0.1710
     24 CAX       -37.3450   32.8390  -20.7420 C.2       1 DLU         0.1043
     25 CAY       -37.0260   30.4020  -19.3270 C.2       1 DLU         0.1899
     26 CAZ       -37.0690   32.8610  -19.3650 C.2       1 DLU         0.1436
     27 CBA       -37.1730   26.6320  -18.7230 C.3       1 DLU         0.0460
     28 CBB       -37.6650   27.9820  -20.7480 C.3       1 DLU         0.1718
     29 NBC       -37.1790   27.9740  -19.3530 N.am      1 DLU        -0.2404
     30 NBD       -37.3000   30.4140  -20.7280 N.pl3     1 DLU        -0.2304
     31 H         -36.1592   24.7402  -18.8640 H         1 DLU         0.0252
     32 H         -36.2583   25.6395  -20.3977 H         1 DLU         0.0252
     33 H         -35.1157   26.1576  -19.1340 H         1 DLU         0.0252
     34 H         -35.8333   31.2845  -17.1526 H         1 DLU         0.2467
     35 H         -41.8808   38.1556  -22.9538 H         1 DLU         0.0552
     36 H         -39.7699   36.9349  -23.5324 H         1 DLU         0.0537
     37 H         -40.4524   38.7802  -18.9176 H         1 DLU         0.0572
     38 H         -37.6736   31.6279  -22.4827 H         1 DLU         0.1288
     39 H         -39.6531   27.6848  -18.6310 H         1 DLU         0.0561
     40 H         -40.3999   26.4692  -19.8039 H         1 DLU         0.0561
     41 H         -38.3732   25.2289  -19.8232 H         1 DLU         0.0310
     42 H         -38.8795   25.4665  -18.1321 H         1 DLU         0.0310
     43 H         -37.8443   36.0509  -22.9791 H         1 DLU         0.0665
     44 H         -36.8608   37.1222  -21.9211 H         1 DLU         0.0665
     45 H         -38.2535   29.3409  -22.2230 H         1 DLU         0.0656
     46 H         -36.4610   29.0706  -22.0648 H         1 DLU         0.0656
     47 H         -37.1766   35.4429  -20.0982 H         1 DLU         0.1853
     48 H         -36.9879   26.7639  -17.6570 H         1 DLU         0.0556
     49 H         -37.1359   27.1909  -21.2794 H         1 DLU         0.0897
@<TRIPOS>BOND
     1   27    1 1  
     2   18    2 2  
     3   19    3 2  
     4   26    4 2  
     5   23    5 1  
     6   20    6 1  
     7   21    7 1  
     8    9    8 ar 
     9    8   20 ar 
    10   22    9 ar 
    11   10   20 ar 
    12   21   10 ar 
    13   24   11 2  
    14   11   30 1  
    15   12   13 1  
    16   17   12 1  
    17   13   27 1  
    18   16   14 1  
    19   14   22 1  
    20   15   28 1  
    21   30   15 1  
    22   18   16 am 
    23   28   17 1  
    24   24   18 1  
    25   25   19 1  
    26   19   29 am 
    27   22   21 ar 
    28   23   25 2  
    29   26   23 1  
    30   24   26 1  
    31   25   30 1  
    32   27   29 1  
    33   28   29 1  
    34    1   31 1  
    35    1   32 1  
    36    1   33 1  
    37    5   34 1  
    38    8   35 1  
    39    9   36 1  
    40   10   37 1  
    41   11   38 1  
    42   12   39 1  
    43   12   40 1  
    44   13   41 1  
    45   13   42 1  
    46   14   43 1  
    47   14   44 1  
    48   15   45 1  
    49   15   46 1  
    50   16   47 1  
    51   27   48 1  
    52   28   49 1  
@<TRIPOS>SUBSTRUCTURE
     1 DLU         1

