### 
### Created by X-TOOL on Mon Sep 10 21:13:05 2018
### 

@<TRIPOS>MOLECULE
3s3q_ligand
   76    78     1     0     0
SMALL
GAST_HUCK


@<TRIPOS>ATOM
      1 N1         20.8400   10.5570   21.8310 N.am      1 C1P        -0.2517
      2 C15        21.7280   11.4630   22.2660 C.2       1 C1P         0.2623
      3 O16        21.6500   12.6250   21.8770 O.2       1 C1P        -0.4005
      4 N9         22.6970   11.1200   23.1390 N.am      1 C1P        -0.2550
      5 C14        22.8640    9.7340   23.6090 C.3       1 C1P         0.0577
      6 C13        23.1520    9.7470   25.1160 C.3       1 C1P         0.0678
      7 O12        24.2910   10.5920   25.3180 O.3       1 C1P        -0.3758
      8 C11        23.9660   11.9550   25.0730 C.3       1 C1P         0.0678
      9 C10        23.6600   12.1460   23.5910 C.3       1 C1P         0.0577
     10 C2         19.7580   10.9450   20.9030 C.3       1 C1P         0.1314
     11 C3         18.8680   11.9500   21.6030 C.2       1 C1P         0.2017
     12 O4         18.3790   11.6330   22.6760 O.2       1 C1P        -0.3946
     13 N28        18.6710   13.1590   21.0430 N.am      1 C1P        -0.2818
     14 C19        17.8320   14.1700   21.7190 C.3       1 C1P         0.0453
     15 C18        16.5940   14.4920   20.8480 C.3       1 C1P        -0.0099
     16 C17        16.8530   15.1470   19.4900 C.3       1 C1P         0.0730
     17 S33        16.1320   16.6610   19.3770 S.o2      1 C1P        -0.0030
     18 O34        14.6970   16.5920   19.3330 O.2       1 C1P        -0.1694
     19 O35        16.5110   17.4590   20.5100 O.2       1 C1P        -0.1694
     20 C32        16.7890   17.3710   18.1100 C.ar      1 C1P         0.0882
     21 C36        16.2970   17.2000   16.8120 C.ar      1 C1P        -0.0369
     22 C37        16.9300   17.8660   15.7520 C.ar      1 C1P        -0.0600
     23 C29        18.0240   18.6960   15.9850 C.ar      1 C1P        -0.0616
     24 C30        18.5180   18.8720   17.2810 C.ar      1 C1P        -0.0600
     25 C31        17.9010   18.2020   18.3390 C.ar      1 C1P        -0.0369
     26 C20        18.6710   15.4240   21.9080 C.3       1 C1P        -0.0201
     27 C21        19.6860   15.2400   23.0360 C.3       1 C1P        -0.0171
     28 C22        20.5680   16.4540   23.2080 C.ar      1 C1P        -0.0429
     29 C23        20.2580   17.3880   24.2030 C.ar      1 C1P        -0.0603
     30 C24        21.0750   18.5070   24.3970 C.ar      1 C1P        -0.0686
     31 C25        22.1920   18.6800   23.5870 C.ar      1 C1P        -0.0687
     32 C26        22.5130   17.7450   22.6010 C.ar      1 C1P        -0.0686
     33 C27        21.6980   16.6250   22.3950 C.ar      1 C1P        -0.0603
     34 C5         18.9330    9.6980   20.5860 C.3       1 C1P        -0.0103
     35 C6         19.6490    8.7190   19.6490 C.3       1 C1P        -0.0425
     36 C7         19.9820    9.3500   18.3130 C.3       1 C1P        -0.0625
     37 C8         18.7940    7.5080   19.3710 C.3       1 C1P        -0.0625
     38 H          20.9125    9.5891   22.1444 H         1 C1P         0.1877
     39 H          23.6941    9.2649   23.0808 H         1 C1P         0.0542
     40 H          21.9529    9.1682   23.4144 H         1 C1P         0.0542
     41 H          23.3508    8.7387   25.4791 H         1 C1P         0.0580
     42 H          22.2911   10.1216   25.6697 H         1 C1P         0.0580
     43 H          24.8092   12.5859   25.3542 H         1 C1P         0.0580
     44 H          23.0924   12.2321   25.6631 H         1 C1P         0.0580
     45 H          23.2290   13.1354   23.4378 H         1 C1P         0.0542
     46 H          24.5825   12.0498   23.0184 H         1 C1P         0.0542
     47 H          20.1672   11.3744   19.9885 H         1 C1P         0.0797
     48 H          19.1041   13.3782   20.1459 H         1 C1P         0.1855
     49 H          17.4881   13.7951   22.6830 H         1 C1P         0.0558
     50 H          16.0071   15.2116   21.4188 H         1 C1P         0.0303
     51 H          16.1244   13.5325   20.6313 H         1 C1P         0.0303
     52 H          16.4289   14.5077   18.7157 H         1 C1P         0.0505
     53 H          17.9292   15.2711   19.3700 H         1 C1P         0.0505
     54 H          15.4350   16.5591   16.6269 H         1 C1P         0.0636
     55 H          16.5617   17.7325   14.7348 H         1 C1P         0.0618
     56 H          18.4986   19.2123   15.1505 H         1 C1P         0.0618
     57 H          19.3729   19.5232   17.4628 H         1 C1P         0.0618
     58 H          18.2844   18.3238   19.3521 H         1 C1P         0.0636
     59 H          18.0096   16.2515   22.1646 H         1 C1P         0.0309
     60 H          19.2100   15.6266   20.9825 H         1 C1P         0.0309
     61 H          20.3213   14.3899   22.7872 H         1 C1P         0.0427
     62 H          19.1380   15.0828   23.9650 H         1 C1P         0.0427
     63 H          19.3773   17.2432   24.8287 H         1 C1P         0.0557
     64 H          20.8388   19.2344   25.1737 H         1 C1P         0.0599
     65 H          22.8251   19.5567   23.7236 H         1 C1P         0.0559
     66 H          23.4030   17.8876   21.9881 H         1 C1P         0.0599
     67 H          21.9374   15.8997   21.6174 H         1 C1P         0.0557
     68 H          18.0210   10.0247   20.0864 H         1 C1P         0.0315
     69 H          18.7474    9.1782   21.5259 H         1 C1P         0.0315
     70 H          20.5674    8.4342   20.1623 H         1 C1P         0.0298
     71 H          19.0622    9.6753   17.8269 H         1 C1P         0.0232
     72 H          20.6344   10.2088   18.4708 H         1 C1P         0.0232
     73 H          20.4882    8.6184   17.6832 H         1 C1P         0.0232
     74 H          18.5748    6.9967   20.3083 H         1 C1P         0.0232
     75 H          17.8624    7.8228   18.9008 H         1 C1P         0.0232
     76 H          19.3291    6.8325   18.7036 H         1 C1P         0.0232
@<TRIPOS>BOND
     1    1    2 am 
     2    1   10 1  
     3    2    3 2  
     4    2    4 am 
     5    4    5 1  
     6    4    9 1  
     7    5    6 1  
     8    6    7 1  
     9    7    8 1  
    10    8    9 1  
    11   10   11 1  
    12   10   34 1  
    13   11   12 2  
    14   11   13 am 
    15   13   14 1  
    16   14   15 1  
    17   14   26 1  
    18   15   16 1  
    19   16   17 1  
    20   17   18 2  
    21   17   19 2  
    22   17   20 1  
    23   20   21 ar 
    24   20   25 ar 
    25   21   22 ar 
    26   22   23 ar 
    27   23   24 ar 
    28   24   25 ar 
    29   26   27 1  
    30   27   28 1  
    31   28   29 ar 
    32   28   33 ar 
    33   29   30 ar 
    34   30   31 ar 
    35   31   32 ar 
    36   32   33 ar 
    37   34   35 1  
    38   35   36 1  
    39   35   37 1  
    40    1   38 1  
    41    5   39 1  
    42    5   40 1  
    43    6   41 1  
    44    6   42 1  
    45    8   43 1  
    46    8   44 1  
    47    9   45 1  
    48    9   46 1  
    49   10   47 1  
    50   13   48 1  
    51   14   49 1  
    52   15   50 1  
    53   15   51 1  
    54   16   52 1  
    55   16   53 1  
    56   21   54 1  
    57   22   55 1  
    58   23   56 1  
    59   24   57 1  
    60   25   58 1  
    61   26   59 1  
    62   26   60 1  
    63   27   61 1  
    64   27   62 1  
    65   29   63 1  
    66   30   64 1  
    67   31   65 1  
    68   32   66 1  
    69   33   67 1  
    70   34   68 1  
    71   34   69 1  
    72   35   70 1  
    73   36   71 1  
    74   36   72 1  
    75   36   73 1  
    76   37   74 1  
    77   37   75 1  
    78   37   76 1  
@<TRIPOS>SUBSTRUCTURE
     1 C1P         1

