### 
### Created by X-TOOL on Fri Sep 26 17:34:51 2014
### 

@<TRIPOS>MOLECULE
3s3v_ligand
   39    40     1     0     0
SMALL
GAST_HUCK


@<TRIPOS>ATOM
      1 C1         16.4120    5.4590    2.7790 C.ar      1 TOP         0.0016
      2 N2         16.8690    5.9450    3.9240 N.ar      1 TOP        -0.2822
      3 C3         17.7980    7.0010    3.9810 C.ar      1 TOP         0.1638
      4 N4         18.1990    7.4510    5.2160 N.pl3     1 TOP        -0.3098
      5 N5         18.3110    7.4730    2.8510 N.ar      1 TOP        -0.2486
      6 C6         17.9410    6.9990    1.6570 C.ar      1 TOP         0.1161
      7 N7         18.4700    7.5740    0.5670 N.pl3     1 TOP        -0.3198
      8 C8         16.9160    5.9390    1.5660 C.ar      1 TOP         0.0217
      9 C9         16.3050    5.3940    0.3060 C.3       1 TOP         0.0058
     10 C10        15.1070    6.2160   -0.2030 C.ar      1 TOP        -0.0614
     11 C11        13.8970    6.2670    0.5090 C.ar      1 TOP        -0.0491
     12 C12        12.8190    7.0650    0.0010 C.ar      1 TOP         0.1051
     13 O13        11.5820    7.1870    0.5260 O.3       1 TOP        -0.3297
     14 C14        11.4560    6.5320    1.8190 C.3       1 TOP         0.0563
     15 C15        12.8990    7.6560   -1.3040 C.ar      1 TOP         0.1396
     16 O16        11.7470    8.3270   -1.7410 O.3       1 TOP        -0.3340
     17 C17        11.0300    7.5350   -2.7570 C.3       1 TOP         0.0526
     18 C18        14.1150    7.5150   -2.0070 C.ar      1 TOP         0.1051
     19 O19        14.0980    8.2110   -3.2170 O.3       1 TOP        -0.3297
     20 C20        15.3160    8.0590   -3.9210 C.3       1 TOP         0.0563
     21 C21        15.2650    6.8440   -1.4940 C.ar      1 TOP        -0.0491
     22 H1         15.6481    4.6899    2.7826 H         1 TOP         0.0775
     23 H2         17.7760    7.0588    6.0693 H         1 TOP         0.1804
     24 H3         18.9226    8.1805    5.2883 H         1 TOP         0.1804
     25 H4         18.2097    7.2369   -0.3708 H         1 TOP         0.1790
     26 H5         19.1366    8.3527    0.6677 H         1 TOP         0.1790
     27 H6         15.9641    4.3665    0.5009 H         1 TOP         0.0535
     28 H7         17.0767    5.3819   -0.4778 H         1 TOP         0.0535
     29 H8         13.7795    5.7098    1.4314 H         1 TOP         0.0367
     30 H9         10.4317    6.6630    2.1981 H         1 TOP         0.0572
     31 H10        12.1691    6.9788    2.5274 H         1 TOP         0.0572
     32 H11        11.6718    5.4590    1.7091 H         1 TOP         0.0572
     33 H12        10.1328    8.0820   -3.0823 H         1 TOP         0.0565
     34 H13        10.7333    6.5676   -2.3256 H         1 TOP         0.0565
     35 H14        11.6889    7.3645   -3.6212 H         1 TOP         0.0565
     36 H15        15.2656    8.6195   -4.8661 H         1 TOP         0.0572
     37 H16        15.4852    6.9934   -4.1352 H         1 TOP         0.0572
     38 H17        16.1440    8.4460   -3.3090 H         1 TOP         0.0572
     39 H18        16.2007    6.8078   -2.0402 H         1 TOP         0.0367
@<TRIPOS>BOND
     1    1    2 ar 
     2    1    8 ar 
     3    2    3 ar 
     4    3    4 1  
     5    3    5 ar 
     6    5    6 ar 
     7    6    7 1  
     8    6    8 ar 
     9    8    9 1  
    10    9   10 1  
    11   10   11 ar 
    12   10   21 ar 
    13   11   12 ar 
    14   12   13 1  
    15   12   15 ar 
    16   13   14 1  
    17   15   16 1  
    18   15   18 ar 
    19   16   17 1  
    20   18   19 1  
    21   18   21 ar 
    22   19   20 1  
    23    1   22 1  
    24    4   23 1  
    25    4   24 1  
    26    7   25 1  
    27    7   26 1  
    28    9   27 1  
    29    9   28 1  
    30   11   29 1  
    31   14   30 1  
    32   14   31 1  
    33   14   32 1  
    34   17   33 1  
    35   17   34 1  
    36   17   35 1  
    37   20   36 1  
    38   20   37 1  
    39   20   38 1  
    40   21   39 1  
@<TRIPOS>SUBSTRUCTURE
     1 TOP         1

