### 
### Created by X-TOOL on Mon Sep 10 21:13:08 2018
### 

@<TRIPOS>MOLECULE
3s43_ligand
   70    72     1     0     0
SMALL
GAST_HUCK


@<TRIPOS>ATOM
      1 C1         12.6350   18.2260   19.7570 C.3       1 478         0.0782
      2 C2         14.6010   19.0590   20.8660 C.3       1 478         0.0034
      3 C3         14.7900   20.7470   18.3190 C.2       1 478         0.3203
      4 C4         13.9950   18.8340   19.4730 C.3       1 478         0.1134
      5 C5         15.2610   22.9200   17.1960 C.3       1 478         0.0807
      6 C6         15.6900   24.0290   18.1510 C.3       1 478         0.0967
      7 C7         14.4680   23.3860   15.9600 C.3       1 478         0.0064
      8 C8         14.0620   22.2520   15.0600 C.ar      1 478        -0.0408
      9 C9         12.7810   21.7330   15.0120 C.ar      1 478        -0.0603
     10 C10        15.0160   21.6200   14.2340 C.ar      1 478        -0.0603
     11 C11        12.4870   20.5960   14.2590 C.ar      1 478        -0.0686
     12 C12        14.7740   20.5230   13.4130 C.ar      1 478        -0.0686
     13 C13        13.4750   20.0120   13.4750 C.ar      1 478        -0.0687
     14 C14        16.7510   24.9870   17.5370 C.3       1 478         0.0578
     15 C15        18.9000   24.6650   18.6800 C.3       1 478         0.0319
     16 C16        18.6410   23.9570   20.0300 C.3       1 478        -0.0296
     17 C17        19.4650   25.4270   15.4260 C.ar      1 478         0.0949
     18 C18        18.7070   26.2940   14.6320 C.ar      1 478        -0.0471
     19 C19        19.2470   27.5290   14.2230 C.ar      1 478        -0.0429
     20 C20        20.5110   27.9530   14.6620 C.ar      1 478         0.0353
     21 C21        21.2690   27.0370   15.4200 C.ar      1 478        -0.0429
     22 C22        20.6950   25.8680   15.8650 C.ar      1 478        -0.0471
     23 C23        18.8800   22.4520   19.8730 C.3       1 478        -0.0612
     24 C24        19.6650   24.5510   21.0080 C.3       1 478        -0.0612
     25 C25        13.5080   18.6350   21.8460 C.3       1 478         0.0505
     26 N1         14.4280   21.9640   17.9130 N.am      1 478        -0.2550
     27 N2         18.0700   24.3890   17.5710 N.am      1 478        -0.2327
     28 N3         21.1210   29.0360   14.1780 N.pl3     1 478        -0.3369
     29 O1         13.7140   20.1220   18.9310 O.3       1 478        -0.2582
     30 O2         15.8990   20.2770   18.2330 O.2       1 478        -0.3775
     31 O3         14.5730   24.8820   18.4580 O.3       1 478        -0.3877
     32 O4         17.6490   23.6920   15.1640 O.2       1 478        -0.1518
     33 O5         19.7190   22.9040   16.3290 O.2       1 478        -0.1518
     34 O6         12.3130   18.6930   21.0730 O.3       1 478        -0.3768
     35 S1         18.7460   23.9790   16.1310 S.o2      1 478         0.0648
     36 H1         12.6855   17.1274   19.7337 H         1 478         0.0589
     37 H2         11.8908   18.5744   19.0258 H         1 478         0.0589
     38 H3         14.8585   20.1188   21.0090 H         1 478         0.0316
     39 H4         15.5014   18.4415   21.0003 H         1 478         0.0316
     40 H5         14.6275   18.2175   18.8173 H         1 478         0.0671
     41 H6         16.1716   22.4133   16.8438 H         1 478         0.0604
     42 H7         16.0870   23.5706   19.0687 H         1 478         0.0634
     43 H8         15.0943   24.0833   15.3842 H         1 478         0.0449
     44 H9         13.5601   23.9048   16.3013 H         1 478         0.0449
     45 H10        11.9895   22.2194   15.5706 H         1 478         0.0557
     46 H11        16.0222   22.0232   14.2397 H         1 478         0.0557
     47 H12        11.4909   20.1692   14.2853 H         1 478         0.0599
     48 H13        15.5372   20.0962   12.7723 H         1 478         0.0599
     49 H14        13.2298   19.1313   12.8926 H         1 478         0.0559
     50 H15        16.7658   25.9242   18.1127 H         1 478         0.0504
     51 H16        16.4802   25.2023   16.4928 H         1 478         0.0504
     52 H17        19.9273   24.4115   18.3795 H         1 478         0.0480
     53 H18        18.8295   25.7463   18.8690 H         1 478         0.0480
     54 H19        17.6143   24.1409   20.3793 H         1 478         0.0311
     55 H20        17.7035   26.0153   14.3313 H         1 478         0.0602
     56 H21        18.6753   28.1643   13.5562 H         1 478         0.0515
     57 H22        22.3053   27.2539   15.6526 H         1 478         0.0515
     58 H23        21.2326   25.2690   16.5911 H         1 478         0.0602
     59 H24        18.6955   21.9493   20.8338 H         1 478         0.0233
     60 H25        19.9201   22.2765   19.5612 H         1 478         0.0233
     61 H26        18.1959   22.0496   19.1114 H         1 478         0.0233
     62 H27        19.4863   25.6311   21.1148 H         1 478         0.0233
     63 H28        20.6811   24.3840   20.6213 H         1 478         0.0233
     64 H29        19.5611   24.0635   21.9886 H         1 478         0.0233
     65 H30        13.4565   19.3281   22.6986 H         1 478         0.0561
     66 H31        13.6869   17.6139   22.2138 H         1 478         0.0561
     67 H32        13.4923   22.2488   18.1212 H         1 478         0.1873
     68 H33        20.5898   29.7206   13.6212 H         1 478         0.1719
     69 H34        22.1232   29.1877   14.3611 H         1 478         0.1719
     70 H35        14.2613   25.2933   17.6602 H         1 478         0.2100
@<TRIPOS>BOND
     1    4    1 1  
     2    1   34 1  
     3    4    2 1  
     4    2   25 1  
     5   26    3 am 
     6    3   29 1  
     7    3   30 2  
     8   29    4 1  
     9    6    5 1  
    10    5    7 1  
    11    5   26 1  
    12   14    6 1  
    13    6   31 1  
    14    7    8 1  
    15    8    9 ar 
    16    8   10 ar 
    17    9   11 ar 
    18   10   12 ar 
    19   11   13 ar 
    20   12   13 ar 
    21   27   14 1  
    22   15   16 1  
    23   27   15 1  
    24   16   23 1  
    25   16   24 1  
    26   17   18 ar 
    27   17   22 ar 
    28   35   17 1  
    29   18   19 ar 
    30   19   20 ar 
    31   21   20 ar 
    32   20   28 1  
    33   22   21 ar 
    34   25   34 1  
    35   27   35 am 
    36   35   32 2  
    37   35   33 2  
    38    1   36 1  
    39    1   37 1  
    40    2   38 1  
    41    2   39 1  
    42    4   40 1  
    43    5   41 1  
    44    6   42 1  
    45    7   43 1  
    46    7   44 1  
    47    9   45 1  
    48   10   46 1  
    49   11   47 1  
    50   12   48 1  
    51   13   49 1  
    52   14   50 1  
    53   14   51 1  
    54   15   52 1  
    55   15   53 1  
    56   16   54 1  
    57   18   55 1  
    58   19   56 1  
    59   21   57 1  
    60   22   58 1  
    61   23   59 1  
    62   23   60 1  
    63   23   61 1  
    64   24   62 1  
    65   24   63 1  
    66   24   64 1  
    67   25   65 1  
    68   25   66 1  
    69   26   67 1  
    70   28   68 1  
    71   28   69 1  
    72   31   70 1  
@<TRIPOS>SUBSTRUCTURE
     1 478         1

