### 
### Created by X-TOOL on Mon Sep 10 21:13:09 2018
### 

@<TRIPOS>MOLECULE
3s45_ligand
   70    72     1     0     0
SMALL
GAST_HUCK


@<TRIPOS>ATOM
      1 C1         25.3390   14.6720   16.1890 C.3       1 478         0.0782
      2 C2         25.5900   13.0850   17.9530 C.3       1 478         0.0034
      3 C3         22.6850   12.3820   17.1770 C.2       1 478         0.3203
      4 C4         24.5210   13.8780   17.2150 C.3       1 478         0.1134
      5 C5         20.7090   10.8980   16.9940 C.3       1 478         0.0807
      6 C6         20.8840    9.3830   16.9690 C.3       1 478         0.0967
      7 C7         19.5440   11.3920   16.1260 C.3       1 478         0.0064
      8 C8         19.5240   12.9130   16.2390 C.ar      1 478        -0.0408
      9 C9         20.2090   13.6660   15.2930 C.ar      1 478        -0.0603
     10 C10        18.8590   13.5460   17.2740 C.ar      1 478        -0.0603
     11 C11        20.2440   15.0360   15.5030 C.ar      1 478        -0.0686
     12 C12        18.8270   14.9130   17.5130 C.ar      1 478        -0.0686
     13 C13        19.6360   15.5850   16.6220 C.ar      1 478        -0.0687
     14 C14        19.7050    8.6550   17.6290 C.3       1 478         0.0578
     15 C15        20.1520    7.7090   19.8100 C.3       1 478         0.0319
     16 C16        21.6890    7.5950   19.7070 C.3       1 478        -0.0296
     17 C17        17.1610    8.5720   19.8360 C.ar      1 478         0.0949
     18 C18        16.2610    8.5470   18.7700 C.ar      1 478        -0.0471
     19 C19        15.2060    7.6470   18.8200 C.ar      1 478        -0.0429
     20 C20        15.0700    6.7960   19.9040 C.ar      1 478         0.0353
     21 C21        15.9650    6.8360   20.9680 C.ar      1 478        -0.0429
     22 C22        17.0480    7.7290   20.9250 C.ar      1 478        -0.0471
     23 C23        22.3230    8.9080   20.1920 C.3       1 478        -0.0612
     24 C24        22.1800    6.3970   20.5330 C.3       1 478        -0.0612
     25 C25        26.7420   12.9930   16.9510 C.3       1 478         0.0505
     26 N1         21.9350   11.5240   16.4820 N.am      1 478        -0.2550
     27 N2         19.7980    8.9180   19.0740 N.am      1 478        -0.2327
     28 N3         14.0700    5.9200   19.8790 N.pl3     1 478        -0.3369
     29 O1         23.6820   12.9860   16.4930 O.3       1 478        -0.2582
     30 O2         22.5180   12.6370   18.3630 O.2       1 478        -0.3775
     31 O3         21.0740    8.8850   15.6460 O.3       1 478        -0.3877
     32 O4         18.1160   10.7450   18.7150 O.2       1 478        -0.1518
     33 O5         18.8580   10.2220   21.0150 O.2       1 478        -0.1518
     34 O6         26.4420   13.8410   15.8480 O.3       1 478        -0.3768
     35 S1         18.4990    9.6790   19.6900 S.o2      1 478         0.0648
     36 H1         25.6922   15.6165   16.6285 H         1 478         0.0589
     37 H2         24.7312   14.8870   15.2978 H         1 478         0.0589
     38 H3         25.2208   12.0830   18.2170 H         1 478         0.0316
     39 H4         25.9069   13.6113   18.8655 H         1 478         0.0316
     40 H5         23.9377   14.5234   17.8881 H         1 478         0.0671
     41 H6         20.5361   11.2136   18.0335 H         1 478         0.0604
     42 H7         21.7894    9.1494   17.5483 H         1 478         0.0634
     43 H8         18.5951   10.9727   16.4916 H         1 478         0.0449
     44 H9         19.6982   11.0921   15.0790 H         1 478         0.0449
     45 H10        20.6901   13.2069   14.4369 H         1 478         0.0557
     46 H11        18.3109   12.9145   17.9638 H         1 478         0.0557
     47 H12        20.7478   15.6795   14.7909 H         1 478         0.0599
     48 H13        18.2447   15.3877   18.2944 H         1 478         0.0599
     49 H14        19.8129   16.6373   16.8132 H         1 478         0.0559
     50 H15        19.7713    7.5741   17.4358 H         1 478         0.0504
     51 H16        18.7532    9.0403   17.2345 H         1 478         0.0504
     52 H17        19.8430    7.7957   20.8621 H         1 478         0.0480
     53 H18        19.6706    6.8294   19.3578 H         1 478         0.0480
     54 H19        21.9681    7.4343   18.6552 H         1 478         0.0311
     55 H20        16.3829    9.2138   17.9241 H         1 478         0.0602
     56 H21        14.4873    7.6100   18.0094 H         1 478         0.0515
     57 H22        15.8278    6.1837   21.8228 H         1 478         0.0515
     58 H23        17.7774    7.7563   21.7264 H         1 478         0.0602
     59 H24        23.4183    8.8343   20.1215 H         1 478         0.0233
     60 H25        22.0344    9.0903   21.2377 H         1 478         0.0233
     61 H26        21.9704    9.7394   19.5640 H         1 478         0.0233
     62 H27        21.7077    5.4762   20.1600 H         1 478         0.0233
     63 H28        21.9111    6.5450   21.5893 H         1 478         0.0233
     64 H29        23.2728    6.3116   20.4413 H         1 478         0.0233
     65 H30        26.8511   11.9550   16.6035 H         1 478         0.0561
     66 H31        27.6775   13.3202   17.4283 H         1 478         0.0561
     67 H32        22.2264   11.2927   15.5538 H         1 478         0.1873
     68 H33        13.4175    5.9059   19.0822 H         1 478         0.1719
     69 H34        13.9479    5.2555   20.6565 H         1 478         0.1719
     70 H35        21.2581    7.9536   15.6828 H         1 478         0.2100
@<TRIPOS>BOND
     1    4    1 1  
     2    1   34 1  
     3    4    2 1  
     4    2   25 1  
     5   26    3 am 
     6    3   29 1  
     7    3   30 2  
     8   29    4 1  
     9    6    5 1  
    10    5    7 1  
    11    5   26 1  
    12   14    6 1  
    13    6   31 1  
    14    7    8 1  
    15    8    9 ar 
    16    8   10 ar 
    17    9   11 ar 
    18   10   12 ar 
    19   11   13 ar 
    20   12   13 ar 
    21   27   14 1  
    22   15   16 1  
    23   27   15 1  
    24   16   23 1  
    25   16   24 1  
    26   17   18 ar 
    27   17   22 ar 
    28   35   17 1  
    29   18   19 ar 
    30   19   20 ar 
    31   21   20 ar 
    32   20   28 1  
    33   22   21 ar 
    34   25   34 1  
    35   27   35 am 
    36   35   32 2  
    37   35   33 2  
    38    1   36 1  
    39    1   37 1  
    40    2   38 1  
    41    2   39 1  
    42    4   40 1  
    43    5   41 1  
    44    6   42 1  
    45    7   43 1  
    46    7   44 1  
    47    9   45 1  
    48   10   46 1  
    49   11   47 1  
    50   12   48 1  
    51   13   49 1  
    52   14   50 1  
    53   14   51 1  
    54   15   52 1  
    55   15   53 1  
    56   16   54 1  
    57   18   55 1  
    58   19   56 1  
    59   21   57 1  
    60   22   58 1  
    61   23   59 1  
    62   23   60 1  
    63   23   61 1  
    64   24   62 1  
    65   24   63 1  
    66   24   64 1  
    67   25   65 1  
    68   25   66 1  
    69   26   67 1  
    70   28   68 1  
    71   28   69 1  
    72   31   70 1  
@<TRIPOS>SUBSTRUCTURE
     1 478         1

