### 
### Created by X-TOOL on Mon Sep 10 21:13:12 2018
### 

@<TRIPOS>MOLECULE
3s4q_ligand
   53    57     1     0     0
SMALL
GAST_HUCK


@<TRIPOS>ATOM
      1 C1         -0.2190   -6.9990   13.4740 C.ar      1 NK0        -0.0561
      2 N1          1.7650   -4.2270   17.7170 N.pl3     1 NK0        -0.1646
      3 O1          1.6890   -8.8790   17.3370 O.2       1 NK0        -0.3824
      4 C2          0.6020   -7.6320   12.5690 C.ar      1 NK0        -0.0574
      5 N2          2.2390   -2.4740   19.7900 N.2       1 NK0        -0.2775
      6 O2          0.2400   -1.7610   24.4560 O.2       1 NK0        -0.3878
      7 C3          1.6630   -8.3880   13.0200 C.ar      1 NK0        -0.0561
      8 N3          1.6080   -2.8720   17.4770 N.2       1 NK0        -0.1688
      9 C4          1.9130   -8.5020   14.3790 C.ar      1 NK0        -0.0439
     10 N4          3.1060   -4.2310   21.1510 N.pl3     1 NK0        -0.2479
     11 C5          1.1030   -7.8450   15.3040 C.ar      1 NK0         0.0285
     12 N5          1.5970   -0.3150   25.5270 N.am      1 NK0        -0.2771
     13 C6          0.0150   -7.1170   14.8350 C.ar      1 NK0        -0.0439
     14 C7          1.4790   -7.8180   16.7490 C.2       1 NK0         0.1364
     15 C8          1.6700   -6.4710   17.4820 C.2       1 NK0         0.0275
     16 C9          1.4900   -5.2170   16.8390 C.2       1 NK0         0.0703
     17 C10         2.1630   -4.8030   18.9740 C.2       1 NK0         0.1546
     18 C11         2.0770   -6.2030   18.8380 C.2       1 NK0        -0.0219
     19 C12         2.2610   -7.1960   19.9070 C.3       1 NK0        -0.0433
     20 C13         2.4540   -3.8250   20.0100 C.2       1 NK0         0.1675
     21 C14         1.8400   -2.0900   18.5740 C.2       1 NK0         0.0753
     22 C15         3.3830   -3.3760   22.2260 C.ar      1 NK0         0.0752
     23 C16         2.3300   -2.8510   22.9750 C.ar      1 NK0        -0.0240
     24 C17         2.5470   -1.8280   23.8940 C.ar      1 NK0         0.0337
     25 C18         3.8400   -1.3470   24.0760 C.ar      1 NK0        -0.0596
     26 C19         4.8970   -1.8960   23.3700 C.ar      1 NK0        -0.0632
     27 C20         4.7110   -2.9240   22.4450 C.ar      1 NK0        -0.0158
     28 C21         5.8980   -3.5790   21.7830 C.3       1 NK0        -0.0309
     29 C22         1.3660   -1.3050   24.6490 C.2       1 NK0         0.1981
     30 C23         0.5210    0.4050   26.2080 C.3       1 NK0         0.0782
     31 C24         0.7960    1.0190   27.5140 C.2       1 NK0        -0.0568
     32 C25        -0.0780   -0.1640   27.4240 C.2       1 NK0        -0.0568
     33 H          -1.0583   -6.4013   13.1184 H         1 NK0         0.0629
     34 H           0.4141   -7.5360   11.4996 H         1 NK0         0.0654
     35 H           2.3082   -8.8984   12.3050 H         1 NK0         0.0629
     36 H           2.7486   -9.1095   14.7265 H         1 NK0         0.0669
     37 H           3.4031   -5.2045   21.2180 H         1 NK0         0.2186
     38 H           2.5626   -0.0545   25.7272 H         1 NK0         0.1852
     39 H          -0.6591   -6.6354   15.5433 H         1 NK0         0.0669
     40 H           1.1799   -5.0759   15.8036 H         1 NK0         0.0913
     41 H           3.2633   -7.0976   20.3240 H         1 NK0         0.0341
     42 H           1.5220   -7.0262   20.6900 H         1 NK0         0.0341
     43 H           2.1336   -8.1977   19.4965 H         1 NK0         0.0341
     44 H           1.6795   -1.0202   18.4401 H         1 NK0         0.1037
     45 H           1.3236   -3.2470   22.8390 H         1 NK0         0.0568
     46 H           4.0217   -0.5335   24.7783 H         1 NK0         0.0559
     47 H           5.9034   -1.5142   23.5417 H         1 NK0         0.0539
     48 H           6.4628   -2.8293   21.2289 H         1 NK0         0.0380
     49 H           6.5361   -4.0267   22.5449 H         1 NK0         0.0380
     50 H           5.5496   -4.3525   21.0986 H         1 NK0         0.0380
     51 H           0.1280    0.7568   25.2541 H         1 NK0         0.0645
     52 H           1.2869    1.7870   28.1117 H         1 NK0         0.0596
     53 H          -0.7073   -0.9123   27.9058 H         1 NK0         0.0596
@<TRIPOS>BOND
     1    1    4 ar 
     2   13    1 ar 
     3    2    8 1  
     4    2   16 1  
     5   17    2 1  
     6   14    3 2  
     7    7    4 ar 
     8   20    5 2  
     9    5   21 1  
    10   29    6 2  
    11    9    7 ar 
    12   21    8 2  
    13   11    9 ar 
    14   10   20 1  
    15   22   10 1  
    16   11   13 ar 
    17   14   11 1  
    18   29   12 am 
    19   12   30 1  
    20   15   14 1  
    21   15   16 2  
    22   18   15 1  
    23   17   18 2  
    24   20   17 1  
    25   18   19 1  
    26   23   22 ar 
    27   22   27 ar 
    28   24   23 ar 
    29   24   25 ar 
    30   24   29 1  
    31   25   26 ar 
    32   26   27 ar 
    33   27   28 1  
    34   30   31 1  
    35   30   32 1  
    36   31   32 2  
    37    1   33 1  
    38    4   34 1  
    39    7   35 1  
    40    9   36 1  
    41   10   37 1  
    42   12   38 1  
    43   13   39 1  
    44   16   40 1  
    45   19   41 1  
    46   19   42 1  
    47   19   43 1  
    48   21   44 1  
    49   23   45 1  
    50   25   46 1  
    51   26   47 1  
    52   28   48 1  
    53   28   49 1  
    54   28   50 1  
    55   30   51 1  
    56   31   52 1  
    57   32   53 1  
@<TRIPOS>SUBSTRUCTURE
     1 NK0         1

