### 
### Created by X-TOOL on Mon Sep 10 21:13:10 2018
### 

@<TRIPOS>MOLECULE
3s53_ligand
   75    78     1     0     0
SMALL
GAST_HUCK


@<TRIPOS>ATOM
      1 N1         -1.2440    8.3360   29.7810 N.pl3     1 017        -0.3369
      2 C2         -0.8030    8.5720   31.0660 C.ar      1 017         0.0353
      3 C3          0.4490    8.0710   31.4570 C.ar      1 017        -0.0429
      4 C4          0.9160    8.3050   32.7560 C.ar      1 017        -0.0471
      5 C5          0.1540    9.1080   33.6220 C.ar      1 017         0.0949
      6 C6         -1.1190    9.5580   33.2650 C.ar      1 017        -0.0471
      7 C7         -1.6240    9.2630   31.9770 C.ar      1 017        -0.0429
      8 S8          0.7610    9.3110   35.3580 S.o2      1 017         0.0648
      9 O9          2.3390    9.1590   35.2590 O.2       1 017        -0.1518
     10 O10         0.4090   10.7540   35.8810 O.2       1 017        -0.1518
     11 N11         0.1140    8.0290   36.4110 N.am      1 017        -0.2327
     12 C12        -1.3590    7.9720   36.6140 C.3       1 017         0.0319
     13 C13        -1.7940    7.5460   38.0440 C.3       1 017        -0.0296
     14 C14        -1.2610    8.6020   39.0030 C.3       1 017        -0.0612
     15 C15        -3.3170    7.5300   38.0270 C.3       1 017        -0.0612
     16 C16         0.8010    6.6770   36.2480 C.3       1 017         0.0578
     17 C17         1.5450    6.2760   37.5920 C.3       1 017         0.0967
     18 O18         2.0420    4.9460   37.4960 O.3       1 017        -0.3877
     19 C19         2.7300    7.2540   37.8760 C.3       1 017         0.0807
     20 N20         3.2130    7.1380   39.2160 N.am      1 017        -0.2550
     21 C21         3.0130    8.0430   40.2250 C.2       1 017         0.3203
     22 O22         2.5170    9.2020   40.0700 O.2       1 017        -0.3775
     23 O23         3.4170    7.5250   41.5080 O.3       1 017        -0.2578
     24 C24         3.4780    8.5330   42.5940 C.3       1 017         0.1189
     25 C25         3.0180    7.7640   43.8750 C.3       1 017         0.0815
     26 O26         4.0850    6.8150   44.1540 O.3       1 017        -0.3480
     27 C27         5.2600    7.5420   43.7840 C.3       1 017         0.1648
     28 O28         6.1770    6.6890   43.0700 O.3       1 017        -0.3509
     29 C29         6.2860    7.3260   41.7750 C.3       1 017         0.0512
     30 C30         6.0380    8.8360   42.0080 C.3       1 017        -0.0191
     31 C31         4.9330    8.7360   43.0190 C.3       1 017         0.0449
     32 C32         3.9630    7.0410   36.9160 C.3       1 017         0.0064
     33 C33         6.2770    7.3910   37.9630 C.ar      1 017        -0.0603
     34 C34         7.3630    8.2190   38.3560 C.ar      1 017        -0.0686
     35 C35         7.2310    9.6040   38.1820 C.ar      1 017        -0.0687
     36 C36         6.1460   10.1320   37.4660 C.ar      1 017        -0.0686
     37 C37         5.0530    9.3100   37.0870 C.ar      1 017        -0.0603
     38 C38         5.1470    7.9240   37.3220 C.ar      1 017        -0.0408
     39 H1         -0.6428    7.8303   29.1149 H         1 017         0.1719
     40 H2         -2.1747    8.6654   29.4873 H         1 017         0.1719
     41 H3          1.0517    7.5052   30.7558 H         1 017         0.0515
     42 H4          1.8525    7.8727   33.0893 H         1 017         0.0602
     43 H5         -1.7147   10.1282   33.9686 H         1 017         0.0602
     44 H6         -2.6268    9.5641   31.6961 H         1 017         0.0515
     45 H7         -1.7773    7.2496   35.8977 H         1 017         0.0480
     46 H8         -1.7731    8.9708   36.4117 H         1 017         0.0480
     47 H9         -1.3989    6.5539   38.3077 H         1 017         0.0311
     48 H10        -1.5467    8.3400   40.0324 H         1 017         0.0233
     49 H11        -1.6868    9.5822   38.7425 H         1 017         0.0233
     50 H12        -0.1646    8.6465   38.9269 H         1 017         0.0233
     51 H13        -3.6677    6.7582   37.3261 H         1 017         0.0233
     52 H14        -3.6905    8.5136   37.7061 H         1 017         0.0233
     53 H15        -3.6927    7.3066   39.0364 H         1 017         0.0233
     54 H16         1.5346    6.7381   35.4307 H         1 017         0.0504
     55 H17         0.0472    5.9127   36.0078 H         1 017         0.0504
     56 H18         0.8284    6.3322   38.4246 H         1 017         0.0634
     57 H19         1.3182    4.3485   37.3489 H         1 017         0.2100
     58 H20         2.3521    8.2764   37.7286 H         1 017         0.0604
     59 H21         3.7459    6.3213   39.4375 H         1 017         0.1873
     60 H22         2.9287    9.4576   42.3629 H         1 017         0.0675
     61 H23         2.0712    7.2360   43.6888 H         1 017         0.0590
     62 H24         2.8904    8.4596   44.7175 H         1 017         0.0590
     63 H25         5.7573    7.8680   44.7094 H         1 017         0.0913
     64 H26         5.5315    6.9186   41.0860 H         1 017         0.0561
     65 H27         7.2902    7.1658   41.3556 H         1 017         0.0561
     66 H28         5.7128    9.3476   41.0901 H         1 017         0.0293
     67 H29         6.9256    9.3423   42.4152 H         1 017         0.0293
     68 H30         4.9735    9.6366   43.6493 H         1 017         0.0380
     69 H31         3.6640    7.2939   35.8881 H         1 017         0.0449
     70 H32         4.2720    5.9862   36.9591 H         1 017         0.0449
     71 H33         6.3218    6.3264   38.1621 H         1 017         0.0557
     72 H34         8.2661    7.7927   38.7776 H         1 017         0.0599
     73 H35         7.9730   10.2721   38.6040 H         1 017         0.0559
     74 H36         6.1426   11.1825   37.1986 H         1 017         0.0599
     75 H37         4.1686    9.7375   36.6285 H         1 017         0.0557
@<TRIPOS>BOND
     1    2    1 1  
     2    3    2 ar 
     3    7    2 ar 
     4    4    3 ar 
     5    5    4 ar 
     6    5    6 ar 
     7    8    5 1  
     8    6    7 ar 
     9    8    9 2  
    10    8   10 2  
    11   11    8 am 
    12   11   12 1  
    13   16   11 1  
    14   12   13 1  
    15   13   14 1  
    16   13   15 1  
    17   17   16 1  
    18   17   18 1  
    19   19   17 1  
    20   19   20 1  
    21   32   19 1  
    22   20   21 am 
    23   21   22 2  
    24   21   23 1  
    25   23   24 1  
    26   24   25 1  
    27   24   31 1  
    28   25   26 1  
    29   27   26 1  
    30   27   28 1  
    31   31   27 1  
    32   29   28 1  
    33   30   29 1  
    34   31   30 1  
    35   38   32 1  
    36   33   34 ar 
    37   33   38 ar 
    38   34   35 ar 
    39   35   36 ar 
    40   36   37 ar 
    41   37   38 ar 
    42    1   39 1  
    43    1   40 1  
    44    3   41 1  
    45    4   42 1  
    46    6   43 1  
    47    7   44 1  
    48   12   45 1  
    49   12   46 1  
    50   13   47 1  
    51   14   48 1  
    52   14   49 1  
    53   14   50 1  
    54   15   51 1  
    55   15   52 1  
    56   15   53 1  
    57   16   54 1  
    58   16   55 1  
    59   17   56 1  
    60   18   57 1  
    61   19   58 1  
    62   20   59 1  
    63   24   60 1  
    64   25   61 1  
    65   25   62 1  
    66   27   63 1  
    67   29   64 1  
    68   29   65 1  
    69   30   66 1  
    70   30   67 1  
    71   31   68 1  
    72   32   69 1  
    73   32   70 1  
    74   33   71 1  
    75   34   72 1  
    76   35   73 1  
    77   36   74 1  
    78   37   75 1  
@<TRIPOS>SUBSTRUCTURE
     1 017         1

