### 
### Created by X-TOOL on Mon Sep 10 21:13:08 2018
### 

@<TRIPOS>MOLECULE
3s54_ligand
   75    78     1     0     0
SMALL
GAST_HUCK


@<TRIPOS>ATOM
      1 N1         21.1120   28.7880   14.2350 N.pl3     1 017        -0.3369
      2 C2         20.4600   27.6390   14.5790 C.ar      1 017         0.0353
      3 C3         19.1300   27.4450   14.1920 C.ar      1 017        -0.0429
      4 C4         18.4500   26.2650   14.5460 C.ar      1 017        -0.0471
      5 C5         19.2130   25.2940   15.2130 C.ar      1 017         0.0949
      6 C6         20.5200   25.5070   15.6660 C.ar      1 017        -0.0471
      7 C7         21.1930   26.6980   15.3250 C.ar      1 017        -0.0429
      8 S8         18.3560   23.8210   15.8620 S.o2      1 017         0.0648
      9 O9         17.1620   23.5110   14.8740 O.2       1 017        -0.1518
     10 O10        19.3970   22.6140   15.9200 O.2       1 017        -0.1518
     11 N11        17.7290   24.0760   17.5190 N.am      1 017        -0.2327
     12 C12        18.7290   24.4300   18.5850 C.3       1 017         0.0319
     13 C13        18.3710   23.7800   19.9610 C.3       1 017        -0.0296
     14 C14        18.2810   22.2690   19.7720 C.3       1 017        -0.0612
     15 C15        19.5510   24.1170   20.8820 C.3       1 017        -0.0612
     16 C16        16.4540   24.9030   17.5330 C.3       1 017         0.0578
     17 C17        15.2710   23.9940   17.9900 C.3       1 017         0.0967
     18 O18        14.1340   24.7930   18.3030 O.3       1 017        -0.3877
     19 C19        14.8880   22.8570   16.9850 C.3       1 017         0.0807
     20 N20        14.0050   21.9430   17.6730 N.am      1 017        -0.2550
     21 C21        14.3540   20.6720   17.9940 C.2       1 017         0.3203
     22 O22        15.4180   20.0960   17.5900 O.2       1 017        -0.3775
     23 O23        13.3840   20.0720   18.8530 O.3       1 017        -0.2578
     24 C24        13.4480   18.6010   18.9250 C.3       1 017         0.1189
     25 C25        12.8730   18.2950   20.3270 C.3       1 017         0.0815
     26 O26        11.4280   18.4540   20.2070 O.3       1 017        -0.3480
     27 C27        11.1240   18.1000   18.8580 C.3       1 017         0.1648
     28 O28        10.1650   18.9750   18.2290 O.3       1 017        -0.3509
     29 C29        10.8810   19.5210   17.1180 C.3       1 017         0.0512
     30 C30        11.9500   18.4790   16.7020 C.3       1 017        -0.0191
     31 C31        12.3460   17.9580   18.0720 C.3       1 017         0.0449
     32 C32        14.0810   23.3350   15.7190 C.3       1 017         0.0064
     33 C33        12.3610   21.7300   14.7270 C.ar      1 017        -0.0603
     34 C34        11.9790   20.6200   13.9360 C.ar      1 017        -0.0686
     35 C35        13.0060   19.8890   13.2880 C.ar      1 017        -0.0687
     36 C36        14.3400   20.3110   13.3750 C.ar      1 017        -0.0686
     37 C37        14.7080   21.3970   14.2010 C.ar      1 017        -0.0603
     38 C38        13.6870   22.1650   14.7970 C.ar      1 017        -0.0408
     39 H1         20.6249   29.5128   13.6888 H         1 017         0.1719
     40 H2         22.0910   28.9301   14.5217 H         1 017         0.1719
     41 H3         18.6199   28.2084   13.6158 H         1 017         0.0515
     42 H4         17.4010   26.1151   14.3175 H         1 017         0.0602
     43 H5         21.0129   24.7592   16.2766 H         1 017         0.0602
     44 H6         22.2198   26.8789   15.6216 H         1 017         0.0515
     45 H7         18.7503   25.5234   18.7033 H         1 017         0.0480
     46 H8         19.7223   24.0756   18.2723 H         1 017         0.0480
     47 H9         17.4265   24.1769   20.3614 H         1 017         0.0311
     48 H10        18.0294   21.7938   20.7316 H         1 017         0.0233
     49 H11        19.2485   21.8857   19.4156 H         1 017         0.0233
     50 H12        17.5001   22.0378   19.0326 H         1 017         0.0233
     51 H13        19.6122   25.2072   21.0155 H         1 017         0.0233
     52 H14        20.4847   23.7499   20.4310 H         1 017         0.0233
     53 H15        19.4021   23.6357   21.8598 H         1 017         0.0233
     54 H16        16.2536   25.2909   16.5234 H         1 017         0.0504
     55 H17        16.5662   25.7438   18.2333 H         1 017         0.0504
     56 H18        15.5932   23.4979   18.9174 H         1 017         0.0634
     57 H19        13.8718   25.2840   17.5331 H         1 017         0.2100
     58 H20        15.8058   22.3450   16.6603 H         1 017         0.0604
     59 H21        13.0917   22.2632   17.9249 H         1 017         0.1873
     60 H22        14.4541   18.2033   18.7260 H         1 017         0.0675
     61 H23        13.2757   19.0006   21.0686 H         1 017         0.0590
     62 H24        13.1216   17.2663   20.6269 H         1 017         0.0590
     63 H25        10.6536   17.1063   18.8948 H         1 017         0.0913
     64 H26        11.3675   20.4633   17.4100 H         1 017         0.0561
     65 H27        10.1919   19.7080   16.2812 H         1 017         0.0561
     66 H28        12.7980   18.9478   16.1814 H         1 017         0.0293
     67 H29        11.5245   17.6859   16.0696 H         1 017         0.0293
     68 H30        12.6136   16.8979   17.9511 H         1 017         0.0380
     69 H31        14.7037   24.0399   15.1486 H         1 017         0.0449
     70 H32        13.1654   23.8436   16.0551 H         1 017         0.0449
     71 H33        11.6031   22.2577   15.2947 H         1 017         0.0557
     72 H34        10.9375   20.3389   13.8296 H         1 017         0.0599
     73 H35        12.7584   18.9984   12.7218 H         1 017         0.0559
     74 H36        15.1011   19.7963   12.7997 H         1 017         0.0599
     75 H37        15.7518   21.6341   14.3724 H         1 017         0.0557
@<TRIPOS>BOND
     1    2    1 1  
     2    3    2 ar 
     3    7    2 ar 
     4    4    3 ar 
     5    5    4 ar 
     6    5    6 ar 
     7    8    5 1  
     8    6    7 ar 
     9    8    9 2  
    10    8   10 2  
    11   11    8 am 
    12   11   12 1  
    13   16   11 1  
    14   12   13 1  
    15   13   14 1  
    16   13   15 1  
    17   17   16 1  
    18   17   18 1  
    19   19   17 1  
    20   19   20 1  
    21   32   19 1  
    22   20   21 am 
    23   21   22 2  
    24   21   23 1  
    25   23   24 1  
    26   24   25 1  
    27   24   31 1  
    28   25   26 1  
    29   27   26 1  
    30   27   28 1  
    31   31   27 1  
    32   29   28 1  
    33   30   29 1  
    34   31   30 1  
    35   38   32 1  
    36   33   34 ar 
    37   33   38 ar 
    38   34   35 ar 
    39   35   36 ar 
    40   36   37 ar 
    41   37   38 ar 
    42    1   39 1  
    43    1   40 1  
    44    3   41 1  
    45    4   42 1  
    46    6   43 1  
    47    7   44 1  
    48   12   45 1  
    49   12   46 1  
    50   13   47 1  
    51   14   48 1  
    52   14   49 1  
    53   14   50 1  
    54   15   51 1  
    55   15   52 1  
    56   15   53 1  
    57   16   54 1  
    58   16   55 1  
    59   17   56 1  
    60   18   57 1  
    61   19   58 1  
    62   20   59 1  
    63   24   60 1  
    64   25   61 1  
    65   25   62 1  
    66   27   63 1  
    67   29   64 1  
    68   29   65 1  
    69   30   66 1  
    70   30   67 1  
    71   31   68 1  
    72   32   69 1  
    73   32   70 1  
    74   33   71 1  
    75   34   72 1  
    76   35   73 1  
    77   36   74 1  
    78   37   75 1  
@<TRIPOS>SUBSTRUCTURE
     1 017         1

