### 
### Created by X-TOOL on Fri Sep 26 17:34:55 2014
### 

@<TRIPOS>MOLECULE
3s56_ligand
  100   104     1     0     0
SMALL
GAST_HUCK


@<TRIPOS>ATOM
      1 C           5.9410    7.4990   41.2560 C.2       1 ROC         0.2293
      2 O           5.9960    6.3410   41.5470 O.2       1 ROC        -0.3762
      3 N1          6.9990    9.5440   40.7250 N.ar      1 ROC        -0.2737
      4 C2          7.1880    8.2990   41.1580 C.ar      1 ROC         0.1219
      5 C3          8.4550    7.8340   41.5270 C.ar      1 ROC        -0.0136
      6 C4          9.5130    8.7640   41.4070 C.ar      1 ROC        -0.0314
      7 C5         10.3130   11.0140   40.7460 C.ar      1 ROC        -0.0444
      8 C6         10.0010   12.2950   40.2500 C.ar      1 ROC        -0.0546
      9 C7          8.6970   12.6290   39.9080 C.ar      1 ROC        -0.0545
     10 C8          7.6890   11.6870   40.0600 C.ar      1 ROC        -0.0370
     11 C4A         9.2780   10.0650   40.9250 C.ar      1 ROC         0.0097
     12 C8A         7.9780   10.4370   40.5970 C.ar      1 ROC         0.0527
     13 N           4.7650    8.1640   41.0830 N.am      1 ROC        -0.2600
     14 CA          3.5260    7.3740   41.1560 C.3       1 ROC         0.1473
     15 C1          2.6910    7.7850   39.8990 C.2       1 ROC         0.2045
     16 O1          2.0820    8.8920   39.8120 O.2       1 ROC        -0.3943
     17 CB          2.7660    7.8540   42.3470 C.3       1 ROC         0.0773
     18 CG          3.5820    7.5720   43.6370 C.2       1 ROC         0.1780
     19 OD1         4.2090    8.5190   44.1900 O.2       1 ROC        -0.3970
     20 ND2         3.5860    6.3680   44.0280 N.am      1 ROC        -0.3007
     21 C9          0.9560    5.8740   37.6430 C.3       1 ROC         0.1194
     22 O2          1.4750    4.5270   37.4700 O.3       1 ROC        -0.3840
     23 CA1         1.9870    6.9990   37.6630 C.3       1 ROC         0.0823
     24 N2          2.7210    6.8610   38.9580 N.am      1 ROC        -0.2772
     25 CB1         2.9990    6.7490   36.5280 C.3       1 ROC         0.0066
     26 CG1         4.2480    7.5510   36.7820 C.ar      1 ROC        -0.0408
     27 CD1         4.2930    8.9070   36.5500 C.ar      1 ROC        -0.0603
     28 CD2         5.4010    6.8550   37.1920 C.ar      1 ROC        -0.0603
     29 CE1         5.4820    9.6440   36.8670 C.ar      1 ROC        -0.0686
     30 CE2         6.5410    7.5420   37.4580 C.ar      1 ROC        -0.0686
     31 CZ          6.6300    8.9470   37.2380 C.ar      1 ROC        -0.0687
     32 N11        -1.0890    7.0120   36.8900 N.4       1 ROC         0.2562
     33 CM         -0.0480    6.0370   36.5160 C.3       1 ROC        -0.0008
     34 C21        -1.6970    7.7940   35.8130 C.3       1 ROC         0.0688
     35 CC         -0.6760    8.4060   34.9250 C.2       1 ROC         0.2251
     36 O3          0.2610    9.1230   35.3690 O.2       1 ROC        -0.3909
     37 C31        -2.5590    8.9100   36.4270 C.3       1 ROC         0.0113
     38 C3A        -3.7000    8.3100   37.3380 C.3       1 ROC        -0.0261
     39 C41        -4.6520    9.3580   37.9330 C.3       1 ROC        -0.0494
     40 C51        -3.8790   10.3080   38.8740 C.3       1 ROC        -0.0528
     41 C61        -3.1770    9.4130   39.9410 C.3       1 ROC        -0.0526
     42 C71        -2.2860    8.2630   39.3320 C.3       1 ROC        -0.0451
     43 C7A        -3.1500    7.3570   38.3480 C.3       1 ROC         0.0024
     44 C81        -2.2210    6.3460   37.6800 C.3       1 ROC        -0.0266
     45 N3         -0.9350    8.1440   33.6290 N.am      1 ROC        -0.2771
     46 CD         -0.0900    8.6800   32.5650 C.3       1 ROC         0.0448
     47 C11        -0.6800    8.1950   31.1560 C.3       1 ROC        -0.0396
     48 C22         1.2960    8.1610   32.6720 C.3       1 ROC        -0.0396
     49 C32        -0.0360   10.2170   32.6380 C.3       1 ROC        -0.0396
     50 H1          8.6155    6.8228   41.8830 H         1 ROC         0.0729
     51 H2         10.5177    8.4713   41.6898 H         1 ROC         0.0774
     52 H3         11.3377   10.7569   40.9887 H         1 ROC         0.0657
     53 H4         10.7893   13.0300   40.1337 H         1 ROC         0.0652
     54 H5          8.4684   13.6172   39.5255 H         1 ROC         0.0657
     55 H6          6.6752   11.9259   39.7598 H         1 ROC         0.0653
     56 H7          4.7446    9.1493   40.9132 H         1 ROC         0.1882
     57 H8          3.7211    6.2922   41.1965 H         1 ROC         0.0826
     58 H9          1.8018    7.3275   42.4020 H         1 ROC         0.0551
     59 H10         2.5885    8.9357   42.2559 H         1 ROC         0.0551
     60 H11         4.0908    6.1117   44.8523 H         1 ROC         0.1814
     61 H12         3.0843    5.6732   43.5126 H         1 ROC         0.1814
     62 H13         0.4247    5.9158   38.6053 H         1 ROC         0.0672
     63 H14         0.7541    3.9084   37.4721 H         1 ROC         0.2101
     64 H15         1.5121    7.9864   37.5654 H         1 ROC         0.0606
     65 H16         3.2578    6.0326   39.1178 H         1 ROC         0.1857
     66 H17         2.5563    7.0543   35.5684 H         1 ROC         0.0449
     67 H18         3.2517    5.6791   36.4914 H         1 ROC         0.0449
     68 H19         3.4333    9.4159   36.1294 H         1 ROC         0.0557
     69 H20         5.3785    5.7761   37.2947 H         1 ROC         0.0557
     70 H21         5.4874   10.7269   36.8187 H         1 ROC         0.0599
     71 H22         7.4023    7.0104   37.8462 H         1 ROC         0.0599
     72 H23         7.5748    9.4648   37.3572 H         1 ROC         0.0559
     73 H24        -0.6371    7.6731   37.5023 H         1 ROC         0.2057
     74 H25        -0.5199    5.0654   36.3079 H         1 ROC         0.0841
     75 H26         0.4735    6.3919   35.6148 H         1 ROC         0.0841
     76 H27        -2.3356    7.1300   35.2119 H         1 ROC         0.1100
     77 H28        -3.0171    9.4969   35.6173 H         1 ROC         0.0348
     78 H29        -1.9188    9.5641   37.0371 H         1 ROC         0.0348
     79 H30        -4.3249    7.7031   36.6663 H         1 ROC         0.0309
     80 H31        -5.4437    8.8484   38.5017 H         1 ROC         0.0268
     81 H32        -5.1041    9.9424   37.1181 H         1 ROC         0.0268
     82 H33        -4.5750   11.0052   39.3634 H         1 ROC         0.0265
     83 H34        -3.1293   10.8773   38.3049 H         1 ROC         0.0265
     84 H35        -3.9530    8.9523   40.5699 H         1 ROC         0.0265
     85 H36        -2.5351   10.0550   40.5620 H         1 ROC         0.0265
     86 H37        -1.8917    7.6390   40.1475 H         1 ROC         0.0270
     87 H38        -1.4494    8.7089   38.7741 H         1 ROC         0.0270
     88 H39        -3.9585    6.8377   38.8834 H         1 ROC         0.0355
     89 H40        -1.7781    5.7077   38.4587 H         1 ROC         0.0818
     90 H41        -2.8133    5.7262   36.9908 H         1 ROC         0.0818
     91 H42        -1.7201    7.5721   33.3912 H         1 ROC         0.1859
     92 H43        -0.0552    8.5899   30.3414 H         1 ROC         0.0254
     93 H44        -1.7090    8.5666   31.0419 H         1 ROC         0.0254
     94 H45        -0.6807    7.0957   31.1176 H         1 ROC         0.0254
     95 H46         1.9082    8.5804   31.8600 H         1 ROC         0.0254
     96 H47         1.2839    7.0639   32.5929 H         1 ROC         0.0254
     97 H48         1.7234    8.4540   33.6423 H         1 ROC         0.0254
     98 H49         0.6042   10.6002   31.8297 H         1 ROC         0.0254
     99 H50         0.3777   10.5236   33.6100 H         1 ROC         0.0254
    100 H51        -1.0513   10.6253   32.5263 H         1 ROC         0.0254
@<TRIPOS>BOND
     1    1    2 2  
     2    1    4 1  
     3   13    1 am 
     4    4    3 ar 
     5    3   12 ar 
     6    4    5 ar 
     7    5    6 ar 
     8    6   11 ar 
     9    7    8 ar 
    10   11    7 ar 
    11    9    8 ar 
    12   10    9 ar 
    13   12   10 ar 
    14   12   11 ar 
    15   14   13 1  
    16   15   14 1  
    17   14   17 1  
    18   15   16 2  
    19   24   15 am 
    20   17   18 1  
    21   18   19 2  
    22   18   20 am 
    23   21   22 1  
    24   23   21 1  
    25   21   33 1  
    26   23   24 1  
    27   23   25 1  
    28   25   26 1  
    29   26   27 ar 
    30   26   28 ar 
    31   27   29 ar 
    32   28   30 ar 
    33   29   31 ar 
    34   30   31 ar 
    35   33   32 1  
    36   32   34 1  
    37   32   44 1  
    38   34   35 1  
    39   34   37 1  
    40   35   36 2  
    41   35   45 am 
    42   37   38 1  
    43   38   39 1  
    44   38   43 1  
    45   39   40 1  
    46   40   41 1  
    47   41   42 1  
    48   42   43 1  
    49   43   44 1  
    50   45   46 1  
    51   46   47 1  
    52   46   48 1  
    53   46   49 1  
    54    5   50 1  
    55    6   51 1  
    56    7   52 1  
    57    8   53 1  
    58    9   54 1  
    59   10   55 1  
    60   13   56 1  
    61   14   57 1  
    62   17   58 1  
    63   17   59 1  
    64   20   60 1  
    65   20   61 1  
    66   21   62 1  
    67   22   63 1  
    68   23   64 1  
    69   24   65 1  
    70   25   66 1  
    71   25   67 1  
    72   27   68 1  
    73   28   69 1  
    74   29   70 1  
    75   30   71 1  
    76   31   72 1  
    77   32   73 1  
    78   33   74 1  
    79   33   75 1  
    80   34   76 1  
    81   37   77 1  
    82   37   78 1  
    83   38   79 1  
    84   39   80 1  
    85   39   81 1  
    86   40   82 1  
    87   40   83 1  
    88   41   84 1  
    89   41   85 1  
    90   42   86 1  
    91   42   87 1  
    92   43   88 1  
    93   44   89 1  
    94   44   90 1  
    95   45   91 1  
    96   47   92 1  
    97   47   93 1  
    98   47   94 1  
    99   48   95 1  
   100   48   96 1  
   101   48   97 1  
   102   49   98 1  
   103   49   99 1  
   104   49  100 1  
@<TRIPOS>SUBSTRUCTURE
     1 ROC         1

