### 
### Created by X-TOOL on Mon Sep 10 21:13:10 2018
### 

@<TRIPOS>MOLECULE
3s5y_ligand
   25    25     1     0     0
SMALL
GAST_HUCK


@<TRIPOS>ATOM
      1 C1         39.1650   16.0310   31.3510 C.3       1 DGJ        -0.0040
      2 C2         39.9530   16.1960   30.0620 C.3       1 DGJ         0.1231
      3 O2         41.0940   17.0270   30.2770 O.3       1 DGJ        -0.3838
      4 C3         39.0140   16.7460   28.9920 C.3       1 DGJ         0.1171
      5 O3         39.7440   17.0680   27.7990 O.3       1 DGJ        -0.3862
      6 C4         37.9450   15.7000   28.7120 C.3       1 DGJ         0.1280
      7 O4         38.5840   14.5650   28.1190 O.3       1 DGJ        -0.3835
      8 C5         37.1990   15.2780   29.9840 C.3       1 DGJ         0.0301
      9 N5         38.1340   15.0600   31.0690 N.4       1 DGJ         0.2346
     10 C6         36.3920   14.0070   29.7670 C.3       1 DGJ         0.0893
     11 O6         35.4890   13.8040   30.8510 O.3       1 DGJ        -0.3894
     12 H1         38.7152   16.9896   31.6488 H         1 DGJ         0.0840
     13 H2         39.8212   15.6681   32.1558 H         1 DGJ         0.0840
     14 H3         40.3099   15.2082   29.7352 H         1 DGJ         0.0674
     15 H4         40.8095   17.8822   30.5772 H         1 DGJ         0.2101
     16 H5         38.5329   17.6609   29.3681 H         1 DGJ         0.0649
     17 H6         40.4021   17.7233   27.9989 H         1 DGJ         0.2100
     18 H7         37.2153   16.1182   28.0031 H         1 DGJ         0.0678
     19 H8         37.9339   13.8972   27.9350 H         1 DGJ         0.2102
     20 H9         36.5098   16.0878   30.2654 H         1 DGJ         0.0900
     21 H10        37.5853   14.9682   31.9096 H         1 DGJ         0.2019
     22 H11        38.6023   14.1884   30.8765 H         1 DGJ         0.2019
     23 H12        37.0771   13.1490   29.6998 H         1 DGJ         0.0614
     24 H13        35.8213   14.0948   28.8308 H         1 DGJ         0.0614
     25 H14        34.8951   14.5431   30.9096 H         1 DGJ         0.2097
@<TRIPOS>BOND
     1    1    2 1  
     2    1    9 1  
     3    2    3 1  
     4    2    4 1  
     5    4    5 1  
     6    4    6 1  
     7    6    7 1  
     8    6    8 1  
     9    8    9 1  
    10    8   10 1  
    11   10   11 1  
    12    1   12 1  
    13    1   13 1  
    14    2   14 1  
    15    3   15 1  
    16    4   16 1  
    17    5   17 1  
    18    6   18 1  
    19    7   19 1  
    20    8   20 1  
    21    9   21 1  
    22    9   22 1  
    23   10   23 1  
    24   10   24 1  
    25   11   25 1  
@<TRIPOS>SUBSTRUCTURE
     1 DGJ         1

