### 
### Created by X-TOOL on Mon Sep 10 21:13:09 2018
### 

@<TRIPOS>MOLECULE
3s68_ligand
   31    32     1     0     0
SMALL
GAST_HUCK


@<TRIPOS>ATOM
      1 O13       -13.3170   35.2330   60.2030 O.2       1 TCW        -0.3242
      2 C12       -13.5590   36.0750   61.0640 C.2       1 TCW         0.2295
      3 C4        -12.3980   36.6530   61.8190 C.ar      1 TCW         0.1691
      4 C3        -11.2040   35.8810   61.9370 C.ar      1 TCW         0.1553
      5 C2        -10.0940   36.4350   62.6250 C.ar      1 TCW         0.3812
      6 O7         -8.9270   35.7180   62.7920 O.3       1 TCW        -0.1819
      7 C5        -12.4720   37.9530   62.3310 C.ar      1 TCW         0.1157
      8 C6        -11.3610   38.4980   62.9780 C.ar      1 TCW         0.2832
      9 N9        -11.4610   39.8150   63.4940 N.2       1 TCW        -0.1848
     10 O11       -12.4810   40.4540   63.2540 O.2       1 TCW        -0.4884
     11 O10       -10.5760   40.3390   64.1970 O.2       1 TCW        -0.4884
     12 C1        -10.1770   37.7240   63.1130 C.ar      1 TCW         0.4073
     13 O8         -9.0720   38.2390   63.7360 O.3       1 TCW        -0.1743
     14 C14       -14.9510   36.5700   61.2700 C.ar      1 TCW         0.0427
     15 C19       -15.7120   36.8580   60.1250 C.ar      1 TCW        -0.0487
     16 C18       -17.0150   37.3330   60.2810 C.ar      1 TCW        -0.0545
     17 C17       -17.5400   37.5300   61.5650 C.ar      1 TCW        -0.0411
     18 C20       -18.9460   38.0550   61.7210 C.3       1 TCW        -0.0288
     19 C16       -16.7690   37.2590   62.7070 C.ar      1 TCW        -0.0545
     20 C15       -15.4610   36.7790   62.5580 C.ar      1 TCW        -0.0487
     21 H1        -11.1460   34.8872   61.5079 H         1 TCW         0.1075
     22 H2         -8.2991   36.2446   63.2725 H         1 TCW         0.3502
     23 H3        -13.3828   38.5314   62.2265 H         1 TCW         0.1567
     24 H4         -8.3786   37.5897   63.7363 H         1 TCW         0.3547
     25 H5        -15.2937   36.7135   59.1355 H         1 TCW         0.0653
     26 H6        -17.6210   37.5496   59.4087 H         1 TCW         0.0570
     27 H7        -19.1869   38.1458   62.7904 H         1 TCW         0.0401
     28 H8        -19.6522   37.3595   61.2439 H         1 TCW         0.0401
     29 H9        -19.0239   39.0424   61.2425 H         1 TCW         0.0401
     30 H10       -17.1825   37.4199   63.6960 H         1 TCW         0.0570
     31 H11       -14.8506   36.5717   63.4295 H         1 TCW         0.0653
@<TRIPOS>BOND
     1    1    2 2  
     2    2    3 1  
     3    2   14 1  
     4    3    4 ar 
     5    3    7 ar 
     6    4    5 ar 
     7    5    6 1  
     8    5   12 ar 
     9    7    8 ar 
    10    8    9 1  
    11    8   12 ar 
    12    9   10 2  
    13    9   11 2  
    14   12   13 1  
    15   14   15 ar 
    16   14   20 ar 
    17   15   16 ar 
    18   16   17 ar 
    19   17   18 1  
    20   17   19 ar 
    21   19   20 ar 
    22    4   21 1  
    23    6   22 1  
    24    7   23 1  
    25   13   24 1  
    26   15   25 1  
    27   16   26 1  
    28   18   27 1  
    29   18   28 1  
    30   18   29 1  
    31   19   30 1  
    32   20   31 1  
@<TRIPOS>SUBSTRUCTURE
     1 TCW         1

