### 
### Created by X-TOOL on Mon Sep 10 21:13:11 2018
### 

@<TRIPOS>MOLECULE
3s6t_ligand
   44    45     1     0     0
SMALL
GAST_HUCK


@<TRIPOS>ATOM
      1 CAH        40.5970   -5.3000    9.5820 C.3       1 OAN         0.0258
      2 CAG        40.5330   -4.0850   10.5060 C.2       1 OAN         0.1755
      3 OAN        40.4970   -4.2380   11.7260 O.2       1 OAN        -0.3972
      4 NAI        40.5070   -2.8900    9.8720 N.am      1 OAN        -0.2641
      5 CAB        40.4950   -1.5640   10.5380 C.3       1 OAN         0.1483
      6 CAC        41.9560   -1.2370   10.9730 C.3       1 OAN         0.1223
      7 OAJ        42.6720   -0.5540    9.9190 O.3       1 OAN        -0.3842
      8 CAD        41.9850   -0.4150   12.2420 C.3       1 OAN         0.1187
      9 OAK        43.3470   -0.1930   12.5980 O.3       1 OAN        -0.3859
     10 CAE        41.2650   -1.2310   13.3150 C.3       1 OAN         0.1375
     11 CAF        41.2730   -0.5150   14.6680 C.3       1 OAN         0.0780
     12 OAM        40.6540   -1.3530   15.6530 O.3       1 OAN        -0.3919
     13 OAL        39.8820   -1.4520   12.9270 O.3       1 OAN        -0.2871
     14 CAA        39.5310   -1.4570   11.5940 C.2       1 OAN         0.1893
     15 NAY        38.2480   -1.3500   11.2680 N.2       1 OAN        -0.1541
     16 OAQ        37.2750   -1.2090   12.4880 O.3       1 OAN        -0.1506
     17 CAP        35.9580   -1.0590   12.1510 C.2       1 OAN         0.3788
     18 OAR        35.6490   -0.5530   11.0690 O.2       1 OAN        -0.3643
     19 NAO        35.0210   -1.4590   13.0430 N.am      1 OAN        -0.2057
     20 CAS        33.7020   -1.3900   12.7840 C.ar      1 OAN         0.0683
     21 CAT        33.0510   -0.1780   12.5160 C.ar      1 OAN        -0.0414
     22 CAU        31.6760   -0.1620   12.2630 C.ar      1 OAN        -0.0756
     23 CAV        30.9430   -1.3520   12.2870 C.ar      1 OAN        -0.0773
     24 CAW        31.5820   -2.5640   12.5630 C.ar      1 OAN        -0.0756
     25 CAX        32.9580   -2.5770   12.8130 C.ar      1 OAN        -0.0414
     26 H1         40.6222   -4.9635    8.5350 H         1 OAN         0.0467
     27 H2         39.7101   -5.9304    9.7432 H         1 OAN         0.0467
     28 H3         41.5047   -5.8809    9.8024 H         1 OAN         0.0467
     29 H4         40.4949   -2.9013    8.8721 H         1 OAN         0.1888
     30 H5         40.2044   -0.8194    9.7823 H         1 OAN         0.0821
     31 H6         42.4691   -2.1892   11.1729 H         1 OAN         0.0672
     32 H7         42.7007   -1.1072    9.1472 H         1 OAN         0.2103
     33 H8         41.4755    0.5484   12.0932 H         1 OAN         0.0653
     34 H9         43.3848    0.3230   13.3948 H         1 OAN         0.2100
     35 H10        41.7733   -2.2008   13.4197 H         1 OAN         0.0708
     36 H11        40.7153    0.4296   14.5868 H         1 OAN         0.0588
     37 H12        42.3107   -0.3038   14.9655 H         1 OAN         0.0588
     38 H13        40.6587   -0.9091   16.4930 H         1 OAN         0.2095
     39 H14        35.3200   -1.8189   13.9268 H         1 OAN         0.2276
     40 H15        33.6143    0.7481   12.5049 H         1 OAN         0.0501
     41 H16        31.1770    0.7759   12.0476 H         1 OAN         0.0577
     42 H17        29.8770   -1.3348   12.0912 H         1 OAN         0.0487
     43 H18        31.0150   -3.4876   12.5832 H         1 OAN         0.0577
     44 H19        33.4543   -3.5156   13.0316 H         1 OAN         0.0501
@<TRIPOS>BOND
     1    1    2 1  
     2    2    3 2  
     3    2    4 am 
     4    4    5 1  
     5    5    6 1  
     6    5   14 1  
     7    6    7 1  
     8    6    8 1  
     9    8    9 1  
    10    8   10 1  
    11   10   11 1  
    12   10   13 1  
    13   11   12 1  
    14   13   14 1  
    15   14   15 2  
    16   15   16 1  
    17   16   17 1  
    18   17   18 2  
    19   17   19 am 
    20   19   20 1  
    21   20   21 ar 
    22   20   25 ar 
    23   21   22 ar 
    24   22   23 ar 
    25   23   24 ar 
    26   24   25 ar 
    27    1   26 1  
    28    1   27 1  
    29    1   28 1  
    30    4   29 1  
    31    5   30 1  
    32    6   31 1  
    33    7   32 1  
    34    8   33 1  
    35    9   34 1  
    36   10   35 1  
    37   11   36 1  
    38   11   37 1  
    39   12   38 1  
    40   19   39 1  
    41   21   40 1  
    42   22   41 1  
    43   23   42 1  
    44   24   43 1  
    45   25   44 1  
@<TRIPOS>SUBSTRUCTURE
     1 OAN         1

