### 
### Created by X-TOOL on Mon Sep 10 21:13:05 2018
### 

@<TRIPOS>MOLECULE
3s71_ligand
   20    21     1     0     0
SMALL
GAST_HUCK


@<TRIPOS>ATOM
      1 N          15.6350   -0.3340   16.1840 N.am      1 EVD        -0.2574
      2 O          17.0920    2.5040   16.0140 O.3       1 EVD        -0.2287
      3 S          15.0580    0.9750   16.8850 S.o2      1 EVD         0.0996
      4 O1         15.5660    1.0990   18.2330 O.2       1 EVD        -0.1464
      5 C2         15.7330    2.3040   16.0530 C.2       1 EVD         0.2518
      6 O2         13.6240    1.1200   16.6660 O.2       1 EVD        -0.1464
      7 C3         15.0810    3.3480   15.3130 C.2       1 EVD        -0.0190
      8 C4         16.2030    5.2890   13.9860 C.ar      1 EVD        -0.0712
      9 C5         17.4500    5.8330   13.7220 C.ar      1 EVD        -0.0767
     10 C6         18.6630    5.2470   14.1510 C.ar      1 EVD        -0.0734
     11 C7         18.6130    4.1050   14.9540 C.ar      1 EVD        -0.0310
     12 C8         17.3660    3.6270   15.2510 C.ar      1 EVD         0.1269
     13 C9         16.1500    4.1620   14.8160 C.ar      1 EVD        -0.0094
     14 H1         15.3723   -0.5554   15.2449 H         1 EVD         0.1637
     15 H2         16.2599   -0.9343   16.6831 H         1 EVD         0.1637
     16 H3         14.0117    3.4894   15.1630 H         1 EVD         0.0361
     17 H4         15.3016    5.7200   13.5655 H         1 EVD         0.0546
     18 H5         17.4979    6.7567   13.1567 H         1 EVD         0.0527
     19 H6         19.6154    5.6764   13.8618 H         1 EVD         0.0542
     20 H7         19.5124    3.6242   15.3214 H         1 EVD         0.0562
@<TRIPOS>BOND
     1    3    1 am 
     2    5    2 1  
     3    2   12 1  
     4    3    4 2  
     5    5    3 1  
     6    3    6 2  
     7    7    5 2  
     8   13    7 1  
     9    8    9 ar 
    10    8   13 ar 
    11    9   10 ar 
    12   10   11 ar 
    13   11   12 ar 
    14   12   13 ar 
    15    1   14 1  
    16    1   15 1  
    17    7   16 1  
    18    8   17 1  
    19    9   18 1  
    20   10   19 1  
    21   11   20 1  
@<TRIPOS>SUBSTRUCTURE
     1 EVD         1

