### 
### Created by X-TOOL on Mon Sep 10 21:13:05 2018
### 

@<TRIPOS>MOLECULE
3s72_ligand
   20    21     1     0     0
SMALL
GAST_HUCK


@<TRIPOS>ATOM
      1 N          15.5820   -0.3750   16.2530 N.am      1 EVE        -0.2539
      2 S          15.0500    0.9700   16.8670 S.o2      1 EVE         0.1149
      3 N1         15.0080    3.2680   15.3490 N.pl3     1 EVE        -0.2279
      4 O1         15.5490    1.1130   18.1900 O.2       1 EVE        -0.1422
      5 C2         15.7310    2.2650   15.9790 C.2       1 EVE         0.2812
      6 N2         17.0990    2.4290   15.8280 N.2       1 EVE        -0.2819
      7 O2         13.6300    1.1000   16.6920 O.2       1 EVE        -0.1422
      8 C4         15.8260    5.2200   14.0690 C.ar      1 EVE        -0.0391
      9 C5         17.0480    5.7890   13.6630 C.ar      1 EVE        -0.0742
     10 C6         18.3300    5.3130   13.9600 C.ar      1 EVE        -0.0759
     11 C7         18.4910    4.1920   14.7530 C.ar      1 EVE        -0.0610
     12 C8         17.2520    3.5660   15.0970 C.ar      1 EVE         0.0353
     13 C9         15.9790    4.0500   14.8240 C.ar      1 EVE         0.0851
     14 H1         15.3262   -0.6353   15.3220 H         1 EVE         0.1641
     15 H2         16.1764   -0.9707   16.7933 H         1 EVE         0.1641
     16 H3         13.9864    3.3873   15.2946 H         1 EVE         0.2361
     17 H4         14.8604    5.6459   13.8214 H         1 EVE         0.0550
     18 H5         16.9900    6.6872   13.0589 H         1 EVE         0.0545
     19 H6         19.2005    5.8254   13.5666 H         1 EVE         0.0524
     20 H7         19.4571    3.8252   15.0804 H         1 EVE         0.0556
@<TRIPOS>BOND
     1    2    1 am 
     2    2    4 2  
     3    5    2 1  
     4    2    7 2  
     5    3    5 1  
     6   13    3 1  
     7    5    6 2  
     8    6   12 1  
     9    8    9 ar 
    10    8   13 ar 
    11    9   10 ar 
    12   10   11 ar 
    13   11   12 ar 
    14   12   13 ar 
    15    1   14 1  
    16    1   15 1  
    17    3   16 1  
    18    8   17 1  
    19    9   18 1  
    20   10   19 1  
    21   11   20 1  
@<TRIPOS>SUBSTRUCTURE
     1 EVE         1

