### 
### Created by X-TOOL on Mon Sep 10 21:13:06 2018
### 

@<TRIPOS>MOLECULE
3s73_ligand
   19    20     1     0     0
SMALL
GAST_HUCK


@<TRIPOS>ATOM
      1 N          16.0280   -0.4580   16.3100 N.am      1 EVF        -0.2543
      2 S          15.5760    0.8630   16.9590 S.o2      1 EVF         0.1060
      3 O1         16.0890    0.8810   18.3500 O.2       1 EVF        -0.1426
      4 S1         15.3400    3.3620   15.2620 S.3       1 EVF         0.0320
      5 C2         16.2220    2.1440   16.1020 C.2       1 EVF         0.2545
      6 O2         14.0980    1.0710   16.7710 O.2       1 EVF        -0.1426
      7 N3         17.5520    2.3610   15.9890 N.2       1 EVF        -0.2691
      8 C4         19.2270    3.9770   15.0040 C.ar      1 EVF        -0.0534
      9 C5         19.2970    5.1220   14.2150 C.ar      1 EVF        -0.0700
     10 C6         18.1630    5.8110   13.7210 C.ar      1 EVF        -0.0696
     11 C7         16.8830    5.2480   13.9760 C.ar      1 EVF        -0.0471
     12 C8         16.7850    4.1120   14.7660 C.ar      1 EVF         0.0597
     13 C9         17.8960    3.4650   15.2820 C.ar      1 EVF         0.0393
     14 H1         15.7790   -0.6607   15.3629 H         1 EVF         0.1641
     15 H2         16.5706   -1.1133   16.8355 H         1 EVF         0.1641
     16 H3         20.1173    3.4937   15.3900 H         1 EVF         0.0583
     17 H4         20.2780    5.5090   13.9640 H         1 EVF         0.0560
     18 H5         18.2675    6.7368   13.1669 H         1 EVF         0.0573
     19 H6         15.9921    5.7019   13.5572 H         1 EVF         0.0572
@<TRIPOS>BOND
     1    2    1 am 
     2    2    3 2  
     3    5    2 1  
     4    2    6 2  
     5    5    4 1  
     6    4   12 1  
     7    7    5 2  
     8   13    7 1  
     9    8    9 ar 
    10    8   13 ar 
    11    9   10 ar 
    12   10   11 ar 
    13   11   12 ar 
    14   12   13 ar 
    15    1   14 1  
    16    1   15 1  
    17    8   16 1  
    18    9   17 1  
    19   10   18 1  
    20   11   19 1  
@<TRIPOS>SUBSTRUCTURE
     1 EVF         1

