### 
### Created by X-TOOL on Mon Sep 10 21:13:05 2018
### 

@<TRIPOS>MOLECULE
3s74_ligand
   20    21     1     0     0
SMALL
GAST_HUCK


@<TRIPOS>ATOM
      1 N          32.5240   -0.2140   15.5730 N.am      1 03T        -0.2594
      2 S          31.6050   -0.4980   14.2630 S.o2      1 03T         0.0784
      3 O1         30.9660    0.7390   14.0110 O.2       1 03T        -0.1486
      4 S1         33.1720    0.3110   11.7830 S.3       1 03T        -0.0091
      5 C2         32.6230   -0.8760   12.9220 C.2       1 03T         0.1658
      6 O2         30.7180   -1.5830   14.5260 O.2       1 03T        -0.1486
      7 C3         33.2180   -2.1260   12.5330 C.2       1 03T        -0.0336
      8 C4         34.8370   -2.8760   10.4940 C.ar      1 03T        -0.0666
      9 C5         35.5210   -2.4450    9.3540 C.ar      1 03T        -0.0718
     10 C6         35.4810   -1.1170    8.9400 C.ar      1 03T        -0.0705
     11 C7         34.7410   -0.2330    9.6900 C.ar      1 03T        -0.0498
     12 C8         34.0460   -0.6910   10.8010 C.ar      1 03T         0.0396
     13 C9         34.0560   -1.9770   11.3010 C.ar      1 03T        -0.0235
     14 H          32.5276    0.7111   16.0026 H         1 03T         0.1636
     15 H          33.0971   -0.9609   15.9656 H         1 03T         0.1636
     16 H          33.0766   -3.0650   13.0682 H         1 03T         0.0443
     17 H          34.8972   -3.9259   10.7805 H         1 03T         0.0570
     18 H          36.0992   -3.1657    8.7758 H         1 03T         0.0556
     19 H          36.0185   -0.7882    8.0506 H         1 03T         0.0566
     20 H          34.7005    0.8206    9.4138 H         1 03T         0.0570
@<TRIPOS>BOND
     1    2    1 am 
     2    2    3 2  
     3    5    2 1  
     4    2    6 2  
     5    5    4 1  
     6    4   12 1  
     7    7    5 2  
     8   13    7 1  
     9    8    9 ar 
    10    8   13 ar 
    11    9   10 ar 
    12   10   11 ar 
    13   11   12 ar 
    14   12   13 ar 
    15    1   14 1  
    16    1   15 1  
    17    7   16 1  
    18    8   17 1  
    19    9   18 1  
    20   10   19 1  
    21   11   20 1  
@<TRIPOS>SUBSTRUCTURE
     1 03T         1

