### 
### Created by X-TOOL on Mon Sep 10 21:13:05 2018
### 

@<TRIPOS>MOLECULE
3s75_ligand
   14    14     1     0     0
SMALL
GAST_HUCK


@<TRIPOS>ATOM
      1 O          17.0670    2.5030   16.0570 O.3       1 EVG        -0.2429
      2 S          15.0520    0.9700   16.9280 S.o2      1 EVG         0.0941
      3 O1         13.5960    1.0410   16.7320 O.2       1 EVG        -0.1485
      4 C2         15.7100    2.3280   16.1050 C.2       1 EVG         0.2435
      5 O2         15.5330    1.0750   18.2480 O.2       1 EVG        -0.1485
      6 C3         15.0260    3.4050   15.4380 C.2       1 EVG        -0.0409
      7 C4         16.0610    4.2190   14.9220 C.2       1 EVG        -0.0667
      8 C5         17.2940    3.6920   15.2910 C.2       1 EVG         0.0792
      9 NH         15.6060   -0.3130   16.2160 N.am      1 EVG        -0.2590
     10 H1         13.9514    3.5586   15.3504 H         1 EVG         0.0347
     11 H2         15.9150    5.1196   14.3274 H         1 EVG         0.0327
     12 H3         18.2670    4.1120   15.0402 H         1 EVG         0.0951
     13 H4         16.5839   -0.5198   16.2480 H         1 EVG         0.1635
     14 H5         14.9814   -0.9243   15.7300 H         1 EVG         0.1635
@<TRIPOS>BOND
     1    4    1 1  
     2    1    8 1  
     3    2    3 2  
     4    2    4 1  
     5    2    5 2  
     6    2    9 am 
     7    4    6 2  
     8    6    7 1  
     9    7    8 2  
    10    6   10 1  
    11    7   11 1  
    12    8   12 1  
    13    9   13 1  
    14    9   14 1  
@<TRIPOS>SUBSTRUCTURE
     1 EVG         1

