### 
### Created by X-TOOL on Mon Sep 10 21:13:05 2018
### 

@<TRIPOS>MOLECULE
3s76_ligand
   14    14     1     0     0
SMALL
GAST_HUCK


@<TRIPOS>ATOM
      1 S          15.0860    0.9930   16.8190 S.o2      1 EVH         0.1087
      2 N1         16.8070    2.4100   15.2290 N.pl3     1 EVH        -0.2440
      3 O1         13.6070    1.0220   16.7830 O.2       1 EVH        -0.1445
      4 C2         15.5410    2.2220   15.7360 C.2       1 EVH         0.2723
      5 O2         15.7150    1.2740   18.0590 O.2       1 EVH        -0.1445
      6 N3         14.7400    3.2040   15.2620 N.2       1 EVH        -0.3062
      7 C4         15.4510    3.9750   14.3880 C.2       1 EVH        -0.0218
      8 C5         16.7520    3.4900   14.3940 C.2       1 EVH         0.0353
      9 NH         15.6610   -0.3330   16.2070 N.am      1 EVH        -0.2558
     10 H1         17.6402    1.8424   15.4398 H         1 EVH         0.2425
     11 H2         15.0712    4.8091   13.7998 H         1 EVH         0.0444
     12 H3         17.5872    3.9009   13.8288 H         1 EVH         0.0859
     13 H4         16.6496   -0.4794   16.1706 H         1 EVH         0.1638
     14 H5         15.0388   -1.0315   15.8535 H         1 EVH         0.1638
@<TRIPOS>BOND
     1    1    3 2  
     2    1    4 1  
     3    1    5 2  
     4    1    9 am 
     5    4    2 1  
     6    2    8 1  
     7    4    6 2  
     8    6    7 1  
     9    7    8 2  
    10    2   10 1  
    11    7   11 1  
    12    8   12 1  
    13    9   13 1  
    14    9   14 1  
@<TRIPOS>SUBSTRUCTURE
     1 EVH         1

