### 
### Created by X-TOOL on Mon Sep 10 21:13:06 2018
### 

@<TRIPOS>MOLECULE
3s77_ligand
   13    13     1     0     0
SMALL
GAST_HUCK


@<TRIPOS>ATOM
      1 S          15.1670    0.9770   16.8070 S.o2      1 EVI         0.1018
      2 O1         13.7410    1.1890   16.7080 O.2       1 EVI        -0.1442
      3 S1         15.1160    3.5770   15.2090 S.3       1 EVI         0.0223
      4 C2         15.9030    2.3060   16.0740 C.2       1 EVI         0.2489
      5 O2         15.5290    0.9760   18.1880 O.2       1 EVI        -0.1442
      6 N3         17.2010    2.4600   16.1220 N.2       1 EVI        -0.2892
      7 C4         17.6380    3.5750   15.4050 C.2       1 EVI        -0.0130
      8 C5         16.6080    4.3490   14.8290 C.2       1 EVI         0.0137
      9 NH         15.8070   -0.3170   16.1930 N.am      1 EVI        -0.2556
     10 H1         18.6918    3.8280   15.2984 H         1 EVI         0.0570
     11 H2         16.7332    5.2639   14.2518 H         1 EVI         0.0746
     12 H3         16.7934   -0.4670   16.2598 H         1 EVI         0.1639
     13 H4         15.2285   -0.9919   15.7348 H         1 EVI         0.1639
@<TRIPOS>BOND
     1    1    2 2  
     2    1    4 1  
     3    1    5 2  
     4    1    9 am 
     5    4    3 1  
     6    3    8 1  
     7    4    6 2  
     8    6    7 1  
     9    7    8 2  
    10    7   10 1  
    11    8   11 1  
    12    9   12 1  
    13    9   13 1  
@<TRIPOS>SUBSTRUCTURE
     1 EVI         1

