### 
### Created by X-TOOL on Mon Sep 10 21:13:06 2018
### 

@<TRIPOS>MOLECULE
3s78_ligand
   14    14     1     0     0
SMALL
GAST_HUCK


@<TRIPOS>ATOM
      1 S          15.1890    1.0860   16.7460 S.o2      1 EVJ         0.0744
      2 O1         13.7220    1.2040   16.7090 O.2       1 EVJ        -0.1501
      3 S1         14.7410    3.7540   15.5160 S.3       1 EVJ        -0.0178
      4 C2         15.7350    2.4350   15.9070 C.2       1 EVJ         0.1599
      5 O2         15.7090    1.1490   18.1090 O.2       1 EVJ        -0.1501
      6 C3         17.0180    2.7150   15.4410 C.2       1 EVJ        -0.0523
      7 C4         17.1310    3.9740   14.7950 C.2       1 EVJ        -0.0774
      8 C5         15.9370    4.7100   14.7420 C.2       1 EVJ        -0.0067
      9 NH         15.6570   -0.2200   16.0090 N.am      1 EVJ        -0.2605
     10 H1         17.8568    2.0310   15.5613 H         1 EVJ         0.0423
     11 H2         18.0672    4.3388   14.3750 H         1 EVJ         0.0404
     12 H3         15.7973    5.6941   14.2971 H         1 EVJ         0.0711
     13 H4         16.6309   -0.4393   15.9503 H         1 EVJ         0.1635
     14 H5         14.9810   -0.8320   15.5985 H         1 EVJ         0.1635
@<TRIPOS>BOND
     1    1    2 2  
     2    1    4 1  
     3    1    5 2  
     4    1    9 am 
     5    4    3 1  
     6    3    8 1  
     7    4    6 2  
     8    6    7 1  
     9    7    8 2  
    10    6   10 1  
    11    7   11 1  
    12    8   12 1  
    13    9   13 1  
    14    9   14 1  
@<TRIPOS>SUBSTRUCTURE
     1 EVJ         1

