### 
### Created by X-TOOL on Mon Sep 10 21:13:08 2018
### 

@<TRIPOS>MOLECULE
3s7a_ligand
   57    61     1     0     0
SMALL
GAST_HUCK


@<TRIPOS>ATOM
      1 N1         19.2600   11.0930   10.4420 N.ar      1 684        -0.2668
      2 C2         18.8350   11.1060    9.1620 C.ar      1 684         0.1670
      3 N2         18.3190   12.2490    8.7120 N.pl3     1 684        -0.3051
      4 N3         18.9410    9.9970    8.3760 N.ar      1 684        -0.2298
      5 C4         19.4340    8.8450    8.8560 C.ar      1 684         0.1540
      6 N4         19.5370    7.7490    8.0710 N.pl3     1 684        -0.3052
      7 N5         20.4160    7.7370   10.7340 N.ar      1 684        -0.2613
      8 C6         20.8180    7.7240   12.0160 C.ar      1 684         0.0859
      9 C7         20.7170    8.8920   12.7880 C.ar      1 684         0.0480
     10 N8         20.1960    9.9830   12.2580 N.ar      1 684        -0.2649
     11 C9         21.4410    6.4140   12.5490 C.3       1 684         0.0973
     12 N10        21.3050    6.1550   13.9820 N.pl3     1 684        -0.2481
     13 C4A        19.8620    8.8280   10.2080 C.ar      1 684         0.1326
     14 C8A        19.7750    9.9700   10.9730 C.ar      1 684         0.1183
     15 OAC        13.8550    8.0600   19.6610 O.co2     1 684        -0.5690
     16 OAD        15.2870    9.7210   20.0480 O.co2     1 684        -0.5690
     17 CAE        24.6330    4.9020   16.1020 C.ar      1 684        -0.0746
     18 CAF        24.3750    4.4490   14.8080 C.ar      1 684        -0.0734
     19 CAG        17.8150    5.4980   13.9790 C.ar      1 684        -0.0439
     20 CAH        23.7750    5.8030   16.7270 C.ar      1 684        -0.0646
     21 CAI        23.2350    4.8900   14.1160 C.ar      1 684        -0.0389
     22 CAJ        19.1530    5.5610   13.6110 C.ar      1 684        -0.0466
     23 CAK        21.8740    7.1090   16.7810 C.2       1 684        -0.0603
     24 CAL        20.4960    7.2700   16.6420 C.2       1 684        -0.0627
     25 CAN        18.3340    6.5830   16.0690 C.ar      1 684        -0.0351
     26 CAO        15.3880    7.4320   17.4260 C.3       1 684        -0.0139
     27 CAP        15.8610    6.0410   17.0080 C.3       1 684         0.0693
     28 CAQ        16.0200    7.8510   18.7600 C.3       1 684         0.0026
     29 OAW        16.0760    5.9330   15.5610 O.3       1 684        -0.3259
     30 CAX        14.9770    8.5960   19.5890 C.2       1 684         0.0349
     31 CBA        17.4000    6.0190   15.2080 C.ar      1 684         0.0785
     32 CBC        22.6570    6.2390   16.0240 C.ar      1 684        -0.0010
     33 CBD        19.6830    6.6390   15.6960 C.ar      1 684        -0.0088
     34 CBF        22.3840    5.7940   14.7330 C.ar      1 684         0.0707
     35 CBG        20.0750    6.1490   14.4800 C.ar      1 684         0.0622
     36 H1         18.2553   13.0662    9.3358 H         1 684         0.1844
     37 H2         17.9838   12.3155    7.7403 H         1 684         0.1844
     38 H3         19.9179    6.8732    8.4567 H         1 684         0.1886
     39 H4         19.2345    7.7899    7.0873 H         1 684         0.1886
     40 H5         21.0652    8.8981   13.8145 H         1 684         0.0952
     41 H6         22.5157    6.4374   12.3155 H         1 684         0.0758
     42 H7         20.9674    5.5781   12.0133 H         1 684         0.0758
     43 H8         25.5126    4.5481   16.6275 H         1 684         0.0509
     44 H9         25.0578    3.7531   14.3341 H         1 684         0.0585
     45 H10        17.0913    5.0439   13.3118 H         1 684         0.0510
     46 H11        23.9728    6.1547   17.7331 H         1 684         0.0575
     47 H12        23.0240    4.5294   13.1158 H         1 684         0.0509
     48 H13        19.4784    5.1578   12.6588 H         1 684         0.0488
     49 H14        22.3767    7.7085   17.5385 H         1 684         0.0586
     50 H15        20.0068    7.9518   17.3361 H         1 684         0.0580
     51 H16        18.0190    6.9789   17.0277 H         1 684         0.0505
     52 H17        14.2934    7.4221   17.5342 H         1 684         0.0309
     53 H18        15.6732    8.1571   16.6496 H         1 684         0.0309
     54 H19        15.1006    5.3048   17.3077 H         1 684         0.0610
     55 H20        16.8078    5.8206   17.5228 H         1 684         0.0610
     56 H21        16.8801    8.5099   18.5703 H         1 684         0.0431
     57 H22        16.3561    6.9573   19.3062 H         1 684         0.0431
@<TRIPOS>BOND
     1    1    2 ar 
     2   14    1 ar 
     3    2    3 1  
     4    4    2 ar 
     5    5    4 ar 
     6    5    6 1  
     7   13    5 ar 
     8    8    7 ar 
     9    7   13 ar 
    10    8    9 ar 
    11   11    8 1  
    12    9   10 ar 
    13   10   14 ar 
    14   12   11 1  
    15   12   34 1  
    16   35   12 1  
    17   13   14 ar 
    18   30   15 ar 
    19   30   16 ar 
    20   17   18 ar 
    21   20   17 ar 
    22   21   18 ar 
    23   19   22 ar 
    24   31   19 ar 
    25   32   20 ar 
    26   34   21 ar 
    27   22   35 ar 
    28   24   23 2  
    29   23   32 1  
    30   33   24 1  
    31   31   25 ar 
    32   25   33 ar 
    33   27   26 1  
    34   26   28 1  
    35   29   27 1  
    36   28   30 1  
    37   29   31 1  
    38   32   34 ar 
    39   33   35 ar 
    40    3   36 1  
    41    3   37 1  
    42    6   38 1  
    43    6   39 1  
    44    9   40 1  
    45   11   41 1  
    46   11   42 1  
    47   17   43 1  
    48   18   44 1  
    49   19   45 1  
    50   20   46 1  
    51   21   47 1  
    52   22   48 1  
    53   23   49 1  
    54   24   50 1  
    55   25   51 1  
    56   26   52 1  
    57   26   53 1  
    58   27   54 1  
    59   27   55 1  
    60   28   56 1  
    61   28   57 1  
@<TRIPOS>SUBSTRUCTURE
     1 684         1

