### 
### Created by X-TOOL on Mon Sep 10 21:13:05 2018
### 

@<TRIPOS>MOLECULE
3s7b_ligand
   79    82     1     0     0
SMALL
GAST_HUCK


@<TRIPOS>ATOM
      1 C1        -16.9480  -64.9640    1.4010 C.ar      1 NH5        -0.0594
      2 C2        -15.8390  -65.4740    2.0660 C.ar      1 NH5        -0.0541
      3 C3        -14.7820  -66.0000    1.3280 C.ar      1 NH5         0.0469
      4 C4        -14.8290  -66.0070   -0.0710 C.ar      1 NH5         0.0477
      5 C5        -15.9440  -65.4900   -0.7260 C.ar      1 NH5        -0.0457
      6 C6        -17.0060  -64.9690    0.0080 C.ar      1 NH5        -0.0373
      7 C7        -18.2330  -64.4330   -0.6970 C.3       1 NH5         0.0214
      8 C8        -18.1060  -62.9680   -1.1500 C.3       1 NH5        -0.0239
      9 N9        -17.0010  -62.2520   -0.4870 N.4       1 NH5         0.2301
     10 C10       -17.5060  -61.1460    0.3320 C.3       1 NH5        -0.0165
     11 C11       -16.5170  -59.9770    0.2140 C.3       1 NH5         0.0774
     12 C12       -17.2360  -58.6450    0.0490 C.2       1 NH5         0.1840
     13 O13       -18.4470  -58.5770    0.1660 O.2       1 NH5        -0.3967
     14 N14       -16.5010  -57.5280   -0.1910 N.am      1 NH5        -0.2649
     15 C15       -17.0900  -56.1970   -0.3950 C.3       1 NH5         0.0740
     16 C16       -18.2020  -55.8410    0.6050 C.3       1 NH5        -0.0127
     17 N17       -17.6830  -55.2490    1.8400 N.4       1 NH5         0.2295
     18 C18       -18.7420  -54.4690    2.5150 C.3       1 NH5        -0.0273
     19 C19       -19.6400  -55.2590    3.4860 C.3       1 NH5         0.0110
     20 C20       -19.6460  -54.5560    4.8280 C.ar      1 NH5        -0.0317
     21 C21       -20.4490  -53.4200    5.0580 C.ar      1 NH5        -0.0916
     22 C22       -20.4630  -52.7610    6.2990 C.ar      1 NH5        -0.0631
     23 C23       -19.6250  -53.2280    7.3250 C.ar      1 NH5         0.0943
     24 C24       -18.8490  -54.3710    7.1050 C.ar      1 NH5         0.1195
     25 C25       -18.8520  -54.9890    5.8710 C.ar      1 NH5         0.1093
     26 O26       -18.0140  -56.0280    5.6390 O.3       1 NH5        -0.3108
     27 C27       -16.7210  -55.9740    6.2880 C.3       1 NH5         0.1582
     28 C28       -16.8270  -55.5250    7.7340 C.2       1 NH5         0.2277
     29 O29       -15.9950  -55.8120    8.5630 O.2       1 NH5        -0.3849
     30 N30       -17.8990  -54.7810    8.0420 N.am      1 NH5        -0.2398
     31 O31       -19.4920  -52.6630    8.5480 O.3       1 NH5        -0.3468
     32 C32       -15.0170  -57.6240   -0.3710 C.3       1 NH5         0.0452
     33 C33       -14.6450  -57.7460   -1.8680 C.3       1 NH5        -0.0297
     34 C34       -13.1290  -57.8760   -2.0710 C.3       1 NH5        -0.0510
     35 C35       -12.3690  -56.7120   -1.4060 C.3       1 NH5        -0.0529
     36 C36       -12.7170  -56.5580    0.0860 C.3       1 NH5        -0.0510
     37 C37       -14.2390  -56.4840    0.3140 C.3       1 NH5        -0.0297
     38 CL38      -13.5240  -66.6660   -1.0250 Cl        1 NH5        -0.0718
     39 CL39      -13.3720  -66.6030    2.1410 Cl        1 NH5        -0.0764
     40 H         -17.7805  -64.5561    1.9743 H         1 NH5         0.0559
     41 H         -15.7972  -65.4622    3.1551 H         1 NH5         0.0606
     42 H         -15.9852  -65.4933   -1.8152 H         1 NH5         0.0562
     43 H         -19.0596  -64.4813    0.0118 H         1 NH5         0.0479
     44 H         -18.3802  -65.0364   -1.5928 H         1 NH5         0.0479
     45 H         -19.0341  -62.4590   -0.8898 H         1 NH5         0.0838
     46 H         -17.9050  -62.9686   -2.2213 H         1 NH5         0.0838
     47 H         -16.3818  -61.8721   -1.2030 H         1 NH5         0.2017
     48 H         -16.5043  -62.9061    0.1179 H         1 NH5         0.2017
     49 H         -17.5965  -61.4588    1.3722 H         1 NH5         0.0840
     50 H         -18.4929  -60.8405   -0.0155 H         1 NH5         0.0840
     51 H         -15.8939  -60.1419   -0.6650 H         1 NH5         0.0556
     52 H         -15.9235  -59.9359    1.1273 H         1 NH5         0.0556
     53 H         -17.5372  -56.1918   -1.3890 H         1 NH5         0.0575
     54 H         -16.2912  -55.4675   -0.2613 H         1 NH5         0.0575
     55 H         -18.7228  -56.7616    0.8682 H         1 NH5         0.0834
     56 H         -18.8559  -55.1085    0.1317 H         1 NH5         0.0834
     57 H         -16.9050  -54.6297    1.6127 H         1 NH5         0.2015
     58 H         -17.3689  -55.9941    2.4617 H         1 NH5         0.2015
     59 H         -19.3957  -54.0920    1.7284 H         1 NH5         0.0832
     60 H         -18.2338  -53.7120    3.1122 H         1 NH5         0.0832
     61 H         -19.2562  -56.2726    3.6020 H         1 NH5         0.0432
     62 H         -20.6548  -55.3101    3.0915 H         1 NH5         0.0432
     63 H         -21.0764  -53.0425    4.2506 H         1 NH5         0.0379
     64 H         -21.1133  -51.9017    6.4627 H         1 NH5         0.0395
     65 H         -16.1015  -55.2543    5.7528 H         1 NH5         0.0853
     66 H         -16.2909  -56.9754    6.2734 H         1 NH5         0.0853
     67 H         -18.0274  -54.4992    9.0139 H         1 NH5         0.2183
     68 H         -19.7453  -53.2981    9.2219 H         1 NH5         0.2406
     69 H         -14.7078  -58.5378    0.1365 H         1 NH5         0.0558
     70 H         -14.9827  -56.8444   -2.3791 H         1 NH5         0.0287
     71 H         -15.1218  -58.6412   -2.2673 H         1 NH5         0.0287
     72 H         -12.9209  -57.8581   -3.1408 H         1 NH5         0.0266
     73 H         -12.7982  -58.8095   -1.6157 H         1 NH5         0.0266
     74 H         -12.6524  -55.7906   -1.9147 H         1 NH5         0.0265
     75 H         -11.3016  -56.9191   -1.4831 H         1 NH5         0.0265
     76 H         -12.2710  -55.6316    0.4479 H         1 NH5         0.0266
     77 H         -12.3327  -57.4277    0.6189 H         1 NH5         0.0266
     78 H         -14.4147  -56.5648    1.3867 H         1 NH5         0.0287
     79 H         -14.5897  -55.5444   -0.1128 H         1 NH5         0.0287
@<TRIPOS>BOND
     1    1    2 ar 
     2    1    6 ar 
     3    2    3 ar 
     4    3    4 ar 
     5    3   39 1  
     6    4    5 ar 
     7    4   38 1  
     8    5    6 ar 
     9    6    7 1  
    10    7    8 1  
    11    8    9 1  
    12    9   10 1  
    13   10   11 1  
    14   11   12 1  
    15   12   13 2  
    16   12   14 am 
    17   14   15 1  
    18   14   32 1  
    19   15   16 1  
    20   16   17 1  
    21   17   18 1  
    22   18   19 1  
    23   19   20 1  
    24   20   21 ar 
    25   20   25 ar 
    26   21   22 ar 
    27   22   23 ar 
    28   23   24 ar 
    29   23   31 1  
    30   24   25 ar 
    31   24   30 1  
    32   25   26 1  
    33   26   27 1  
    34   27   28 1  
    35   28   29 2  
    36   28   30 am 
    37   32   33 1  
    38   32   37 1  
    39   33   34 1  
    40   34   35 1  
    41   35   36 1  
    42   36   37 1  
    43    1   40 1  
    44    2   41 1  
    45    5   42 1  
    46    7   43 1  
    47    7   44 1  
    48    8   45 1  
    49    8   46 1  
    50    9   47 1  
    51    9   48 1  
    52   10   49 1  
    53   10   50 1  
    54   11   51 1  
    55   11   52 1  
    56   15   53 1  
    57   15   54 1  
    58   16   55 1  
    59   16   56 1  
    60   17   57 1  
    61   17   58 1  
    62   18   59 1  
    63   18   60 1  
    64   19   61 1  
    65   19   62 1  
    66   21   63 1  
    67   22   64 1  
    68   27   65 1  
    69   27   66 1  
    70   30   67 1  
    71   31   68 1  
    72   32   69 1  
    73   33   70 1  
    74   33   71 1  
    75   34   72 1  
    76   34   73 1  
    77   35   74 1  
    78   35   75 1  
    79   36   76 1  
    80   36   77 1  
    81   37   78 1  
    82   37   79 1  
@<TRIPOS>SUBSTRUCTURE
     1 NH5         1

