### 
### Created by X-TOOL on Mon Sep 10 21:13:06 2018
### 

@<TRIPOS>MOLECULE
3s7l_ligand
   47    50     1     0     0
SMALL
GAST_HUCK


@<TRIPOS>ATOM
      1 C1         17.5530  -11.1500   18.7230 C.3       1 591        -0.0335
      2 N1         15.4940  -10.1650   17.9930 N.pl3     1 591        -0.1731
      3 O1         14.1940   -6.0490   18.9220 O.2       1 591        -0.3759
      4 C2         16.0590  -11.0770   18.9610 C.3       1 591         0.0790
      5 N2         15.3080  -10.5770   16.7340 N.2       1 591        -0.1913
      6 C3         15.1170   -8.8810   18.2090 C.2       1 591         0.0922
      7 N3         15.1850   -5.0630   17.0950 N.am      1 591        -0.2225
      8 C4         14.6440   -8.4220   17.0050 C.2       1 591         0.0143
      9 N4         14.8540   -6.5860   15.4850 N.pl3     1 591        -0.2845
     10 C5         14.7910   -9.5180   16.1320 C.2       1 591         0.0147
     11 N5         16.2330   -4.8690   15.0200 N.pl3     1 591        -0.2550
     12 C6         14.1210   -7.0650   16.6860 C.3       1 591         0.1742
     13 N6          9.6540   -2.9330   13.8610 N.ar      1 591        -0.2623
     14 C7         14.4900   -6.0280   17.7410 C.2       1 591         0.1893
     15 N7          8.2430   -2.9410   15.7830 N.ar      1 591        -0.2623
     16 C8         15.2950   -5.4200   15.7960 C.cat     1 591         0.3166
     17 C9         15.7030   -3.8990   17.7710 C.3       1 591         0.0233
     18 C10        12.5900   -7.1210   16.5840 C.ar      1 591        -0.0227
     19 C11        11.8280   -8.2480   16.9570 C.ar      1 591        -0.0486
     20 C12        10.4420   -8.2380   16.8440 C.ar      1 591        -0.0402
     21 C13         9.7850   -7.1070   16.3670 C.ar      1 591        -0.0322
     22 C14        10.5050   -5.9600   15.9850 C.ar      1 591         0.0143
     23 C15        11.8980   -5.9940   16.1090 C.ar      1 591        -0.0391
     24 C16         9.8730   -4.7240   15.4980 C.ar      1 591         0.0392
     25 C17        10.2300   -4.0780   14.3190 C.ar      1 591         0.0371
     26 C18         8.6780   -2.4150   14.6260 C.ar      1 591         0.0896
     27 C19         8.8560   -4.0840   16.1890 C.ar      1 591         0.0371
     28 H1         18.0067  -11.8400   19.4497 H         1 591         0.0259
     29 H2         17.9929  -10.1491   18.8438 H         1 591         0.0259
     30 H3         17.7444  -11.5140   17.7028 H         1 591         0.0259
     31 H4         15.8611  -10.7098   19.9788 H         1 591         0.0658
     32 H5         15.6127  -12.0748   18.8379 H         1 591         0.0658
     33 H6         15.1770   -8.3276   19.1450 H         1 591         0.1417
     34 H7         14.9815   -7.0836   14.5922 H         1 591         0.3053
     35 H8         14.5106   -9.4961   15.0799 H         1 591         0.0750
     36 H9         16.6047   -3.9353   15.2455 H         1 591         0.3198
     37 H10        16.5843   -5.3780   14.1963 H         1 591         0.3198
     38 H11        15.4198   -3.9356   18.8333 H         1 591         0.0484
     39 H12        15.2848   -2.9915   17.3112 H         1 591         0.0484
     40 H13        16.7994   -3.8822   17.6842 H         1 591         0.0484
     41 H14        12.3284   -9.1317   17.3360 H         1 591         0.0781
     42 H15         9.8709   -9.1143   17.1285 H         1 591         0.0676
     43 H16         8.7038   -7.1101   16.2888 H         1 591         0.0799
     44 H17        12.4667   -5.1152   15.8272 H         1 591         0.0792
     45 H18        11.0222   -4.5171   13.7234 H         1 591         0.0944
     46 H19         8.2051   -1.5019   14.2828 H         1 591         0.1122
     47 H20         8.5255   -4.5275   17.1213 H         1 591         0.0944
@<TRIPOS>BOND
     1    4    1 1  
     2    2    4 1  
     3    5    2 1  
     4    6    2 1  
     5   14    3 2  
     6   10    5 2  
     7    8    6 2  
     8   14    7 am 
     9    7   16 ar 
    10    7   17 1  
    11    8   10 1  
    12   12    8 1  
    13   12    9 1  
    14    9   16 ar 
    15   16   11 ar 
    16   12   14 1  
    17   18   12 1  
    18   25   13 ar 
    19   13   26 ar 
    20   26   15 ar 
    21   15   27 ar 
    22   18   19 ar 
    23   23   18 ar 
    24   20   19 ar 
    25   21   20 ar 
    26   22   21 ar 
    27   22   23 ar 
    28   24   22 1  
    29   24   25 ar 
    30   24   27 ar 
    31    1   28 1  
    32    1   29 1  
    33    1   30 1  
    34    4   31 1  
    35    4   32 1  
    36    6   33 1  
    37    9   34 1  
    38   10   35 1  
    39   11   36 1  
    40   11   37 1  
    41   17   38 1  
    42   17   39 1  
    43   17   40 1  
    44   19   41 1  
    45   20   42 1  
    46   21   43 1  
    47   23   44 1  
    48   25   45 1  
    49   26   46 1  
    50   27   47 1  
@<TRIPOS>SUBSTRUCTURE
     1 591         1

