### 
### Created by X-TOOL on Mon Sep 10 21:13:06 2018
### 

@<TRIPOS>MOLECULE
3s7m_ligand
   42    45     1     0     0
SMALL
GAST_HUCK


@<TRIPOS>ATOM
      1 C1         15.5560   -4.1120   17.5410 C.3       1 532         0.0232
      2 N1         15.0710   -5.3190   16.9310 N.am      1 532        -0.2227
      3 O1         13.9150   -6.1080   18.7490 O.2       1 532        -0.3764
      4 S1         15.2890  -10.6870   18.3600 S.3       1 532         0.0090
      5 C2         14.3030   -6.2060   17.5860 C.2       1 532         0.1890
      6 N2         14.6860   -6.8160   15.3110 N.pl3     1 532        -0.2849
      7 C3         13.9990   -7.2910   16.5540 C.3       1 532         0.1727
      8 N3         16.1010   -5.0640   14.8780 N.pl3     1 532        -0.2551
      9 C4         15.2620   -5.7300   15.6720 C.cat     1 532         0.3164
     10 N4          9.9950   -2.9650   13.7620 N.ar      1 532        -0.2963
     11 C5         12.4820   -7.3790   16.4460 C.ar      1 532        -0.0230
     12 C6         11.7020   -8.4890   16.7850 C.ar      1 532        -0.0488
     13 C7         10.3130   -8.4160   16.6350 C.ar      1 532        -0.0404
     14 C8          9.6840   -7.2650   16.1690 C.ar      1 532        -0.0330
     15 C9         10.4520   -6.1410   15.8180 C.ar      1 532         0.0091
     16 C10        11.8330   -6.2500   15.9830 C.ar      1 532        -0.0401
     17 C11         9.8930   -4.8580   15.3290 C.ar      1 532         0.0143
     18 C12         8.7570   -4.2710   15.9140 C.ar      1 532        -0.0346
     19 C13         8.2640   -3.0640   15.4250 C.ar      1 532        -0.0338
     20 C14         8.9110   -2.4470   14.3530 C.ar      1 532         0.0108
     21 C15        10.4520   -4.1450   14.2640 C.ar      1 532         0.0191
     22 C16        14.5210   -8.6400   16.9570 C.2       1 532        -0.0157
     23 C17        14.9500   -9.6310   16.0280 C.2       1 532        -0.0674
     24 C18        15.3830  -10.7720   16.6590 C.2       1 532         0.0099
     25 C19        14.6620   -9.0950   18.2500 C.2       1 532         0.0438
     26 H1         15.2240   -4.0718   18.5889 H         1 532         0.0484
     27 H2         15.1600   -3.2416   16.9973 H         1 532         0.0484
     28 H3         16.6553   -4.0985   17.5039 H         1 532         0.0484
     29 H4         14.6937   -7.2595   14.3814 H         1 532         0.3051
     30 H5         16.5423   -4.1942   15.2090 H         1 532         0.3198
     31 H6         16.3078   -5.4193   13.9336 H         1 532         0.3198
     32 H7         12.1673   -9.3938   17.1590 H         1 532         0.0779
     33 H8          9.7096   -9.2800   16.8888 H         1 532         0.0675
     34 H9          8.6043   -7.2354   16.0769 H         1 532         0.0797
     35 H10        12.4400   -5.3882   15.7302 H         1 532         0.0788
     36 H11         8.2642   -4.7590   16.7471 H         1 532         0.0741
     37 H12         7.3876   -2.6086   15.8718 H         1 532         0.0709
     38 H13         8.5185   -1.5069   13.9826 H         1 532         0.0820
     39 H14        11.3310   -4.5715   13.7944 H         1 532         0.0831
     40 H15        14.9364   -9.4999   14.9470 H         1 532         0.0428
     41 H16        15.7509  -11.6466   16.1245 H         1 532         0.0785
     42 H17        14.3993   -8.4981   19.1221 H         1 532         0.1297
@<TRIPOS>BOND
     1    2    1 1  
     2    5    2 am 
     3    9    2 ar 
     4    5    3 2  
     5    4   24 1  
     6   25    4 1  
     7    7    5 1  
     8    7    6 1  
     9    6    9 ar 
    10    7   11 1  
    11   22    7 1  
    12    9    8 ar 
    13   10   20 ar 
    14   21   10 ar 
    15   11   12 ar 
    16   11   16 ar 
    17   12   13 ar 
    18   13   14 ar 
    19   15   14 ar 
    20   16   15 ar 
    21   15   17 1  
    22   17   18 ar 
    23   17   21 ar 
    24   18   19 ar 
    25   19   20 ar 
    26   22   23 1  
    27   22   25 2  
    28   23   24 2  
    29    1   26 1  
    30    1   27 1  
    31    1   28 1  
    32    6   29 1  
    33    8   30 1  
    34    8   31 1  
    35   12   32 1  
    36   13   33 1  
    37   14   34 1  
    38   16   35 1  
    39   18   36 1  
    40   19   37 1  
    41   20   38 1  
    42   21   39 1  
    43   23   40 1  
    44   24   41 1  
    45   25   42 1  
@<TRIPOS>SUBSTRUCTURE
     1 532         1

