### 
### Created by X-TOOL on Fri Sep 26 17:34:53 2014
### 

@<TRIPOS>MOLECULE
3s8x_ligand
   35    36     1     0     0
SMALL
GAST_HUCK


@<TRIPOS>ATOM
      1 N1         -1.9890    7.7790   12.5390 N.am      1 E59        -0.1886
      2 C2         -2.0060    9.0790   12.2850 C.2       1 E59         0.1918
      3 C3         -1.4590    9.9610   13.2080 C.2       1 E59        -0.0072
      4 C4         -0.9080    9.4310   14.3640 C.2       1 E59        -0.0088
      5 N5         -0.9190    8.1210   14.5580 N.2       1 E59        -0.2830
      6 C6         -1.4520    7.3040   13.6570 C.2       1 E59         0.2203
      7 O7         -2.5130    9.4880   11.2380 O.2       1 E59        -0.4210
      8 C8         -0.2950   10.3210   15.4000 C.3       1 E59        -0.0198
      9 S9         -1.4550    5.5430   13.9410 S.3       1 E59         0.0015
     10 C10        -2.7780    5.1190   12.8240 C.3       1 E59         0.0946
     11 C11        -4.1380    5.3830   13.3650 C.2       1 E59         0.1463
     12 O12        -4.8120    6.3920   13.1130 O.2       1 E59        -0.3772
     13 C13        -4.6130    4.3130   14.2310 C.ar      1 E59         0.0338
     14 C14        -5.9040    4.2950   14.7230 C.ar      1 E59        -0.0411
     15 C15        -6.3010    3.2410   15.5320 C.ar      1 E59        -0.0292
     16 C16        -5.4070    2.2240   15.8380 C.ar      1 E59         0.1125
     17 C17        -4.1150    2.2360   15.3410 C.ar      1 E59        -0.0292
     18 C18        -3.7180    3.2900   14.5340 C.ar      1 E59        -0.0411
     19 S19        -5.9240    0.8880   16.8540 S.o2      1 E59         0.0678
     20 O20        -7.4380    0.8780   16.8250 O.2       1 E59        -0.1499
     21 O21        -5.3880    1.0580   18.2580 O.2       1 E59        -0.1499
     22 N22        -5.3310   -0.5770   16.1390 N.am      1 E59        -0.2605
     23 H1         -2.3876    7.1440   11.8772 H         1 E59         0.2583
     24 H2         -1.4629   11.0352   13.0290 H         1 E59         0.0277
     25 H3          0.0818    9.7089   16.2327 H         1 E59         0.0442
     26 H4         -1.0537   11.0235   15.7754 H         1 E59         0.0442
     27 H5          0.5374   10.8845   14.9533 H         1 E59         0.0442
     28 H6         -2.7018    4.0470   12.5894 H         1 E59         0.0639
     29 H7         -2.6531    5.7059   11.9021 H         1 E59         0.0639
     30 H8         -6.5963    5.0930   14.4802 H         1 E59         0.0672
     31 H9         -7.3105    3.2112   15.9259 H         1 E59         0.0649
     32 H10        -3.4255    1.4342   15.5792 H         1 E59         0.0649
     33 H11        -2.7093    3.3183   14.1379 H         1 E59         0.0672
     34 H12        -5.5219   -1.4578   16.5723 H         1 E59         0.1635
     35 H13        -4.7983   -0.5407   15.2935 H         1 E59         0.1635
@<TRIPOS>BOND
     1    1    2 am 
     2    1    6 1  
     3    2    3 1  
     4    2    7 2  
     5    3    4 2  
     6    4    5 1  
     7    4    8 1  
     8    5    6 2  
     9    6    9 1  
    10    9   10 1  
    11   10   11 1  
    12   11   12 2  
    13   11   13 1  
    14   13   14 ar 
    15   13   18 ar 
    16   14   15 ar 
    17   15   16 ar 
    18   16   17 ar 
    19   16   19 1  
    20   17   18 ar 
    21   19   20 2  
    22   19   21 2  
    23   19   22 am 
    24    1   23 1  
    25    3   24 1  
    26    8   25 1  
    27    8   26 1  
    28    8   27 1  
    29   10   28 1  
    30   10   29 1  
    31   14   30 1  
    32   15   31 1  
    33   17   32 1  
    34   18   33 1  
    35   22   34 1  
    36   22   35 1  
@<TRIPOS>SUBSTRUCTURE
     1 E59         1

