### 
### Created by X-TOOL on Mon Sep 10 21:13:05 2018
### 

@<TRIPOS>MOLECULE
3s9e_ligand
   18    17     1     0     0
SMALL
GAST_HUCK


@<TRIPOS>ATOM
      1 N           3.9400  -30.6510  -13.6450 N.4       1 GLU         0.2328
      2 CA          2.6280  -30.0360  -13.8630 C.3       1 GLU         0.0298
      3 C           1.4910  -31.0510  -13.6840 C.2       1 GLU         0.0845
      4 O           0.4080  -30.6790  -13.9560 O.co2     1 GLU        -0.5643
      5 CB          2.5640  -29.3970  -15.2520 C.3       1 GLU         0.0139
      6 CG          3.3010  -28.0850  -15.3550 C.3       1 GLU         0.0069
      7 CD          2.5560  -26.9120  -14.7310 C.2       1 GLU         0.0351
      8 OE1         1.4270  -27.0550  -14.4350 O.co2     1 GLU        -0.5690
      9 OE2         3.2040  -25.9190  -14.5450 O.co2     1 GLU        -0.5690
     10 OXT         1.7420  -32.1450  -13.2210 O.co2     1 GLU        -0.5643
     11 H1          4.6610  -29.9578  -13.7703 H         1 GLU         0.2010
     12 H2          4.0746  -31.3991  -14.3070 H         1 GLU         0.2010
     13 H3          3.9870  -31.0191  -12.7078 H         1 GLU         0.2010
     14 H4          2.4956  -29.2424  -13.1130 H         1 GLU         0.1025
     15 H5          1.5078  -29.2218  -15.5045 H         1 GLU         0.0356
     16 H6          3.0027  -30.0986  -15.9767 H         1 GLU         0.0356
     17 H7          3.4679  -27.8633  -16.4194 H         1 GLU         0.0433
     18 H8          4.2704  -28.1906  -14.8460 H         1 GLU         0.0433
@<TRIPOS>BOND
     1    1    2 1  
     2    2    3 1  
     3    2    5 1  
     4    3    4 ar 
     5    3   10 ar 
     6    5    6 1  
     7    6    7 1  
     8    7    8 ar 
     9    7    9 ar 
    10    1   11 1  
    11    1   12 1  
    12    1   13 1  
    13    2   14 1  
    14    5   15 1  
    15    5   16 1  
    16    6   17 1  
    17    6   18 1  
@<TRIPOS>SUBSTRUCTURE
     1 GLU         1

