### 
### Created by X-TOOL on Mon Sep 10 21:13:09 2018
### 

@<TRIPOS>MOLECULE
3s9i_ligand
   23    23     1     0     0
SMALL
GAST_HUCK


@<TRIPOS>ATOM
      1 O8         37.0450   81.5890   62.2570 O.3       1 XI7        -0.3754
      2 C9         36.7450   81.1160   63.5100 C.3       1 XI7         0.1221
      3 C10        37.8880   80.7300   64.4290 C.2       1 XI7         0.0656
      4 O11        39.0230   80.7700   63.8900 O.co2     1 XI7        -0.5662
      5 O10        37.7370   80.5010   65.6470 O.co2     1 XI7        -0.5662
      6 C8         35.7410   79.8490   63.6930 C.3       1 XI7         0.0604
      7 C7         35.1210   79.2050   62.5670 C.2       1 XI7         0.1370
      8 C1         34.1810   78.0320   62.6080 C.ar      1 XI7         0.0328
      9 C6         33.0560   78.0140   61.6160 C.ar      1 XI7        -0.0430
     10 C5         32.1300   76.8370   61.6410 C.ar      1 XI7        -0.0559
     11 C4         32.3260   75.7430   62.5840 C.ar      1 XI7        -0.0572
     12 C3         33.3810   75.7330   63.5500 C.ar      1 XI7        -0.0559
     13 C2         34.3660   76.9210   63.5720 C.ar      1 XI7        -0.0430
     14 O14        35.3860   79.6470   61.4580 O.2       1 XI7        -0.3782
     15 H1         37.5303   80.9276   61.7778 H         1 XI7         0.2126
     16 H2         36.2419   81.9730   63.9816 H         1 XI7         0.0789
     17 H3         34.9218   80.1950   64.3405 H         1 XI7         0.0529
     18 H4         36.3174   79.0710   64.2149 H         1 XI7         0.0529
     19 H5         32.9183   78.8227   60.9074 H         1 XI7         0.0672
     20 H6         31.2994   76.7981   60.9455 H         1 XI7         0.0630
     21 H7         31.6435   74.9014   62.5519 H         1 XI7         0.0655
     22 H8         33.4860   74.9114   64.2493 H         1 XI7         0.0630
     23 H9         35.1833   76.9428   64.2838 H         1 XI7         0.0672
@<TRIPOS>BOND
     1    1    2 1  
     2    2    3 1  
     3    2    6 1  
     4    3    4 ar 
     5    3    5 ar 
     6    6    7 1  
     7    7    8 1  
     8    7   14 2  
     9    8    9 ar 
    10    8   13 ar 
    11    9   10 ar 
    12   10   11 ar 
    13   11   12 ar 
    14   12   13 ar 
    15    1   15 1  
    16    2   16 1  
    17    6   17 1  
    18    6   18 1  
    19    9   19 1  
    20   10   20 1  
    21   11   21 1  
    22   12   22 1  
    23   13   23 1  
@<TRIPOS>SUBSTRUCTURE
     1 XI7         1

