### 
### Created by X-TOOL on Fri Sep 26 17:34:53 2014
### 

@<TRIPOS>MOLECULE
3s9t_ligand
   37    38     1     0     0
SMALL
GAST_HUCK


@<TRIPOS>ATOM
      1 N1         -0.7740    4.7670   10.2150 N.ar      1 E49        -0.2660
      2 C2         -1.5170    4.1500   11.1130 C.ar      1 E49         0.1492
      3 N3         -1.8890    4.7280   12.2580 N.ar      1 E49        -0.2660
      4 C4         -1.6290    6.0190   12.5240 C.ar      1 E49         0.0267
      5 C5         -0.8950    6.7040   11.5700 C.ar      1 E49        -0.0162
      6 C6         -0.4370    6.0630   10.4120 C.ar      1 E49         0.0267
      7 S7         -1.9310    2.5010   10.7070 S.3       1 E49        -0.0396
      8 C8         -3.0800    1.9640   12.0540 C.3       1 E49         0.0881
      9 C9         -4.2280    2.9630   12.2230 C.2       1 E49         0.1457
     10 O10        -4.6780    3.6070   11.2120 O.2       1 E49        -0.3773
     11 C11        -2.1700    6.7310   13.7960 C.3       1 E49        -0.0129
     12 C12         0.4060    6.7420    9.4440 C.3       1 E49        -0.0129
     13 C13        -4.8440    3.1210   13.5860 C.ar      1 E49         0.0355
     14 C14        -5.0590    2.0850   14.4560 C.ar      1 E49        -0.0159
     15 C15        -5.6360    2.2760   15.6370 C.ar      1 E49         0.1276
     16 C16        -6.1970    3.4920   15.9250 C.ar      1 E49         0.0719
     17 C17        -5.9330    4.6360   15.1350 C.ar      1 E49        -0.0401
     18 C18        -5.4280    4.3590   13.9570 C.ar      1 E49        -0.0425
     19 S19        -5.9540    0.8350   16.6890 S.o2      1 E49         0.0674
     20 O20        -7.4580    0.7840   16.7220 O.2       1 E49        -0.1504
     21 O22        -5.3560    1.0460   17.9540 O.2       1 E49        -0.1504
     22 N23        -5.2970   -0.5060   16.0580 N.am      1 E49        -0.2609
     23 CL21       -6.8490    3.8180   17.4580 Cl        1 E49        -0.0643
     24 H1         -0.6713    7.7537   11.7221 H         1 E49         0.0590
     25 H2         -2.5205    1.8951   12.9986 H         1 E49         0.0632
     26 H3         -3.4954    0.9774   11.8011 H         1 E49         0.0632
     27 H4         -1.8318    7.7777   13.8021 H         1 E49         0.0441
     28 H5         -1.7913    6.2181   14.6924 H         1 E49         0.0441
     29 H6         -3.2696    6.7010   13.7933 H         1 E49         0.0441
     30 H7          0.5729    7.7800    9.7674 H         1 E49         0.0441
     31 H8         -0.0884    6.7391    8.4614 H         1 E49         0.0441
     32 H9          1.3721    6.2213    9.3700 H         1 E49         0.0441
     33 H10        -4.7507    1.0848   14.1737 H         1 E49         0.0691
     34 H11        -6.1299    5.6472   15.4723 H         1 E49         0.0636
     35 H12        -5.4595    5.1397   13.2057 H         1 E49         0.0671
     36 H13        -5.3930   -1.3809   16.5327 H         1 E49         0.1635
     37 H14        -4.7957   -0.4583   15.1940 H         1 E49         0.1635
@<TRIPOS>BOND
     1    1    2 ar 
     2    1    6 ar 
     3    2    3 ar 
     4    2    7 1  
     5    3    4 ar 
     6    4    5 ar 
     7    4   11 1  
     8    5    6 ar 
     9    6   12 1  
    10    7    8 1  
    11    8    9 1  
    12    9   10 2  
    13    9   13 1  
    14   13   14 ar 
    15   13   18 ar 
    16   14   15 ar 
    17   15   16 ar 
    18   15   19 1  
    19   16   17 ar 
    20   16   23 1  
    21   17   18 ar 
    22   19   20 2  
    23   19   21 2  
    24   19   22 am 
    25    5   24 1  
    26    8   25 1  
    27    8   26 1  
    28   11   27 1  
    29   11   28 1  
    30   11   29 1  
    31   12   30 1  
    32   12   31 1  
    33   12   32 1  
    34   14   33 1  
    35   17   34 1  
    36   18   35 1  
    37   22   36 1  
    38   22   37 1  
@<TRIPOS>SUBSTRUCTURE
     1 E49         1

