### 
### Created by X-TOOL on Mon Sep 10 21:13:09 2018
### 

@<TRIPOS>MOLECULE
3s9z_ligand
   21    21     1     0     0
SMALL
GAST_HUCK


@<TRIPOS>ATOM
      1 O01        37.8690   80.5380   65.6980 O.co2     1 I92        -0.5482
      2 C02        38.1730   80.8980   64.4060 C.2       1 I92         0.1151
      3 O03        39.2930   80.8200   64.0190 O.co2     1 I92        -0.5482
      4 C04        37.0300   80.8120   63.4140 C.2       1 I92         0.1618
      5 O05        37.0230   81.5610   62.4960 O.2       1 I92        -0.3740
      6 C06        35.9820   79.7170   63.6220 C.2       1 I92         0.0169
      7 C07        35.2920   79.1610   62.6430 C.2       1 I92         0.1134
      8 O08        35.1740   79.8370   61.4350 O.3       1 I92        -0.3188
      9 C09        34.5270   77.8510   62.9020 C.ar      1 I92         0.0351
     10 C10        35.0930   76.8820   63.7610 C.ar      1 I92        -0.0424
     11 C11        34.3950   75.6830   64.0120 C.ar      1 I92        -0.0540
     12 C12        33.1310   75.4240   63.4200 C.ar      1 I92        -0.0551
     13 C13        32.5600   76.3810   62.5530 C.ar      1 I92        -0.0474
     14 C14        33.2670   77.5870   62.3190 C.ar      1 I92         0.0294
     15 BR15       32.4770   78.8830   61.1470 Br        1 I92        -0.0450
     16 H1         35.7937   79.3755   64.6388 H         1 I92         0.0405
     17 H2         36.0384   79.9797   61.0675 H         1 I92         0.2574
     18 H3         36.0571   77.0594   64.2237 H         1 I92         0.0672
     19 H4         34.8332   74.9427   64.6715 H         1 I92         0.0651
     20 H5         32.6081   74.4984   63.6320 H         1 I92         0.0656
     21 H6         31.6033   76.1977   62.0774 H         1 I92         0.0656
@<TRIPOS>BOND
     1    1    2 ar 
     2    2    3 ar 
     3    2    4 1  
     4    4    5 2  
     5    4    6 1  
     6    6    7 2  
     7    7    8 1  
     8    7    9 1  
     9    9   10 ar 
    10    9   14 ar 
    11   10   11 ar 
    12   11   12 ar 
    13   12   13 ar 
    14   13   14 ar 
    15   14   15 1  
    16    6   16 1  
    17    8   17 1  
    18   10   18 1  
    19   11   19 1  
    20   12   20 1  
    21   13   21 1  
@<TRIPOS>SUBSTRUCTURE
     1 I92         1

