### 
### Created by X-TOOL on Mon Sep 10 21:13:09 2018
### 

@<TRIPOS>MOLECULE
3sad_ligand
   24    24     1     0     0
SMALL
GAST_HUCK


@<TRIPOS>ATOM
      1 C01        32.6190   76.4190   60.3900 C.3       1 040        -0.0268
      2 C02        33.2810   75.4690   61.3220 C.ar      1 040        -0.0265
      3 C03        34.5580   75.7080   61.8750 C.ar      1 040         0.0294
      4 C04        35.3480   76.9200   61.6140 C.2       1 040         0.1081
      5 O05        35.5630   77.2780   60.2970 O.3       1 040        -0.3200
      6 C06        35.9220   77.6350   62.5940 C.2       1 040         0.0113
      7 C07        36.8400   78.7500   62.3810 C.2       1 040         0.1573
      8 C08        37.8820   78.9380   63.4450 C.2       1 040         0.1140
      9 O09        39.1590   78.8940   62.9660 O.co2     1 040        -0.5483
     10 O10        37.8070   78.5500   64.6090 O.co2     1 040        -0.5483
     11 O11        36.9600   79.3760   61.3300 O.2       1 040        -0.3773
     12 C12        35.1450   74.7750   62.7560 C.ar      1 040        -0.0503
     13 C13        34.4890   73.5920   63.0730 C.ar      1 040        -0.0629
     14 C14        33.2250   73.3430   62.5120 C.ar      1 040        -0.0640
     15 C15        32.6320   74.2680   61.6480 C.ar      1 040        -0.0542
     16 H1         31.6376   76.0192   60.0949 H         1 040         0.0409
     17 H2         33.2451   76.5513   59.4953 H         1 040         0.0409
     18 H3         32.4843   77.3894   60.8901 H         1 040         0.0409
     19 H4         36.0830   78.0725   60.2668 H         1 040         0.2575
     20 H5         35.6860   77.3640   63.6220 H         1 040         0.0357
     21 H6         36.1166   74.9832   63.1894 H         1 040         0.0648
     22 H7         34.9453   72.8721   63.7428 H         1 040         0.0574
     23 H8         32.7039   72.4232   62.7520 H         1 040         0.0636
     24 H9         31.6574   74.0548   61.2239 H         1 040         0.0568
@<TRIPOS>BOND
     1    1    2 1  
     2    2    3 ar 
     3    2   15 ar 
     4    3    4 1  
     5    3   12 ar 
     6    4    5 1  
     7    4    6 2  
     8    6    7 1  
     9    7    8 1  
    10    7   11 2  
    11    8    9 ar 
    12    8   10 ar 
    13   12   13 ar 
    14   13   14 ar 
    15   14   15 ar 
    16    1   16 1  
    17    1   17 1  
    18    1   18 1  
    19    5   19 1  
    20    6   20 1  
    21   12   21 1  
    22   13   22 1  
    23   14   23 1  
    24   15   24 1  
@<TRIPOS>SUBSTRUCTURE
     1 040         1

