### 
### Created by X-TOOL on Fri Sep 26 17:34:55 2014
### 

@<TRIPOS>MOLECULE
3sap_ligand
   43    44     1     0     0
SMALL
GAST_HUCK


@<TRIPOS>ATOM
      1 N1         -0.5030    8.7320   14.8530 N.ar      1 E2I        -0.2615
      2 C2          0.1480    9.7390   15.3690 C.ar      1 E2I         0.0235
      3 C3          0.1890   11.0140   14.8470 C.ar      1 E2I         0.0026
      4 C4         -0.5150   11.2910   13.6640 C.ar      1 E2I         0.0235
      5 N5         -1.1690   10.2110   13.1710 N.ar      1 E2I        -0.2615
      6 C6         -1.1330    8.9760   13.7890 C.ar      1 E2I         0.1623
      7 C13         1.0150   11.9230   15.6620 C.3       1 E2I        -0.0114
      8 C15         2.4780   11.5550   15.2910 C.3       1 E2I        -0.0426
      9 C17         3.4690   11.8180   16.4250 C.3       1 E2I        -0.0540
     10 C19         3.8980   10.5430   17.1850 C.3       1 E2I        -0.0651
     11 S21        -1.9390    7.5770   13.1770 S.3       1 E2I        -0.0402
     12 C23        -2.0780    5.8720   13.7480 C.3       1 E2I         0.0872
     13 C25        -3.5400    5.4540   13.5820 C.2       1 E2I         0.1455
     14 O27        -4.2870    6.0380   12.7900 O.2       1 E2I        -0.3773
     15 C29        -4.1460    4.3250   14.3680 C.ar      1 E2I         0.0338
     16 C31        -5.5220    4.2950   14.6170 C.ar      1 E2I        -0.0411
     17 C32        -6.0260    3.2000   15.3590 C.ar      1 E2I        -0.0292
     18 C33        -5.1990    2.2010   15.8480 C.ar      1 E2I         0.1125
     19 C34        -3.8460    2.2420   15.5920 C.ar      1 E2I        -0.0292
     20 C35        -3.3150    3.3020   14.8470 C.ar      1 E2I        -0.0411
     21 S42        -5.8530    0.8040   16.7700 S.o2      1 E2I         0.0678
     22 O44        -5.3050    0.9610   18.1290 O.2       1 E2I        -0.1499
     23 O46        -7.3140    0.9010   16.6260 O.2       1 E2I        -0.1499
     24 N48        -5.1390   -0.5220   15.9850 N.am      1 E2I        -0.2605
     25 H1          0.7018    9.5576   16.2830 H         1 E2I         0.0859
     26 H2         -0.5335   12.2675   13.1937 H         1 E2I         0.0859
     27 H3          0.8325   11.7584   16.7342 H         1 E2I         0.0437
     28 H4          0.8022   12.9725   15.4107 H         1 E2I         0.0437
     29 H5          2.7786   12.1527   14.4179 H         1 E2I         0.0288
     30 H6          2.5157   10.4861   15.0342 H         1 E2I         0.0288
     31 H7          3.0007   12.5083   17.1420 H         1 E2I         0.0264
     32 H8          4.3681   12.2867   15.9984 H         1 E2I         0.0264
     33 H9          4.6076   10.8121   17.9813 H         1 E2I         0.0230
     34 H10         4.3797    9.8438   16.4856 H         1 E2I         0.0230
     35 H11         3.0123   10.0654   17.6292 H         1 E2I         0.0230
     36 H12        -1.7851    5.8044   14.8061 H         1 E2I         0.0630
     37 H13        -1.4293    5.2192   13.1455 H         1 E2I         0.0630
     38 H14        -6.1769    5.0797   14.2558 H         1 E2I         0.0672
     39 H15        -7.0913    3.1409   15.5506 H         1 E2I         0.0649
     40 H16        -3.1964    1.4584   15.9650 H         1 E2I         0.0649
     41 H17        -2.2516    3.3321   14.6386 H         1 E2I         0.0672
     42 H18        -5.3325   -1.4519   16.2979 H         1 E2I         0.1635
     43 H19        -4.5251   -0.3729   15.2098 H         1 E2I         0.1635
@<TRIPOS>BOND
     1    1    2 ar 
     2    1    6 ar 
     3    2    3 ar 
     4    3    4 ar 
     5    3    7 1  
     6    4    5 ar 
     7    5    6 ar 
     8    6   11 1  
     9    7    8 1  
    10    8    9 1  
    11    9   10 1  
    12   11   12 1  
    13   12   13 1  
    14   13   14 2  
    15   13   15 1  
    16   15   16 ar 
    17   15   20 ar 
    18   16   17 ar 
    19   17   18 ar 
    20   18   19 ar 
    21   18   21 1  
    22   19   20 ar 
    23   21   22 2  
    24   21   23 2  
    25   21   24 am 
    26    2   25 1  
    27    4   26 1  
    28    7   27 1  
    29    7   28 1  
    30    8   29 1  
    31    8   30 1  
    32    9   31 1  
    33    9   32 1  
    34   10   33 1  
    35   10   34 1  
    36   10   35 1  
    37   12   36 1  
    38   12   37 1  
    39   16   38 1  
    40   17   39 1  
    41   19   40 1  
    42   20   41 1  
    43   24   42 1  
    44   24   43 1  
@<TRIPOS>SUBSTRUCTURE
     1 E2I         1

