### 
### Created by X-TOOL on Fri Sep 26 17:34:53 2014
### 

@<TRIPOS>MOLECULE
3sax_ligand
   37    38     1     0     0
SMALL
GAST_HUCK


@<TRIPOS>ATOM
      1 N1         -0.4910    4.8960   11.1950 N.ar      1 E50        -0.2615
      2 C2         -1.4110    4.1500   11.7850 C.ar      1 E50         0.1623
      3 N3         -2.0900    4.5660   12.8890 N.ar      1 E50        -0.2615
      4 C4         -1.8940    5.8070   13.4560 C.ar      1 E50         0.0235
      5 C5         -0.9270    6.6330   12.8910 C.ar      1 E50         0.0024
      6 C6         -0.2560    6.1370   11.7460 C.ar      1 E50         0.0235
      7 S7         -1.7110    2.5940   11.0480 S.3       1 E50        -0.0402
      8 C8         -2.9990    1.9780   12.1560 C.3       1 E50         0.0872
      9 C9         -4.1790    2.9210   12.2730 C.2       1 E50         0.1455
     10 O10        -4.5440    3.5820   11.2440 O.2       1 E50        -0.3773
     11 C11        -0.5940    8.0310   13.4070 C.3       1 E50        -0.0142
     12 C12        -1.2990    8.3380   14.7670 C.3       1 E50        -0.0545
     13 C13        -4.8570    3.0830   13.6290 C.ar      1 E50         0.0355
     14 C14        -4.9810    2.0570   14.5510 C.ar      1 E50        -0.0159
     15 C15        -5.6200    2.2540   15.7720 C.ar      1 E50         0.1276
     16 C16        -6.0780    3.5460   16.0670 C.ar      1 E50         0.0719
     17 C17        -5.9080    4.5950   15.2060 C.ar      1 E50        -0.0401
     18 C18        -5.3010    4.3680   13.9620 C.ar      1 E50        -0.0425
     19 S19        -5.9820    0.8130   16.8060 S.o2      1 E50         0.0674
     20 O20        -5.3400    1.0550   18.0790 O.2       1 E50        -0.1504
     21 CL21       -6.8510    3.8100   17.5760 Cl        1 E50        -0.0643
     22 O22        -7.4370    0.7700   16.7900 O.2       1 E50        -0.1504
     23 N23        -5.4280   -0.4780   16.0830 N.am      1 E50        -0.2609
     24 H1         -2.4738    6.1288   14.3135 H         1 E50         0.0859
     25 H2          0.4864    6.7714   11.2754 H         1 E50         0.0859
     26 H3         -2.5631    1.8362   13.1559 H         1 E50         0.0630
     27 H4         -3.3589    1.0119   11.7725 H         1 E50         0.0630
     28 H5         -0.9216    8.7714   12.6624 H         1 E50         0.0434
     29 H6          0.4944    8.1079   13.5463 H         1 E50         0.0434
     30 H7         -1.0307    9.3520   15.0984 H         1 E50         0.0252
     31 H8         -0.9733    7.6074   15.5220 H         1 E50         0.0252
     32 H9         -2.3894    8.2709   14.6382 H         1 E50         0.0252
     33 H10        -4.5722    1.0807   14.3171 H         1 E50         0.0691
     34 H11        -6.2384    5.5899   15.4817 H         1 E50         0.0636
     35 H12        -5.1762    5.1851   13.2607 H         1 E50         0.0671
     36 H13        -5.5376   -1.3758   16.5095 H         1 E50         0.1635
     37 H14        -4.9678   -0.3973   15.1989 H         1 E50         0.1635
@<TRIPOS>BOND
     1    1    2 ar 
     2    1    6 ar 
     3    2    3 ar 
     4    2    7 1  
     5    3    4 ar 
     6    4    5 ar 
     7    5    6 ar 
     8    5   11 1  
     9    7    8 1  
    10    8    9 1  
    11    9   10 2  
    12    9   13 1  
    13   11   12 1  
    14   13   14 ar 
    15   13   18 ar 
    16   14   15 ar 
    17   15   16 ar 
    18   15   19 1  
    19   16   17 ar 
    20   16   21 1  
    21   17   18 ar 
    22   19   20 2  
    23   19   22 2  
    24   19   23 am 
    25    4   24 1  
    26    6   25 1  
    27    8   26 1  
    28    8   27 1  
    29   11   28 1  
    30   11   29 1  
    31   12   30 1  
    32   12   31 1  
    33   12   32 1  
    34   14   33 1  
    35   17   34 1  
    36   18   35 1  
    37   23   36 1  
    38   23   37 1  
@<TRIPOS>SUBSTRUCTURE
     1 E50         1

