### 
### Created by X-TOOL on Mon Sep 10 21:13:09 2018
### 

@<TRIPOS>MOLECULE
3saz_ligand
   21    21     1     0     0
SMALL
GAST_HUCK


@<TRIPOS>ATOM
      1 O01        39.0530   79.6030   63.3480 O.co2     1 043        -0.5483
      2 C02        37.7770   79.5560   63.8870 C.2       1 043         0.1148
      3 O03        37.6280   79.2350   65.0270 O.co2     1 043        -0.5483
      4 C04        36.6520   79.4250   62.8800 C.2       1 043         0.1605
      5 O05        36.6800   80.0830   61.8870 O.2       1 043        -0.3749
      6 C06        35.6950   78.2480   63.0560 C.2       1 043         0.0155
      7 C07        35.1030   77.6860   62.0230 C.2       1 043         0.1128
      8 O08        35.1400   78.2980   60.7730 O.3       1 043        -0.3189
      9 C09        34.2350   76.4460   62.2300 C.ar      1 043         0.0295
     10 C10        34.6030   75.4660   63.1940 C.ar      1 043        -0.0418
     11 C11        33.8100   74.3180   63.3840 C.ar      1 043        -0.0538
     12 C12        32.6420   74.1590   62.6010 C.ar      1 043        -0.0482
     13 C13        32.2880   75.1390   61.6400 C.ar      1 043         0.0183
     14 BR14       30.6870   74.9310   60.5700 Br        1 043        -0.0487
     15 C15        33.0750   76.2930   61.4460 C.ar      1 043        -0.0347
     16 H1         35.4982   77.8657   64.0565 H         1 043         0.0391
     17 H2         36.0433   78.3918   60.4942 H         1 043         0.2576
     18 H3         35.5003   75.6042   63.7863 H         1 043         0.0688
     19 H4         34.0892   73.5696   64.1168 H         1 043         0.0635
     20 H5         32.0158   73.2846   62.7366 H         1 043         0.0677
     21 H6         32.7949   77.0416   60.7137 H         1 043         0.0695
@<TRIPOS>BOND
     1    1    2 ar 
     2    2    3 ar 
     3    2    4 1  
     4    4    5 2  
     5    4    6 1  
     6    6    7 2  
     7    7    8 1  
     8    7    9 1  
     9    9   10 ar 
    10    9   15 ar 
    11   10   11 ar 
    12   11   12 ar 
    13   12   13 ar 
    14   13   14 1  
    15   13   15 ar 
    16    6   16 1  
    17    8   17 1  
    18   10   18 1  
    19   11   19 1  
    20   12   20 1  
    21   15   21 1  
@<TRIPOS>SUBSTRUCTURE
     1 043         1

