### 
### Created by X-TOOL on Mon Sep 10 21:13:09 2018
### 

@<TRIPOS>MOLECULE
3sb0_ligand
   24    24     1     0     0
SMALL
GAST_HUCK


@<TRIPOS>ATOM
      1 C01        30.9260   75.4860   60.6540 C.3       1 I93        -0.0314
      2 C02        32.2210   75.6340   61.3950 C.ar      1 I93        -0.0305
      3 C03        32.6740   74.6150   62.2560 C.ar      1 I93        -0.0573
      4 C04        33.8640   74.7240   62.9780 C.ar      1 I93        -0.0288
      5 C05        34.6580   75.8830   62.8600 C.ar      1 I93         0.1439
      6 F06        35.8160   75.9680   63.5570 F         1 I93        -0.1832
      7 C07        34.2480   76.9360   62.0140 C.ar      1 I93         0.0667
      8 C08        35.0950   78.1710   61.8500 C.2       1 I93         0.1271
      9 O09        35.3740   78.5240   60.6950 O.2       1 I93        -0.3928
     10 C10        35.9200   78.6940   62.9530 C.2       1 I93         0.0186
     11 C11        36.7470   79.7680   62.8430 C.2       1 I93         0.1441
     12 O12        36.7470   80.5560   61.7230 O.3       1 I93        -0.3106
     13 C13        37.8540   80.0620   63.7940 C.2       1 I93         0.1127
     14 O14        37.6960   79.7370   65.1020 O.co2     1 I93        -0.5511
     15 O15        39.0360   80.0260   63.4430 O.co2     1 I93        -0.5511
     16 C16        33.0420   76.7780   61.2980 C.ar      1 I93         0.0570
     17 CL17       32.5670   78.0730   60.3070 Cl        1 I93        -0.0726
     18 H1         30.4754   74.5117   60.8942 H         1 I93         0.0385
     19 H2         31.1138   75.5463   59.5718 H         1 I93         0.0385
     20 H3         30.2387   76.2913   60.9523 H         1 I93         0.0385
     21 H4         32.0782   73.7156   62.3615 H         1 I93         0.0583
     22 H5         34.1777   73.9167   63.6299 H         1 I93         0.0600
     23 H6         35.8641   78.1891   63.9163 H         1 I93         0.0443
     24 H7         36.9726   80.0283   60.9659 H         1 I93         0.2607
@<TRIPOS>BOND
     1    1    2 1  
     2    2    3 ar 
     3    2   16 ar 
     4    3    4 ar 
     5    4    5 ar 
     6    5    6 1  
     7    5    7 ar 
     8    7    8 1  
     9    7   16 ar 
    10    8    9 2  
    11    8   10 1  
    12   10   11 2  
    13   11   12 1  
    14   11   13 1  
    15   13   14 ar 
    16   13   15 ar 
    17   16   17 1  
    18    1   18 1  
    19    1   19 1  
    20    1   20 1  
    21    3   21 1  
    22    4   22 1  
    23   10   23 1  
    24   12   24 1  
@<TRIPOS>SUBSTRUCTURE
     1 I93         1

