### 
### Created by X-TOOL on Fri Sep 26 17:34:54 2014
### 

@<TRIPOS>MOLECULE
3sbh_ligand
   37    38     1     0     0
SMALL
GAST_HUCK


@<TRIPOS>ATOM
      1 N1         -1.3560    9.0120   11.4600 N.ar      1 E65        -0.2660
      2 C2         -1.5440    7.8500   12.1120 C.ar      1 E65         0.1492
      3 N3         -1.4420    7.9540   13.4360 N.ar      1 E65        -0.2660
      4 C4         -1.1900    9.0050   14.1490 C.ar      1 E65         0.0267
      5 C5         -1.0020   10.2410   13.5110 C.ar      1 E65        -0.0162
      6 C6         -1.0940   10.1920   12.1250 C.ar      1 E65         0.0267
      7 S7         -1.8870    6.1790   11.4530 S.3       1 E65        -0.0396
      8 C8         -2.0450    5.1780   12.9480 C.3       1 E65         0.0881
      9 C9         -3.5030    5.2490   13.3330 C.2       1 E65         0.1457
     10 O10        -4.1950    6.0990   12.8090 O.2       1 E65        -0.3773
     11 C11        -1.1360    8.7320   15.5790 C.3       1 E65        -0.0129
     12 C12        -0.8980   11.4970   11.3900 C.3       1 E65        -0.0129
     13 C13        -4.1800    4.2360   14.2170 C.ar      1 E65         0.0338
     14 C14        -3.3950    3.1790   14.5780 C.ar      1 E65        -0.0411
     15 C15        -3.9210    2.1820   15.4310 C.ar      1 E65        -0.0292
     16 C16        -5.2530    2.2380   15.7830 C.ar      1 E65         0.1125
     17 C17        -6.0630    3.2960   15.3870 C.ar      1 E65        -0.0292
     18 C18        -5.5460    4.3270   14.5820 C.ar      1 E65        -0.0411
     19 S19        -5.9030    0.8760   16.7610 S.o2      1 E65         0.0678
     20 O20        -7.3790    0.8960   16.5530 O.2       1 E65        -0.1499
     21 O21        -5.3080    1.0000   18.0900 O.2       1 E65        -0.1499
     22 N22        -5.2190   -0.4730   16.0140 N.am      1 E65        -0.2605
     23 H1         -0.8017   11.1575   14.0540 H         1 E65         0.0590
     24 H2         -1.4154    5.5869   13.7520 H         1 E65         0.0632
     25 H3         -1.7517    4.1373   12.7459 H         1 E65         0.0632
     26 H4         -0.9192    9.6636   16.1222 H         1 E65         0.0441
     27 H5         -0.3439    7.9963   15.7822 H         1 E65         0.0441
     28 H6         -2.1041    8.3300   15.9124 H         1 E65         0.0441
     29 H7         -0.7022   12.3005   12.1153 H         1 E65         0.0441
     30 H8         -1.8058   11.7345   10.8159 H         1 E65         0.0441
     31 H9         -0.0433   11.4065   10.7036 H         1 E65         0.0441
     32 H10        -2.3768    3.1049   14.2136 H         1 E65         0.0672
     33 H11        -3.2867    1.3854   15.8028 H         1 E65         0.0649
     34 H12        -7.1002    3.3267   15.7007 H         1 E65         0.0649
     35 H13        -6.1652    5.1546   14.2553 H         1 E65         0.0672
     36 H14        -5.4156   -1.3900   16.3610 H         1 E65         0.1635
     37 H15        -4.6170   -0.3556   15.2242 H         1 E65         0.1635
@<TRIPOS>BOND
     1    1    2 ar 
     2    1    6 ar 
     3    2    3 ar 
     4    2    7 1  
     5    3    4 ar 
     6    4    5 ar 
     7    4   11 1  
     8    5    6 ar 
     9    6   12 1  
    10    7    8 1  
    11    8    9 1  
    12    9   10 2  
    13    9   13 1  
    14   13   14 ar 
    15   13   18 ar 
    16   14   15 ar 
    17   15   16 ar 
    18   16   17 ar 
    19   16   19 1  
    20   17   18 ar 
    21   19   20 2  
    22   19   21 2  
    23   19   22 am 
    24    5   23 1  
    25    8   24 1  
    26    8   25 1  
    27   11   26 1  
    28   11   27 1  
    29   11   28 1  
    30   12   29 1  
    31   12   30 1  
    32   12   31 1  
    33   14   32 1  
    34   15   33 1  
    35   17   34 1  
    36   18   35 1  
    37   22   36 1  
    38   22   37 1  
@<TRIPOS>SUBSTRUCTURE
     1 E65         1

