### 
### Created by X-TOOL on Fri Sep 26 17:34:53 2014
### 

@<TRIPOS>MOLECULE
3sbi_ligand
   31    32     1     0     0
SMALL
GAST_HUCK


@<TRIPOS>ATOM
      1 N1         -1.4790    7.6830   14.3790 N.ar      1 E90        -0.2535
      2 C2         -1.4180    7.8330   13.0180 C.ar      1 E90         0.1694
      3 N3         -1.1600    8.9920   12.3710 N.ar      1 E90        -0.2535
      4 C4         -0.9880   10.1100   13.1510 C.ar      1 E90         0.0222
      5 C5         -0.9810   10.0090   14.5590 C.ar      1 E90        -0.0157
      6 C6         -1.3000    8.7590   15.1460 C.ar      1 E90         0.0222
      7 S7         -1.5940    6.5000   11.9640 S.3       1 E90        -0.0349
      8 C8         -2.1290    5.1910   13.1300 C.3       1 E90         0.0883
      9 C9         -3.6070    5.3290   13.5370 C.2       1 E90         0.1457
     10 O10        -4.3230    6.2820   13.1760 O.2       1 E90        -0.3773
     11 C11        -4.2050    4.2530   14.3930 C.ar      1 E90         0.0338
     12 C12        -3.4050    3.1720   14.8040 C.ar      1 E90        -0.0411
     13 C13        -3.9480    2.1640   15.5630 C.ar      1 E90        -0.0292
     14 C14        -5.3020    2.2080   15.8730 C.ar      1 E90         0.1125
     15 C15        -6.1250    3.2320   15.4790 C.ar      1 E90        -0.0292
     16 C16        -5.5450    4.2850   14.7680 C.ar      1 E90        -0.0411
     17 S17        -5.9470    0.8670   16.8390 S.o2      1 E90         0.0678
     18 O18        -5.3920    1.0640   18.1650 O.2       1 E90        -0.1499
     19 O19        -7.4020    0.9580   16.7000 O.2       1 E90        -0.1499
     20 N20        -5.3270   -0.5120   16.2250 N.am      1 E90        -0.2605
     21 H1         -0.8565   11.0780   12.6811 H         1 E90         0.0921
     22 H2         -0.7376   10.8664   15.1761 H         1 E90         0.0720
     23 H3         -1.3988    8.6774   16.2224 H         1 E90         0.0921
     24 H4         -1.5073    5.2501   14.0355 H         1 E90         0.0632
     25 H5         -1.9857    4.2116   12.6501 H         1 E90         0.0632
     26 H6         -2.3591    3.1341   14.5217 H         1 E90         0.0672
     27 H7         -3.3295    1.3463   15.9150 H         1 E90         0.0649
     28 H8         -7.1840    3.2244   15.7103 H         1 E90         0.0649
     29 H9         -6.1505    5.1442   14.5030 H         1 E90         0.0672
     30 H10        -5.5685   -1.3932   16.6314 H         1 E90         0.1635
     31 H11        -4.7056   -0.4758   15.4424 H         1 E90         0.1635
@<TRIPOS>BOND
     1    1    2 ar 
     2    1    6 ar 
     3    2    3 ar 
     4    2    7 1  
     5    3    4 ar 
     6    4    5 ar 
     7    5    6 ar 
     8    7    8 1  
     9    8    9 1  
    10    9   10 2  
    11    9   11 1  
    12   11   12 ar 
    13   11   16 ar 
    14   12   13 ar 
    15   13   14 ar 
    16   14   15 ar 
    17   14   17 1  
    18   15   16 ar 
    19   17   18 2  
    20   17   19 2  
    21   17   20 am 
    22    4   21 1  
    23    5   22 1  
    24    6   23 1  
    25    8   24 1  
    26    8   25 1  
    27   12   26 1  
    28   13   27 1  
    29   15   28 1  
    30   16   29 1  
    31   20   30 1  
    32   20   31 1  
@<TRIPOS>SUBSTRUCTURE
     1 E90         1

