### 
### Created by X-TOOL on Mon Sep 10 21:13:07 2018
### 

@<TRIPOS>MOLECULE
3sc1_ligand
   32    34     1     0     0
SMALL
GAST_HUCK


@<TRIPOS>ATOM
      1 C5         39.8330   26.8470   29.9360 C.ar      1 3S1        -0.0672
      2 C4         40.3460   25.6580   29.3700 C.ar      1 3S1        -0.0676
      3 C6         38.4790   27.2030   29.7150 C.ar      1 3S1        -0.0593
      4 C9         35.0630   26.1050   29.2490 C.ar      1 3S1        -0.0605
      5 C10        33.7370   26.5680   29.0820 C.ar      1 3S1        -0.0530
      6 C3         39.5130   24.8220   28.5820 C.ar      1 3S1        -0.0562
      7 C16        35.9300   28.0900   28.0760 C.ar      1 3S1        -0.0589
      8 C8         36.1850   26.8530   28.7500 C.ar      1 3S1        -0.0280
      9 C7         37.5920   26.3790   28.9180 C.ar      1 3S1        -0.0131
     10 C11        33.5050   27.8000   28.4080 C.ar      1 3S1         0.0463
     11 C15        34.6070   28.5760   27.9000 C.ar      1 3S1        -0.0360
     12 C2         38.1380   25.1530   28.3350 C.ar      1 3S1        -0.0077
     13 C14        34.3590   29.8630   27.2010 C.2       1 3S1        -0.0483
     14 C13        33.0840   30.2870   27.0580 C.2       1 3S1         0.0494
     15 C12        32.1120   28.3240   28.2170 C.2       1 3S1         0.2253
     16 C1         37.3580   24.1790   27.4690 C.3       1 3S1         0.0798
     17 N1         32.0130   29.5530   27.5420 N.am      1 3S1        -0.2249
     18 O2         31.1420   27.7020   28.6310 O.2       1 3S1        -0.3940
     19 O1         36.4770   23.4170   28.2790 O.3       1 3S1        -0.3819
     20 H          40.4758   27.4875   30.5399 H         1 3S1         0.0563
     21 H          41.3867   25.3817   29.5396 H         1 3S1         0.0606
     22 H          38.0940   28.1221   30.1567 H         1 3S1         0.0610
     23 H          35.2379   25.1618   29.7666 H         1 3S1         0.0544
     24 H          32.8994   25.9859   29.4664 H         1 3S1         0.0636
     25 H          39.9262   23.9083   28.1548 H         1 3S1         0.0559
     26 H          36.7680   28.6706   27.6901 H         1 3S1         0.0537
     27 H          35.1884   30.4532   26.8114 H         1 3S1         0.0287
     28 H          32.8929   31.2314   26.5484 H         1 3S1         0.1142
     29 H          38.0533   23.5092   26.9630 H         1 3S1         0.0729
     30 H          36.7798   24.7352   26.7312 H         1 3S1         0.0729
     31 H          31.0784   29.9349   27.3969 H         1 3S1         0.2488
     32 H          35.9867   22.8034   27.7270 H         1 3S1         0.2128
@<TRIPOS>BOND
     1    1    2 ar 
     2    3    1 ar 
     3    2    6 ar 
     4    9    3 ar 
     5    4    5 ar 
     6    8    4 ar 
     7    5   10 ar 
     8    6   12 ar 
     9    8    7 ar 
    10    7   11 ar 
    11    8    9 1  
    12    9   12 ar 
    13   10   11 ar 
    14   10   15 1  
    15   11   13 1  
    16   12   16 1  
    17   13   14 2  
    18   14   17 1  
    19   15   17 am 
    20   15   18 2  
    21   16   19 1  
    22    1   20 1  
    23    2   21 1  
    24    3   22 1  
    25    4   23 1  
    26    5   24 1  
    27    6   25 1  
    28    7   26 1  
    29   13   27 1  
    30   14   28 1  
    31   16   29 1  
    32   16   30 1  
    33   17   31 1  
    34   19   32 1  
@<TRIPOS>SUBSTRUCTURE
     1 3S1         1

