### 
### Created by X-TOOL on Mon Sep 10 21:13:11 2018
### 

@<TRIPOS>MOLECULE
3sd5_ligand
   50    53     1     0     0
SMALL
GAST_HUCK


@<TRIPOS>ATOM
      1 N01        28.9160   11.5250   20.1500 N.pl3     1 SD5        -0.3152
      2 C02        27.6550   11.9810   20.3000 C.ar      1 SD5         0.1421
      3 C03        26.9480   12.5400   19.2420 C.ar      1 SD5         0.0151
      4 C04        25.6580   13.0220   19.4400 C.ar      1 SD5         0.0649
      5 C05        25.0780   12.9350   20.7160 C.ar      1 SD5         0.0396
      6 C06        25.8620   12.3540   21.6950 C.ar      1 SD5         0.0381
      7 N07        27.1030   11.8870   21.5230 N.ar      1 SD5        -0.2485
      8 C08        23.7210   13.4740   21.0220 C.ar      1 SD5         0.0541
      9 C09        23.3360   14.7470   20.6350 C.ar      1 SD5         0.0048
     10 C10        22.0480   15.1540   20.9910 C.ar      1 SD5         0.1189
     11 N11        21.2300   14.3540   21.6730 N.ar      1 SD5        -0.2403
     12 C12        21.6910   13.1400   22.0070 C.ar      1 SD5         0.1762
     13 N13        22.9090   12.6450   21.7120 N.ar      1 SD5        -0.2657
     14 N14        20.8660   12.3460   22.7280 N.pl3     1 SD5        -0.2741
     15 C15        21.2260   11.0000   23.1610 C.3       1 SD5         0.0570
     16 C16        20.6610   10.7430   24.5330 C.3       1 SD5         0.0683
     17 O17        19.2500   10.9420   24.5650 O.3       1 SD5        -0.3757
     18 C18        18.9410   12.2810   24.1980 C.3       1 SD5         0.0683
     19 C19        19.4200   12.5930   22.8090 C.3       1 SD5         0.0570
     20 N20        21.5670   16.3920   20.6600 N.pl3     1 SD5        -0.2852
     21 C21        20.1650   16.7780   20.8630 C.3       1 SD5         0.0554
     22 C22        20.1070   18.0400   21.6720 C.3       1 SD5         0.0682
     23 O23        20.8560   19.0830   21.0640 O.3       1 SD5        -0.3757
     24 C24        22.2240   18.7050   20.9850 C.3       1 SD5         0.0682
     25 C25        22.4110   17.4690   20.1470 C.3       1 SD5         0.0554
     26 C26        24.9640   13.6300   18.2510 C.3       1 SD5         0.3831
     27 F27        25.5790   13.3660   17.1110 F         1 SD5        -0.2162
     28 F28        24.9020   14.9560   18.3210 F         1 SD5        -0.2162
     29 F29        23.7140   13.1880   18.1090 F         1 SD5        -0.2162
     30 H          29.3755   11.5856   19.2414 H         1 SD5         0.1783
     31 H          29.4097   11.1197   20.9452 H         1 SD5         0.1783
     32 H          27.4054   12.6009   18.2545 H         1 SD5         0.0847
     33 H          25.4316   12.2693   22.6928 H         1 SD5         0.0898
     34 H          24.0071   15.4011   20.0783 H         1 SD5         0.0603
     35 H          22.3116   10.9080   23.1932 H         1 SD5         0.0549
     36 H          20.8183   10.2725   22.4592 H         1 SD5         0.0549
     37 H          21.1231   11.4402   25.2319 H         1 SD5         0.0580
     38 H          20.8690    9.7076   24.8027 H         1 SD5         0.0580
     39 H          19.4389   12.9547   24.8953 H         1 SD5         0.0580
     40 H          17.8587   12.4070   24.2274 H         1 SD5         0.0580
     41 H          18.9002   11.9574   22.0921 H         1 SD5         0.0549
     42 H          19.2146   13.6383   22.5780 H         1 SD5         0.0549
     43 H          19.6416   15.9820   21.3927 H         1 SD5         0.0548
     44 H          19.6897   16.9436   19.8962 H         1 SD5         0.0548
     45 H          20.5305   17.8391   22.6561 H         1 SD5         0.0580
     46 H          19.0667   18.3576   21.7422 H         1 SD5         0.0580
     47 H          22.5814   18.4944   21.9930 H         1 SD5         0.0580
     48 H          22.7802   19.5209   20.5234 H         1 SD5         0.0580
     49 H          22.1316   17.6864   19.1161 H         1 SD5         0.0548
     50 H          23.4554   17.1597   20.1883 H         1 SD5         0.0548
@<TRIPOS>BOND
     1    1    2 1  
     2    2    3 ar 
     3    2    7 ar 
     4    3    4 ar 
     5    4    5 ar 
     6    4   26 1  
     7    5    6 ar 
     8    5    8 1  
     9    6    7 ar 
    10    8    9 ar 
    11    8   13 ar 
    12    9   10 ar 
    13   10   11 ar 
    14   10   20 1  
    15   11   12 ar 
    16   12   13 ar 
    17   12   14 1  
    18   14   15 1  
    19   14   19 1  
    20   15   16 1  
    21   16   17 1  
    22   17   18 1  
    23   18   19 1  
    24   20   21 1  
    25   20   25 1  
    26   21   22 1  
    27   22   23 1  
    28   23   24 1  
    29   24   25 1  
    30   26   27 1  
    31   26   28 1  
    32   26   29 1  
    33    1   30 1  
    34    1   31 1  
    35    3   32 1  
    36    6   33 1  
    37    9   34 1  
    38   15   35 1  
    39   15   36 1  
    40   16   37 1  
    41   16   38 1  
    42   18   39 1  
    43   18   40 1  
    44   19   41 1  
    45   19   42 1  
    46   21   43 1  
    47   21   44 1  
    48   22   45 1  
    49   22   46 1  
    50   24   47 1  
    51   24   48 1  
    52   25   49 1  
    53   25   50 1  
@<TRIPOS>SUBSTRUCTURE
     1 SD5         1

