### 
### Created by X-TOOL on Mon Sep 10 21:13:07 2018
### 

@<TRIPOS>MOLECULE
3sdg_ligand
   39    41     1     0     0
SMALL
GAST_HUCK


@<TRIPOS>ATOM
      1 O          14.0650   28.5710    0.9380 O.2       1 3SE        -0.3969
      2 C3         13.8150   28.9810    2.0640 C.2       1 3SE         0.1787
      3 C2         14.8510   29.7920    2.8360 C.3       1 3SE         0.0456
      4 C1         16.3980   29.5300    2.5510 C.3       1 3SE         0.0597
      5 C          16.9280   30.5910    1.6060 C.3       1 3SE         0.3922
      6 F2         16.1720   30.4340    0.5310 F         1 3SE        -0.1706
      7 F1         18.1230   30.4250    1.1110 F         1 3SE        -0.1706
      8 F          16.8250   31.8100    2.1510 F         1 3SE        -0.1706
      9 N          12.6610   28.6460    2.6630 N.am      1 3SE        -0.2728
     10 C8         12.4580   29.1150    4.0870 C.3       1 3SE         0.0367
     11 C7         11.0010   29.0190    4.5730 C.3       1 3SE        -0.0107
     12 C6         10.4150   27.7030    4.0390 C.3       1 3SE         0.0602
     13 C5         10.3440   27.7780    2.5100 C.3       1 3SE        -0.0107
     14 C4         11.7700   27.6770    2.0200 C.3       1 3SE         0.0367
     15 C9          9.0500   27.6030    4.4950 C.2       1 3SE         0.2244
     16 N2          7.9160   27.7350    3.7770 N.2       1 3SE        -0.2675
     17 C10         6.9550   27.6500    4.6620 C.2       1 3SE         0.1499
     18 N1          7.4170   27.4490    5.8890 N.2       1 3SE        -0.1065
     19 O1          8.8120   27.4440    5.7070 O.3       1 3SE        -0.1256
     20 C11         5.6070   27.7120    4.2260 C.2       1 3SE         0.1318
     21 S           4.2780   27.6730    5.2680 S.3       1 3SE        -0.0042
     22 C13         3.0490   27.8340    4.0360 C.2       1 3SE         0.0114
     23 C12         3.7960   27.9580    2.8600 C.2       1 3SE        -0.0151
     24 N3          5.1810   27.8860    2.9690 N.2       1 3SE        -0.3107
     25 H1         14.6818   29.5985    3.9055 H         1 3SE         0.0505
     26 H2         14.6575   30.8531    2.6202 H         1 3SE         0.0505
     27 H3         16.5231   28.5373    2.0940 H         1 3SE         0.0376
     28 H4         16.9567   29.5709    3.4976 H         1 3SE         0.0376
     29 H5         12.7772   30.1655    4.1546 H         1 3SE         0.0524
     30 H6         13.0848   28.4981    4.7476 H         1 3SE         0.0524
     31 H7         10.4209   29.8706    4.1879 H         1 3SE         0.0319
     32 H8         10.9720   29.0228    5.6726 H         1 3SE         0.0319
     33 H9         11.0149   26.8426    4.3704 H         1 3SE         0.0579
     34 H10         9.8985   28.7330    2.1947 H         1 3SE         0.0319
     35 H11         9.7442   26.9452    2.1141 H         1 3SE         0.0319
     36 H12        12.1428   26.6636    2.2298 H         1 3SE         0.0524
     37 H13        11.7820   27.8548    0.9345 H         1 3SE         0.0524
     38 H14         1.9665   27.8370    4.1548 H         1 3SE         0.0755
     39 H15         3.3118   28.1053    1.8957 H         1 3SE         0.0582
@<TRIPOS>BOND
     1    1    2 2  
     2    2    3 1  
     3    2    9 am 
     4    3    4 1  
     5    4    5 1  
     6    5    6 1  
     7    5    7 1  
     8    5    8 1  
     9    9   10 1  
    10    9   14 1  
    11   10   11 1  
    12   11   12 1  
    13   12   13 1  
    14   12   15 1  
    15   13   14 1  
    16   15   16 2  
    17   15   19 1  
    18   16   17 1  
    19   17   18 2  
    20   17   20 1  
    21   18   19 1  
    22   20   21 1  
    23   20   24 2  
    24   21   22 1  
    25   22   23 2  
    26   23   24 1  
    27    3   25 1  
    28    3   26 1  
    29    4   27 1  
    30    4   28 1  
    31   10   29 1  
    32   10   30 1  
    33   11   31 1  
    34   11   32 1  
    35   12   33 1  
    36   13   34 1  
    37   13   35 1  
    38   14   36 1  
    39   14   37 1  
    40   22   38 1  
    41   23   39 1  
@<TRIPOS>SUBSTRUCTURE
     1 3SE         1

