### 
### Created by X-TOOL on Mon Sep 10 21:13:11 2018
### 

@<TRIPOS>MOLECULE
3sdi_ligand
   83    85     1     0     0
SMALL
GAST_HUCK


@<TRIPOS>ATOM
      1 C4         12.3360 -137.0340   23.5980 C.2       1 3SD        -0.0165
      2 C5         12.6090 -136.2450   24.6440 C.2       1 3SD         0.1392
      3 C6         13.2450 -136.7120   25.9530 C.3       1 3SD         0.0097
      4 O1         12.2240 -134.9520   24.3750 O.3       1 3SD        -0.1606
      5 N2         11.6810 -134.9870   23.0520 N.2       1 3SD        -0.1328
      6 C3         11.7770 -136.2570   22.6550 C.2       1 3SD         0.1131
      7 C41        11.3340 -136.7860   21.2920 C.2       1 3SD         0.2114
      8 O42        11.7750 -137.8600   20.8980 O.2       1 3SD        -0.3853
      9 C8         10.0200 -136.4070   19.2650 C.3       1 3SD         0.1472
     10 C10        11.0530 -136.2400   18.1660 C.2       1 3SD         0.2062
     11 N7         10.5190 -136.0100   20.5870 N.am      1 3SD        -0.2628
     12 C9          8.8840 -135.5040   18.8300 C.3       1 3SD         0.0775
     13 C33         7.6010 -135.7020   19.6010 C.2       1 3SD         0.1805
     14 O35         7.3810 -136.7530   20.2130 O.2       1 3SD        -0.3968
     15 N34         6.7860 -134.6440   19.5070 N.am      1 3SD        -0.2863
     16 C36         5.4570 -134.5430   20.1410 C.3       1 3SD         0.0358
     17 C37         4.3610 -134.3240   19.0760 C.3       1 3SD        -0.0176
     18 C40         4.2890 -135.5300   18.1420 C.3       1 3SD        -0.0582
     19 C38         3.0060 -134.1330   19.7530 C.3       1 3SD        -0.0582
     20 C39         4.6540 -133.0800   18.2440 C.3       1 3SD        -0.0582
     21 O11        11.7240 -135.2190   18.0440 O.2       1 3SD        -0.3942
     22 N13        11.0660 -137.2370   17.2980 N.am      1 3SD        -0.2634
     23 C12        11.9100 -137.2240   16.1080 C.3       1 3SD         0.1327
     24 C15        10.9790 -136.9410   14.9310 C.2       1 3SD         0.2035
     25 O19         9.8290 -137.3720   14.9010 O.2       1 3SD        -0.3944
     26 C14        12.5730 -138.5820   15.9330 C.3       1 3SD        -0.0027
     27 C17        13.3890 -138.9120   17.1650 C.3       1 3SD        -0.0149
     28 C18        14.5740 -137.9600   17.3120 C.ar      1 3SD        -0.0428
     29 C28        15.5050 -137.8290   16.2720 C.ar      1 3SD        -0.0603
     30 C32        14.7310 -137.2340   18.4930 C.ar      1 3SD        -0.0603
     31 C29        16.6030 -136.9720   16.4020 C.ar      1 3SD        -0.0686
     32 C31        15.8270 -136.3730   18.6210 C.ar      1 3SD        -0.0686
     33 C30        16.7590 -136.2480   17.5800 C.ar      1 3SD        -0.0687
     34 C20        10.6780 -135.8640   12.8060 C.3       1 3SD         0.0615
     35 C21         9.9550 -134.5400   12.9930 C.ar      1 3SD        -0.0277
     36 C22        10.4650 -133.4020   12.3920 C.ar      1 3SD        -0.0649
     37 C24         8.6430 -132.1180   13.2900 C.ar      1 3SD        -0.0528
     38 C26         8.7860 -134.4760   13.7330 C.ar      1 3SD        -0.0649
     39 N16        11.4810 -136.1840   13.9760 N.am      1 3SD        -0.2747
     40 C23         9.8080 -132.1870   12.5480 C.ar      1 3SD        -0.0670
     41 C27         7.9230 -130.7770   13.4410 C.3       1 3SD        -0.0343
     42 C25         8.1320 -133.2620   13.8800 C.ar      1 3SD        -0.0670
     43 H          12.5303 -138.1041   23.5249 H         1 3SD         0.0312
     44 H          12.6088 -137.4666   26.4156 H         1 3SD         0.0449
     45 H          14.2263 -137.1392   25.7465 H         1 3SD         0.0449
     46 H          13.3518 -135.8621   26.6271 H         1 3SD         0.0449
     47 H           9.7304 -137.4511   19.3833 H         1 3SD         0.0826
     48 H          10.2314 -135.1118   20.9755 H         1 3SD         0.1879
     49 H           8.6703 -135.7380   17.7871 H         1 3SD         0.0551
     50 H           9.2066 -134.4774   19.0033 H         1 3SD         0.0551
     51 H           7.1076 -133.8482   18.9560 H         1 3SD         0.1851
     52 H           5.4568 -133.6959   20.8269 H         1 3SD         0.0525
     53 H           5.2496 -135.4702   20.6753 H         1 3SD         0.0525
     54 H           5.2504 -135.6612   17.6453 H         1 3SD         0.0236
     55 H           4.0529 -136.4228   18.7210 H         1 3SD         0.0236
     56 H           3.5125 -135.3638   17.3953 H         1 3SD         0.0236
     57 H           2.7656 -135.0203   20.3387 H         1 3SD         0.0236
     58 H           3.0484 -133.2635   20.4090 H         1 3SD         0.0236
     59 H           2.2400 -133.9793   18.9929 H         1 3SD         0.0236
     60 H           4.6893 -132.2078   18.8968 H         1 3SD         0.0236
     61 H           5.6140 -133.1983   17.7415 H         1 3SD         0.0236
     62 H           3.8674 -132.9478   17.5011 H         1 3SD         0.0236
     63 H          10.4649 -138.0437   17.4661 H         1 3SD         0.1883
     64 H          12.6976 -136.4741   16.1814 H         1 3SD         0.0801
     65 H          13.2274 -138.5557   15.0617 H         1 3SD         0.0334
     66 H          11.8062 -139.3437   15.7920 H         1 3SD         0.0334
     67 H          13.7690 -139.9291   17.0691 H         1 3SD         0.0428
     68 H          12.7507 -138.8119   18.0428 H         1 3SD         0.0428
     69 H          15.3720 -138.4004   15.3533 H         1 3SD         0.0557
     70 H          14.0104 -137.3359   19.3044 H         1 3SD         0.0557
     71 H          17.3259 -136.8728   15.5922 H         1 3SD         0.0599
     72 H          15.9573 -135.7954   19.5362 H         1 3SD         0.0599
     73 H          17.6117 -135.5788   17.6948 H         1 3SD         0.0559
     74 H          11.3348 -135.7864   11.9395 H         1 3SD         0.0670
     75 H           9.9380 -136.6512   12.6617 H         1 3SD         0.0670
     76 H          11.3778 -133.4585   11.7990 H         1 3SD         0.0540
     77 H           8.3820 -135.3755   14.1976 H         1 3SD         0.0540
     78 H          12.4315 -135.8229   14.0572 H         1 3SD         0.1877
     79 H          10.2118 -131.2869   12.0846 H         1 3SD         0.0540
     80 H           8.5896 -130.0601   13.9204 H         1 3SD         0.0378
     81 H           7.6367 -130.4069   12.4565 H         1 3SD         0.0378
     82 H           7.0314 -130.9117   14.0533 H         1 3SD         0.0378
     83 H           7.2121 -133.2080   14.4622 H         1 3SD         0.0540
@<TRIPOS>BOND
     1    1    2 2  
     2    6    1 1  
     3    2    3 1  
     4    4    2 1  
     5    5    4 1  
     6    6    5 2  
     7    7    6 1  
     8    7    8 2  
     9   11    7 am 
    10   10    9 1  
    11    9   11 1  
    12    9   12 1  
    13   10   21 2  
    14   22   10 am 
    15   12   13 1  
    16   13   14 2  
    17   13   15 am 
    18   15   16 1  
    19   16   17 1  
    20   17   18 1  
    21   17   19 1  
    22   17   20 1  
    23   23   22 1  
    24   24   23 1  
    25   23   26 1  
    26   24   25 2  
    27   39   24 am 
    28   26   27 1  
    29   27   28 1  
    30   28   29 ar 
    31   28   30 ar 
    32   29   31 ar 
    33   30   32 ar 
    34   31   33 ar 
    35   32   33 ar 
    36   34   35 1  
    37   34   39 1  
    38   35   36 ar 
    39   35   38 ar 
    40   36   40 ar 
    41   40   37 ar 
    42   37   41 1  
    43   37   42 ar 
    44   38   42 ar 
    45    1   43 1  
    46    3   44 1  
    47    3   45 1  
    48    3   46 1  
    49    9   47 1  
    50   11   48 1  
    51   12   49 1  
    52   12   50 1  
    53   15   51 1  
    54   16   52 1  
    55   16   53 1  
    56   18   54 1  
    57   18   55 1  
    58   18   56 1  
    59   19   57 1  
    60   19   58 1  
    61   19   59 1  
    62   20   60 1  
    63   20   61 1  
    64   20   62 1  
    65   22   63 1  
    66   23   64 1  
    67   26   65 1  
    68   26   66 1  
    69   27   67 1  
    70   27   68 1  
    71   29   69 1  
    72   30   70 1  
    73   31   71 1  
    74   32   72 1  
    75   33   73 1  
    76   34   74 1  
    77   34   75 1  
    78   36   76 1  
    79   38   77 1  
    80   39   78 1  
    81   40   79 1  
    82   41   80 1  
    83   41   81 1  
    84   41   82 1  
    85   42   83 1  
@<TRIPOS>SUBSTRUCTURE
     1 3SD         1

