### 
### Created by X-TOOL on Mon Sep 10 21:13:11 2018
### 

@<TRIPOS>MOLECULE
3sdk_ligand
   81    84     1     0     0
SMALL
GAST_HUCK


@<TRIPOS>ATOM
      1 C32        13.0760 -136.8700   24.3700 C.2       1 P3N        -0.0165
      2 C28        13.1250 -135.9940   25.3790 C.2       1 P3N         0.1392
      3 C35        14.0100 -136.1210   26.6260 C.3       1 P3N         0.0097
      4 O29        12.2610 -134.9570   25.1400 O.3       1 P3N        -0.1606
      5 N30        11.6600 -135.2440   23.8890 N.2       1 P3N        -0.1328
      6 C31        12.1910 -136.3950   23.4770 C.2       1 P3N         0.1131
      7 C33        11.8110 -137.0920   22.1660 C.2       1 P3N         0.2114
      8 O34        12.3840 -138.1270   21.8220 O.2       1 P3N        -0.3853
      9 C5         11.1310 -136.7100   18.9990 C.2       1 P3N         0.2069
     10 C41         6.3280 -137.1890   25.2450 C.3       1 P3N        -0.0819
     11 C40         6.9910 -138.3470   24.5060 C.3       1 P3N        -0.0230
     12 C42         6.0640 -139.5660   24.5640 C.3       1 P3N        -0.0819
     13 C43         8.3390 -138.7150   25.1330 C.3       1 P3N        -0.0819
     14 C37         7.1970 -137.9570   23.0210 C.2       1 P3N         0.1019
     15 N36         8.2400 -137.2990   22.4940 N.2       1 P3N        -0.2668
     16 N38         6.3240 -138.2580   22.0630 N.2       1 P3N        -0.0469
     17 O39         6.8480 -137.7570   20.8500 O.3       1 P3N        -0.0775
     18 C1          8.0270 -137.1700   21.1680 C.2       1 P3N         0.2483
     19 C2          8.8840 -136.5190   20.0830 C.3       1 P3N         0.0901
     20 C3         10.2900 -137.0530   20.2220 C.3       1 P3N         0.1498
     21 N4         10.8390 -136.5020   21.4720 N.am      1 P3N        -0.2622
     22 O6         11.8210 -135.6970   18.9660 O.2       1 P3N        -0.3941
     23 N8         11.0660 -137.6010   18.0110 N.am      1 P3N        -0.2634
     24 C7         11.8210 -137.4640   16.7520 C.3       1 P3N         0.1327
     25 C10        10.8530 -137.2000   15.6110 C.2       1 P3N         0.2035
     26 O14         9.7240 -137.6750   15.6180 O.2       1 P3N        -0.3944
     27 C9         12.5500 -138.7610   16.4370 C.3       1 P3N        -0.0027
     28 C12        13.3990 -139.2260   17.6010 C.3       1 P3N        -0.0149
     29 C13        14.6450 -138.3620   17.7330 C.ar      1 P3N        -0.0428
     30 C23        15.5120 -138.2090   16.6510 C.ar      1 P3N        -0.0603
     31 C27        14.9140 -137.7230   18.9370 C.ar      1 P3N        -0.0603
     32 C24        16.6620 -137.4260   16.7690 C.ar      1 P3N        -0.0686
     33 C26        16.0590 -136.9300   19.0580 C.ar      1 P3N        -0.0686
     34 C25        16.9330 -136.7860   17.9740 C.ar      1 P3N        -0.0687
     35 C15        10.5260 -136.1500   13.4480 C.3       1 P3N         0.0615
     36 C16         9.8040 -134.8120   13.6220 C.ar      1 P3N        -0.0277
     37 C17         8.6620 -134.7120   14.4080 C.ar      1 P3N        -0.0649
     38 C19         8.5310 -132.3620   13.8740 C.ar      1 P3N        -0.0528
     39 C21        10.2990 -133.6930   12.9620 C.ar      1 P3N        -0.0649
     40 N11        11.3340 -136.4650   14.6210 N.am      1 P3N        -0.2747
     41 C18         8.0310 -133.4780   14.5350 C.ar      1 P3N        -0.0670
     42 C22         7.8450 -131.0070   14.0050 C.3       1 P3N        -0.0343
     43 C20         9.6660 -132.4640   13.0910 C.ar      1 P3N        -0.0670
     44 H          13.6464 -137.7951   24.2873 H         1 P3N         0.0312
     45 H          13.7566 -137.0380   27.1580 H         1 P3N         0.0449
     46 H          15.0572 -136.1515   26.3252 H         1 P3N         0.0449
     47 H          13.8427 -135.2634   27.2776 H         1 P3N         0.0449
     48 H           5.3764 -136.9529   24.7687 H         1 P3N         0.0139
     49 H           6.1555 -137.4733   26.2830 H         1 P3N         0.0139
     50 H           6.9800 -136.3162   25.2095 H         1 P3N         0.0139
     51 H           5.8925 -139.8412   25.6046 H         1 P3N         0.0139
     52 H           5.1134 -139.3208   24.0903 H         1 P3N         0.0139
     53 H           6.5291 -140.3999   24.0382 H         1 P3N         0.0139
     54 H           9.0046 -137.8528   25.0923 H         1 P3N         0.0139
     55 H           8.1870 -139.0096   26.1714 H         1 P3N         0.0139
     56 H           8.7814 -139.5436   24.5800 H         1 P3N         0.0139
     57 H           8.8783 -135.4349   20.1962 H         1 P3N         0.0600
     58 H           8.4863 -136.7534   19.0956 H         1 P3N         0.0600
     59 H          10.2968 -138.1417   20.2743 H         1 P3N         0.0834
     60 H          10.4560 -135.6247   21.8242 H         1 P3N         0.1879
     61 H          10.4655 -138.4167   18.1311 H         1 P3N         0.1883
     62 H          12.5316 -136.6449   16.8625 H         1 P3N         0.0801
     63 H          13.2050 -138.5871   15.5832 H         1 P3N         0.0334
     64 H          11.8063 -139.5296   16.2269 H         1 P3N         0.0334
     65 H          13.7017 -140.2586   17.4274 H         1 P3N         0.0428
     66 H          12.8152 -139.1469   18.5181 H         1 P3N         0.0428
     67 H          15.2900 -138.7046   15.7059 H         1 P3N         0.0557
     68 H          14.2361 -137.8393   19.7826 H         1 P3N         0.0557
     69 H          17.3418 -137.3171   15.9239 H         1 P3N         0.0599
     70 H          16.2718 -136.4225   19.9989 H         1 P3N         0.0599
     71 H          17.8275 -136.1713   18.0743 H         1 P3N         0.0559
     72 H          11.1816 -136.0831   12.5797 H         1 P3N         0.0670
     73 H           9.7810 -136.9346   13.3158 H         1 P3N         0.0670
     74 H           8.2654 -135.5895   14.9188 H         1 P3N         0.0540
     75 H          11.1894 -133.7810   12.3395 H         1 P3N         0.0540
     76 H          12.2891 -136.1116   14.6794 H         1 P3N         0.1877
     77 H           7.1400 -133.3861   15.1561 H         1 P3N         0.0540
     78 H           6.8203 -131.0833   13.6414 H         1 P3N         0.0378
     79 H           7.8387 -130.7041   15.0520 H         1 P3N         0.0378
     80 H           8.3872 -130.2681   13.4149 H         1 P3N         0.0378
     81 H          10.0607 -131.5864   12.5790 H         1 P3N         0.0540
@<TRIPOS>BOND
     1    1    2 2  
     2    6    1 1  
     3    2    3 1  
     4    4    2 1  
     5    5    4 1  
     6    6    5 2  
     7    7    6 1  
     8    7    8 2  
     9   21    7 am 
    10    9   20 1  
    11    9   22 2  
    12   23    9 am 
    13   11   10 1  
    14   11   12 1  
    15   11   13 1  
    16   14   11 1  
    17   15   14 1  
    18   16   14 2  
    19   18   15 2  
    20   17   16 1  
    21   18   17 1  
    22   19   18 1  
    23   20   19 1  
    24   20   21 1  
    25   24   23 1  
    26   25   24 1  
    27   24   27 1  
    28   25   26 2  
    29   40   25 am 
    30   27   28 1  
    31   28   29 1  
    32   29   30 ar 
    33   29   31 ar 
    34   30   32 ar 
    35   31   33 ar 
    36   32   34 ar 
    37   33   34 ar 
    38   35   36 1  
    39   35   40 1  
    40   36   37 ar 
    41   36   39 ar 
    42   37   41 ar 
    43   41   38 ar 
    44   38   42 1  
    45   38   43 ar 
    46   39   43 ar 
    47    1   44 1  
    48    3   45 1  
    49    3   46 1  
    50    3   47 1  
    51   10   48 1  
    52   10   49 1  
    53   10   50 1  
    54   12   51 1  
    55   12   52 1  
    56   12   53 1  
    57   13   54 1  
    58   13   55 1  
    59   13   56 1  
    60   19   57 1  
    61   19   58 1  
    62   20   59 1  
    63   21   60 1  
    64   23   61 1  
    65   24   62 1  
    66   27   63 1  
    67   27   64 1  
    68   28   65 1  
    69   28   66 1  
    70   30   67 1  
    71   31   68 1  
    72   32   69 1  
    73   33   70 1  
    74   34   71 1  
    75   35   72 1  
    76   35   73 1  
    77   37   74 1  
    78   39   75 1  
    79   40   76 1  
    80   41   77 1  
    81   42   78 1  
    82   42   79 1  
    83   42   80 1  
    84   43   81 1  
@<TRIPOS>SUBSTRUCTURE
     1 P3N         1

