### 
### Created by X-TOOL on Mon Sep 10 21:13:07 2018
### 

@<TRIPOS>MOLECULE
3sfc_ligand
   69    74     1     0     0
SMALL
GAST_HUCK


@<TRIPOS>ATOM
      1 N1         -8.2010  -25.4440   -4.6860 N.ar      1 S53        -0.3224
      2 C2         -9.0140  -24.4920   -4.1550 C.ar      1 S53         0.0542
      3 C3         -8.6120  -23.8740   -2.9430 C.ar      1 S53         0.1140
      4 C4         -7.4050  -24.2630   -2.3440 C.ar      1 S53        -0.0042
      5 C5         -6.6020  -25.2550   -2.9200 C.ar      1 S53        -0.0622
      6 C6         -7.0360  -25.8340   -4.1200 C.ar      1 S53        -0.0244
      7 N9         -9.1480  -22.9110   -2.1400 N.pl3     1 S53        -0.1709
      8 C10        -8.3500  -22.6660   -1.1110 C.2       1 S53         0.2587
      9 C11        -7.2740  -23.5190   -1.1680 C.2       1 S53         0.0907
     10 C12       -10.3080  -22.2320   -2.2960 C.ar      1 S53         0.0966
     11 C13       -10.3720  -20.8430   -2.5530 C.ar      1 S53        -0.0295
     12 C14       -11.5780  -20.1550   -2.7080 C.ar      1 S53        -0.0676
     13 C15       -12.7820  -20.8470   -2.6150 C.ar      1 S53        -0.0702
     14 C16       -12.7650  -22.2190   -2.3580 C.ar      1 S53        -0.0676
     15 C17       -11.5500  -22.8900   -2.1960 C.ar      1 S53        -0.0295
     16 C23       -10.2580  -24.1710   -4.9650 C.3       1 S53         0.0264
     17 C24       -10.1650  -22.7490   -5.5300 C.ar      1 S53        -0.0306
     18 C27       -11.3380  -22.0070   -5.7340 C.ar      1 S53        -0.0581
     19 C28       -11.2690  -20.6960   -6.2410 C.ar      1 S53        -0.0681
     20 C29       -10.0230  -20.1060   -6.5540 C.ar      1 S53        -0.0684
     21 C30        -8.8530  -20.8460   -6.3540 C.ar      1 S53        -0.0681
     22 C31        -8.9300  -22.1510   -5.8500 C.ar      1 S53        -0.0581
     23 O37        -8.6470  -21.7510   -0.1340 O.3       1 S53        -0.2153
     24 C38        -8.3410  -21.9200    1.1770 C.ar      1 S53         0.1277
     25 C39        -8.8610  -23.0160    1.8550 C.ar      1 S53         0.0003
     26 C40        -8.5390  -23.2050    3.1920 C.ar      1 S53         0.1180
     27 C41        -7.7000  -22.3050    3.8450 C.ar      1 S53        -0.0449
     28 C42        -7.1830  -21.2030    3.1590 C.ar      1 S53        -0.0690
     29 C43        -7.5050  -21.0120    1.8140 C.ar      1 S53        -0.0139
     30 C47        -6.9490  -19.8250    1.0610 C.3       1 S53        -0.0338
     31 F51        -9.0430  -24.2690    3.8290 F         1 S53        -0.1918
     32 C52        -6.0580  -23.5950   -0.3070 C.2       1 S53         0.1728
     33 N53        -5.6620  -24.6380    0.4180 N.am      1 S53        -0.2707
     34 O54        -5.3880  -22.5700   -0.3210 O.2       1 S53        -0.4121
     35 C55        -6.4070  -25.8980    0.4710 C.3       1 S53         0.0722
     36 C56        -6.6750  -26.1630    1.9420 C.3       1 S53        -0.0130
     37 N57        -5.4490  -26.1350    2.7110 N.4       1 S53         0.2298
     38 C58        -4.6400  -24.9410    2.6530 C.3       1 S53        -0.0130
     39 C59        -4.4090  -24.5430    1.2000 C.3       1 S53         0.0722
     40 H1         -5.6744  -25.5651   -2.4526 H         1 S53         0.0528
     41 H2         -6.4345  -26.5990   -4.5976 H         1 S53         0.0658
     42 H3         -9.4446  -20.2876   -2.6333 H         1 S53         0.0571
     43 H4        -11.5760  -19.0881   -2.8996 H         1 S53         0.0596
     44 H5        -13.7240  -20.3255   -2.7409 H         1 S53         0.0546
     45 H6        -13.6979  -22.7660   -2.2838 H         1 S53         0.0596
     46 H7        -11.5634  -23.9534   -1.9862 H         1 S53         0.0571
     47 H8        -11.1439  -24.2482   -4.3176 H         1 S53         0.0599
     48 H9        -10.3468  -24.8873   -5.7950 H         1 S53         0.0599
     49 H10       -12.3015  -22.4453   -5.5001 H         1 S53         0.0561
     50 H11       -12.1821  -20.1319   -6.3933 H         1 S53         0.0600
     51 H12        -9.9750  -19.0954   -6.9431 H         1 S53         0.0561
     52 H13        -7.8884  -20.4106   -6.5885 H         1 S53         0.0600
     53 H14        -8.0161  -22.7150   -5.7025 H         1 S53         0.0561
     54 H15        -9.5119  -23.7167    1.3446 H         1 S53         0.0524
     55 H16        -7.4476  -22.4599    4.8878 H         1 S53         0.0503
     56 H17        -6.5348  -20.4995    3.6688 H         1 S53         0.0520
     57 H18        -7.3125  -19.8463    0.0230 H         1 S53         0.0364
     58 H19        -5.8499  -19.8699    1.0656 H         1 S53         0.0364
     59 H20        -7.2800  -18.8950    1.5464 H         1 S53         0.0364
     60 H21        -5.8096  -26.7140    0.0382 H         1 S53         0.0573
     61 H22        -7.3547  -25.8054   -0.0797 H         1 S53         0.0573
     62 H23        -7.1429  -27.1528    2.0488 H         1 S53         0.0834
     63 H24        -7.3577  -25.3912    2.3270 H         1 S53         0.0834
     64 H25        -4.8768  -26.9006    2.3909 H         1 S53         0.2015
     65 H26        -5.6975  -26.2821    3.6768 H         1 S53         0.2015
     66 H27        -3.6712  -25.1326    3.1374 H         1 S53         0.0834
     67 H28        -5.1570  -24.1239    3.1775 H         1 S53         0.0834
     68 H29        -4.0409  -23.5070    1.1651 H         1 S53         0.0573
     69 H30        -3.6577  -25.2142    0.7584 H         1 S53         0.0573
@<TRIPOS>BOND
     1    1    2 ar 
     2    1    6 ar 
     3    2    3 ar 
     4    2   16 1  
     5    3    4 ar 
     6    3    7 1  
     7    4    5 ar 
     8    4    9 1  
     9    5    6 ar 
    10    7    8 1  
    11    7   10 1  
    12    8    9 2  
    13    8   23 1  
    14    9   32 1  
    15   10   11 ar 
    16   10   15 ar 
    17   11   12 ar 
    18   12   13 ar 
    19   13   14 ar 
    20   14   15 ar 
    21   16   17 1  
    22   17   18 ar 
    23   17   22 ar 
    24   18   19 ar 
    25   19   20 ar 
    26   20   21 ar 
    27   21   22 ar 
    28   23   24 1  
    29   24   25 ar 
    30   24   29 ar 
    31   25   26 ar 
    32   26   27 ar 
    33   26   31 1  
    34   27   28 ar 
    35   28   29 ar 
    36   29   30 1  
    37   32   33 am 
    38   32   34 2  
    39   33   35 1  
    40   33   39 1  
    41   35   36 1  
    42   36   37 1  
    43   37   38 1  
    44   38   39 1  
    45    5   40 1  
    46    6   41 1  
    47   11   42 1  
    48   12   43 1  
    49   13   44 1  
    50   14   45 1  
    51   15   46 1  
    52   16   47 1  
    53   16   48 1  
    54   18   49 1  
    55   19   50 1  
    56   20   51 1  
    57   21   52 1  
    58   22   53 1  
    59   25   54 1  
    60   27   55 1  
    61   28   56 1  
    62   30   57 1  
    63   30   58 1  
    64   30   59 1  
    65   35   60 1  
    66   35   61 1  
    67   36   62 1  
    68   36   63 1  
    69   37   64 1  
    70   37   65 1  
    71   38   66 1  
    72   38   67 1  
    73   39   68 1  
    74   39   69 1  
@<TRIPOS>SUBSTRUCTURE
     1 S53         1

