### 
### Created by X-TOOL on Mon Sep 10 21:13:06 2018
### 

@<TRIPOS>MOLECULE
3sff_ligand
   49    51     1     0     0
SMALL
GAST_HUCK


@<TRIPOS>ATOM
      1 C1         10.0800   13.0350  -25.9630 C.3       1 0DI         0.0537
      2 F1         14.3950   10.5630  -23.7870 F         1 0DI        -0.1857
      3 N1         10.9380   14.2270  -26.2280 N.am      1 0DI        -0.2692
      4 O1          6.7760   15.7730  -24.1880 O.2       1 0DI        -0.3905
      5 CL1         7.2110   17.2190  -19.4190 Cl        1 0DI        -0.0725
      6 C2          9.2970   13.1780  -24.6410 C.3       1 0DI         0.0544
      7 F2         13.3450   12.9500  -28.6500 F         1 0DI        -0.1807
      8 N2          8.6060   14.5030  -24.5790 N.am      1 0DI        -0.2646
      9 O2         12.9590   15.2490  -26.5970 O.2       1 0DI        -0.3868
     10 C3          9.4820   15.6600  -24.9240 C.3       1 0DI         0.0544
     11 N3          4.9310   13.7720  -23.8810 N.4       1 0DI         0.2394
     12 C4         10.1730   15.4920  -26.2970 C.3       1 0DI         0.0537
     13 C5          7.3000   14.6490  -24.2020 C.2       1 0DI         0.2291
     14 C6          6.3740   13.4740  -23.7800 C.3       1 0DI         0.0745
     15 C7          6.7920   12.9300  -22.3850 C.3       1 0DI         0.0416
     16 C8          6.2650   13.7250  -21.2040 C.ar      1 0DI        -0.0349
     17 C9          6.9330   14.9270  -20.8290 C.ar      1 0DI        -0.0461
     18 C10         6.4290   15.7180  -19.7710 C.ar      1 0DI         0.0338
     19 C11         5.3370   15.2550  -19.0020 C.ar      1 0DI        -0.0548
     20 C12         4.7060   14.0400  -19.3400 C.ar      1 0DI        -0.0680
     21 C13         5.1450   13.2810  -20.4550 C.ar      1 0DI        -0.0599
     22 C14        12.3020   14.2300  -26.3640 C.2       1 0DI         0.2059
     23 C15        13.0870   12.9520  -26.2770 C.ar      1 0DI         0.0817
     24 C16        13.5980   12.3670  -27.4580 C.ar      1 0DI         0.1491
     25 C17        14.3640   11.1780  -27.4120 C.ar      1 0DI        -0.0240
     26 C18        14.5960   10.5650  -26.1670 C.ar      1 0DI        -0.0256
     27 C19        14.1160   11.1570  -24.9750 C.ar      1 0DI         0.1334
     28 C20        13.3590   12.3550  -25.0150 C.ar      1 0DI        -0.0101
     29 H1         10.7192   12.1417  -25.9039 H         1 0DI         0.0542
     30 H2          9.3644   12.9198  -26.7904 H         1 0DI         0.0542
     31 H3          9.9962   13.0951  -23.7959 H         1 0DI         0.0542
     32 H4          8.5470   12.3759  -24.5764 H         1 0DI         0.0542
     33 H5         10.2566   15.7592  -24.1493 H         1 0DI         0.0542
     34 H6          8.8680   16.5724  -24.9476 H         1 0DI         0.0542
     35 H7          4.4003   12.9653  -23.5917 H         1 0DI         0.2017
     36 H8          4.7011   14.0007  -24.8354 H         1 0DI         0.2017
     37 H9          4.7067   14.5532  -23.2848 H         1 0DI         0.2017
     38 H10         9.4205   15.4383  -27.0975 H         1 0DI         0.0542
     39 H11        10.8512   16.3368  -26.4874 H         1 0DI         0.0542
     40 H12         6.5606   12.6625  -24.4987 H         1 0DI         0.1122
     41 H13         7.8908   12.9299  -22.3336 H         1 0DI         0.0507
     42 H14         6.4206   11.8985  -22.2953 H         1 0DI         0.0507
     43 H15         7.8289   15.2352  -21.3558 H         1 0DI         0.0562
     44 H16         4.9855   15.8325  -18.1546 H         1 0DI         0.0565
     45 H17         3.8763   13.6821  -18.7411 H         1 0DI         0.0599
     46 H18         4.6288   12.3691  -20.7325 H         1 0DI         0.0558
     47 H19        14.7657   10.7463  -28.3216 H         1 0DI         0.0606
     48 H20        15.1465    9.6323  -26.1207 H         1 0DI         0.0630
     49 H21        12.9940   12.8079  -24.1002 H         1 0DI         0.0645
@<TRIPOS>BOND
     1    3    1 1  
     2    1    6 1  
     3   27    2 1  
     4    3   12 1  
     5   22    3 am 
     6   13    4 2  
     7   18    5 1  
     8    6    8 1  
     9   24    7 1  
    10   10    8 1  
    11    8   13 am 
    12   22    9 2  
    13   12   10 1  
    14   14   11 1  
    15   13   14 1  
    16   14   15 1  
    17   15   16 1  
    18   16   17 ar 
    19   16   21 ar 
    20   17   18 ar 
    21   18   19 ar 
    22   20   19 ar 
    23   21   20 ar 
    24   23   22 1  
    25   24   23 ar 
    26   23   28 ar 
    27   25   24 ar 
    28   26   25 ar 
    29   26   27 ar 
    30   27   28 ar 
    31    1   29 1  
    32    1   30 1  
    33    6   31 1  
    34    6   32 1  
    35   10   33 1  
    36   10   34 1  
    37   11   35 1  
    38   11   36 1  
    39   11   37 1  
    40   12   38 1  
    41   12   39 1  
    42   14   40 1  
    43   15   41 1  
    44   15   42 1  
    45   17   43 1  
    46   19   44 1  
    47   20   45 1  
    48   21   46 1  
    49   25   47 1  
    50   26   48 1  
    51   28   49 1  
@<TRIPOS>SUBSTRUCTURE
     1 0DI         1

