### 
### Created by X-TOOL on Mon Sep 10 21:13:10 2018
### 

@<TRIPOS>MOLECULE
3sfg_ligand
   29    30     1     0     0
SMALL
GAST_HUCK


@<TRIPOS>ATOM
      1 N1         45.6260    0.8660   25.8400 N.am      1 2TU        -0.1720
      2 C2         45.3410    2.2300   25.9460 C.2       1 2TU         0.2057
      3 S2         46.4400    3.3370   25.1870 S.2       1 2TU        -0.2841
      4 N3         44.2350    2.6250   26.6130 N.am      1 2TU        -0.1984
      5 C4         43.4120    1.7070   27.1830 C.2       1 2TU         0.1914
      6 O4         42.3900    2.0860   27.8100 O.2       1 2TU        -0.4089
      7 C5         43.7000    0.3430   27.0750 C.2       1 2TU         0.0135
      8 C6         44.8330   -0.0650   26.3820 C.2       1 2TU         0.0660
      9 C1'        46.8290    0.5220   25.0860 C.3       1 2TU         0.2097
     10 C2'        47.5130   -0.7510   25.5630 C.3       1 2TU         0.1404
     11 O2'        48.3410   -0.5030   26.6820 O.3       1 2TU        -0.3834
     12 C3'        48.2480   -1.1930   24.2900 C.3       1 2TU         0.1147
     13 O3'        49.4750   -0.4760   24.1710 O.3       1 2TU        -0.3864
     14 C4'        47.2960   -0.7540   23.1720 C.3       1 2TU         0.1137
     15 O4'        46.4590    0.2890   23.7400 O.3       1 2TU        -0.3353
     16 C5'        46.4120   -1.8440   22.6020 C.3       1 2TU         0.0730
     17 O5'        45.4070   -1.3140   21.7380 O.3       1 2TU        -0.3924
     18 H1         44.0208    3.5989   26.6876 H         1 2TU         0.2375
     19 H2         43.0409   -0.3944   27.5309 H         1 2TU         0.0299
     20 H3         45.0710   -1.1230   26.2819 H         1 2TU         0.1196
     21 H4         47.5387    1.3601   25.1486 H         1 2TU         0.1020
     22 H5         46.7699   -1.5095   25.8503 H         1 2TU         0.0678
     23 H6         49.0098    0.1291   26.4458 H         1 2TU         0.2101
     24 H7         48.4288   -2.2779   24.2755 H         1 2TU         0.0648
     25 H8         50.0198   -0.6549   24.9284 H         1 2TU         0.2100
     26 H9         47.8956   -0.3409   22.3475 H         1 2TU         0.0647
     27 H10        45.9237   -2.3765   23.4314 H         1 2TU         0.0584
     28 H11        47.0367   -2.5473   22.0319 H         1 2TU         0.0584
     29 H12        44.8594   -0.7092   22.2247 H         1 2TU         0.2095
@<TRIPOS>BOND
     1    1    2 am 
     2    1    8 1  
     3    1    9 1  
     4    2    3 2  
     5    2    4 am 
     6    4    5 am 
     7    5    6 2  
     8    5    7 1  
     9    7    8 2  
    10    9   10 1  
    11    9   15 1  
    12   10   11 1  
    13   10   12 1  
    14   12   13 1  
    15   12   14 1  
    16   14   15 1  
    17   14   16 1  
    18   16   17 1  
    19    4   18 1  
    20    7   19 1  
    21    8   20 1  
    22    9   21 1  
    23   10   22 1  
    24   11   23 1  
    25   12   24 1  
    26   13   25 1  
    27   14   26 1  
    28   16   27 1  
    29   16   28 1  
    30   17   29 1  
@<TRIPOS>SUBSTRUCTURE
     1 2TU         1

