### 
### Created by X-TOOL on Mon Sep 10 21:13:06 2018
### 

@<TRIPOS>MOLECULE
3sfh_ligand
   39    41     1     0     0
SMALL
GAST_HUCK


@<TRIPOS>ATOM
      1 N1          5.5700   13.6050  -23.3180 N.4       1 1DI         0.2394
      2 C2          7.0170   13.2910  -23.3000 C.3       1 1DI         0.0749
      3 C3          7.5530   13.0630  -21.8310 C.3       1 1DI         0.0423
      4 C4          7.2840   14.2250  -20.8380 C.ar      1 1DI        -0.0209
      5 C5          8.2980   15.2690  -20.6970 C.ar      1 1DI        -0.0588
      6 C6          8.1010   16.3730  -19.7980 C.ar      1 1DI        -0.0544
      7 C7          6.8900   16.4540  -19.0240 C.ar      1 1DI         0.0335
      8 CL8         6.6460   17.7860  -17.9390 Cl        1 1DI        -0.0770
      9 C9          5.8760   15.4320  -19.1430 C.ar      1 1DI        -0.0406
     10 C10         6.0530   14.3170  -20.0380 C.ar      1 1DI         0.0422
     11 CL11        4.7600   13.1270  -20.1140 Cl        1 1DI        -0.0771
     12 C12         7.8940   14.3550  -24.0070 C.2       1 1DI         0.2324
     13 O13         7.4220   15.4900  -23.9730 O.2       1 1DI        -0.3902
     14 N14         9.1370   14.1280  -24.6390 N.am      1 1DI        -0.2483
     15 C15         9.7200   12.7590  -24.7040 C.3       1 1DI         0.0674
     16 C16        10.9330   13.0230  -25.5750 C.ar      1 1DI        -0.0167
     17 C17        11.8820   12.0660  -26.0890 C.ar      1 1DI        -0.0649
     18 C18        12.9790   12.5360  -26.9130 C.ar      1 1DI        -0.0754
     19 C19        13.1170   13.9480  -27.2150 C.ar      1 1DI        -0.0754
     20 C20        12.1560   14.9040  -26.6920 C.ar      1 1DI        -0.0649
     21 C21        11.0650   14.4180  -25.8690 C.ar      1 1DI        -0.0167
     22 C22         9.9540   15.2270  -25.2190 C.3       1 1DI         0.0674
     23 H           5.0569   12.8658  -22.8376 H         1 1DI         0.2017
     24 H           5.4104   14.4943  -22.8446 H         1 1DI         0.2017
     25 H           5.2495   13.6704  -24.2841 H         1 1DI         0.2017
     26 H           7.1055   12.3641  -23.8666 H         1 1DI         0.1123
     27 H           8.6357   12.9617  -21.9064 H         1 1DI         0.0510
     28 H           7.0290   12.1910  -21.4398 H         1 1DI         0.0510
     29 H           9.2159   15.2092  -21.2817 H         1 1DI         0.0557
     30 H           8.8646   17.1449  -19.7028 H         1 1DI         0.0607
     31 H           4.9656   15.5054  -18.5482 H         1 1DI         0.0612
     32 H           9.0421   12.0017  -25.0978 H         1 1DI         0.0672
     33 H           9.9527   12.3246  -23.7317 H         1 1DI         0.0672
     34 H          11.7762   11.0053  -25.8615 H         1 1DI         0.0538
     35 H          13.7040   11.8241  -27.3076 H         1 1DI         0.0541
     36 H          13.9438   14.2928  -27.8359 H         1 1DI         0.0541
     37 H          12.2531   15.9667  -26.9140 H         1 1DI         0.0538
     38 H          10.2993   15.9623  -24.4922 H         1 1DI         0.0672
     39 H           9.4109   15.8772  -25.9048 H         1 1DI         0.0672
@<TRIPOS>BOND
     1    1    2 1  
     2    2    3 1  
     3    2   12 1  
     4    3    4 1  
     5    4    5 ar 
     6    4   10 ar 
     7    5    6 ar 
     8    6    7 ar 
     9    7    8 1  
    10    7    9 ar 
    11    9   10 ar 
    12   10   11 1  
    13   12   13 2  
    14   12   14 am 
    15   14   15 1  
    16   14   22 1  
    17   15   16 1  
    18   16   17 ar 
    19   16   21 ar 
    20   17   18 ar 
    21   18   19 ar 
    22   19   20 ar 
    23   20   21 ar 
    24   21   22 1  
    25    1   23 1  
    26    1   24 1  
    27    1   25 1  
    28    2   26 1  
    29    3   27 1  
    30    3   28 1  
    31    5   29 1  
    32    6   30 1  
    33    9   31 1  
    34   15   32 1  
    35   15   33 1  
    36   17   34 1  
    37   18   35 1  
    38   19   36 1  
    39   20   37 1  
    40   22   38 1  
    41   22   39 1  
@<TRIPOS>SUBSTRUCTURE
     1 1DI         1

