### 
### Created by X-TOOL on Mon Sep 10 21:13:07 2018
### 

@<TRIPOS>MOLECULE
3sfi_ligand
   42    44     1     0     0
SMALL
GAST_HUCK


@<TRIPOS>ATOM
      1 C          30.3770  -16.7380   -7.5340 C.3       1 3SF         0.3903
      2 F          30.9880  -16.1930   -8.5540 F         1 3SF        -0.1708
      3 N          27.6800  -11.7420   -5.5940 N.am      1 3SF        -0.2728
      4 O          27.8130  -12.8650   -7.4260 O.2       1 3SF        -0.3969
      5 S          27.3750   -3.3250   -3.2040 S.3       1 3SF        -0.0042
      6 C1         30.2630  -15.7730   -6.3940 C.3       1 3SF         0.0449
      7 F1         31.0810  -17.7350   -7.0670 F         1 3SF        -0.1708
      8 N1         26.9720   -6.3700   -2.6320 N.2       1 3SF        -0.1065
      9 O1         26.7870   -7.7040   -2.7920 O.3       1 3SF        -0.1256
     10 C2         29.1210  -14.8470   -6.7100 C.3       1 3SF        -0.0279
     11 F2         29.1990  -17.1750   -7.9360 F         1 3SF        -0.1708
     12 N2         26.9490   -6.9290   -4.7970 N.2       1 3SF        -0.2675
     13 C3         28.9790  -13.8040   -5.6260 C.3       1 3SF         0.0377
     14 N3         27.3060   -4.1520   -5.5870 N.2       1 3SF        -0.3107
     15 C4         28.1340  -12.7520   -6.2760 C.2       1 3SF         0.1785
     16 C5         28.1250  -11.5100   -4.1950 C.3       1 3SF         0.0367
     17 C6         27.8190  -10.1100   -3.6630 C.3       1 3SF        -0.0107
     18 C7         26.6580   -9.4290   -4.3560 C.3       1 3SF         0.0602
     19 C8         26.9090   -9.5000   -5.8530 C.3       1 3SF        -0.0107
     20 C9         26.6780  -10.9240   -6.2720 C.3       1 3SF         0.0367
     21 C10        26.7850   -8.0180   -4.0090 C.2       1 3SF         0.2244
     22 C11        27.0540   -5.9320   -3.9120 C.2       1 3SF         0.1499
     23 C12        27.2310   -4.6070   -4.3150 C.2       1 3SF         0.1318
     24 C13        27.4850   -2.7770   -5.6310 C.2       1 3SF        -0.0151
     25 C14        27.5520   -2.0900   -4.4220 C.2       1 3SF         0.0114
     26 H1         31.1960  -15.1995   -6.2905 H         1 3SF         0.0353
     27 H2         30.0606  -16.3160   -5.4590 H         1 3SF         0.0353
     28 H3         28.1899  -15.4287   -6.7786 H         1 3SF         0.0292
     29 H4         29.3132  -14.3480   -7.6712 H         1 3SF         0.0292
     30 H5         29.9600  -13.3993   -5.3363 H         1 3SF         0.0502
     31 H6         28.4782  -14.2210   -4.7399 H         1 3SF         0.0502
     32 H7         29.2129  -11.6661   -4.1488 H         1 3SF         0.0524
     33 H8         27.6216  -12.2426   -3.5471 H         1 3SF         0.0524
     34 H9         28.7152   -9.4860   -3.7953 H         1 3SF         0.0319
     35 H10        27.5833  -10.1908   -2.5916 H         1 3SF         0.0319
     36 H11        25.6856   -9.8570   -4.0709 H         1 3SF         0.0579
     37 H12        27.9446   -9.2041   -6.0765 H         1 3SF         0.0319
     38 H13        26.2142   -8.8329   -6.3843 H         1 3SF         0.0319
     39 H14        25.6678  -11.2443   -5.9772 H         1 3SF         0.0524
     40 H15        26.7892  -11.0187   -7.3623 H         1 3SF         0.0524
     41 H16        27.5704   -2.2517   -6.5811 H         1 3SF         0.0582
     42 H17        27.6853   -1.0198   -4.2707 H         1 3SF         0.0755
@<TRIPOS>BOND
     1    1    2 1  
     2    6    1 1  
     3    1    7 1  
     4    1   11 1  
     5    3   15 am 
     6   16    3 1  
     7   20    3 1  
     8   15    4 2  
     9   23    5 1  
    10    5   25 1  
    11   10    6 1  
    12    8    9 1  
    13   22    8 2  
    14   21    9 1  
    15   13   10 1  
    16   12   21 2  
    17   22   12 1  
    18   15   13 1  
    19   23   14 2  
    20   14   24 1  
    21   17   16 1  
    22   18   17 1  
    23   18   19 1  
    24   21   18 1  
    25   19   20 1  
    26   22   23 1  
    27   24   25 2  
    28    6   26 1  
    29    6   27 1  
    30   10   28 1  
    31   10   29 1  
    32   13   30 1  
    33   13   31 1  
    34   16   32 1  
    35   16   33 1  
    36   17   34 1  
    37   17   35 1  
    38   18   36 1  
    39   19   37 1  
    40   19   38 1  
    41   20   39 1  
    42   20   40 1  
    43   24   41 1  
    44   25   42 1  
@<TRIPOS>SUBSTRUCTURE
     1 3SF         1

