### 
### Created by X-TOOL on Mon Sep 10 21:13:09 2018
### 

@<TRIPOS>MOLECULE
3sgt_ligand
   45    47     1     0     0
SMALL
GAST_HUCK


@<TRIPOS>ATOM
      1 CAA       -13.3630   -4.3790    0.3300 C.3       1 P09        -0.0385
      2 CAB       -15.1170   -2.1640    1.5530 C.3       1 P09        -0.0359
      3 OAC       -11.0160    7.9790    7.6780 O.co2     1 P09        -0.5595
      4 OAD       -12.2700    4.3590    6.1590 O.2       1 P09        -0.3733
      5 OAE       -10.9450    6.9980    5.6770 O.co2     1 P09        -0.5595
      6 CAF       -15.2240    8.1420    7.5260 C.ar      1 P09        -0.0541
      7 CAG       -15.8910    7.0690    6.9320 C.ar      1 P09        -0.0538
      8 CAH       -13.8370    8.2560    7.4700 C.ar      1 P09        -0.0423
      9 CAI       -15.1450    6.1150    6.2670 C.ar      1 P09        -0.0382
     10 CAJ       -11.5760   -2.6340    0.1730 C.ar      1 P09        -0.0747
     11 CAK       -12.1750    2.8060    4.0030 C.ar      1 P09        -0.0479
     12 CAL       -12.7240    4.0460    2.0130 C.ar      1 P09        -0.0479
     13 CAM       -11.0640   -1.3600    0.3270 C.ar      1 P09        -0.0426
     14 CAN       -11.6930    1.7480    3.1980 C.ar      1 P09        -0.0412
     15 CAO       -12.2450    3.0110    1.2200 C.ar      1 P09        -0.0412
     16 CAP       -13.1700   -0.6100    1.2720 C.ar      1 P09        -0.0345
     17 NAQ       -13.2160    4.9720    4.1560 N.am      1 P09        -0.2386
     18 OAR       -11.2650    0.8610    0.9940 O.3       1 P09        -0.2733
     19 CAS       -11.5520    7.3950    6.7190 C.2       1 P09         0.0666
     20 CAT       -13.0140    5.0830    5.4680 C.2       1 P09         0.2322
     21 CAU       -12.8880   -2.9250    0.5530 C.ar      1 P09        -0.0546
     22 CAV       -13.6900   -1.9060    1.0880 C.ar      1 P09        -0.0520
     23 CAW       -12.6830    3.9670    3.4090 C.ar      1 P09         0.0563
     24 CAX       -11.7550    1.8470    1.8110 C.ar      1 P09         0.0994
     25 CAY       -11.8760   -0.3440    0.8710 C.ar      1 P09         0.0990
     26 CAZ       -13.0910    7.2660    6.7990 C.ar      1 P09         0.0300
     27 CBA       -13.7660    6.2240    6.1820 C.ar      1 P09         0.0691
     28 H         -13.2979   -4.6225   -0.7304 H         1 P09         0.0356
     29 H         -12.7290   -5.0584    0.8997 H         1 P09         0.0356
     30 H         -14.3959   -4.4777    0.6640 H         1 P09         0.0356
     31 H         -15.1889   -1.9734    2.6238 H         1 P09         0.0375
     32 H         -15.7974   -1.5013    1.0182 H         1 P09         0.0375
     33 H         -15.3824   -3.2012    1.3486 H         1 P09         0.0375
     34 H         -15.8013    8.9072    8.0449 H         1 P09         0.0658
     35 H         -16.9762    6.9857    6.9915 H         1 P09         0.0649
     36 H         -13.3341    9.1013    7.9398 H         1 P09         0.0663
     37 H         -15.6473    5.2660    5.8034 H         1 P09         0.0676
     38 H         -10.9497   -3.4198   -0.2493 H         1 P09         0.0512
     39 H         -12.1508    2.7171    5.0891 H         1 P09         0.0481
     40 H         -13.1392    4.9355    1.5391 H         1 P09         0.0481
     41 H         -10.0383   -1.1417    0.0296 H         1 P09         0.0476
     42 H         -11.2734    0.8560    3.6631 H         1 P09         0.0517
     43 H         -12.2522    3.1089    0.1344 H         1 P09         0.0517
     44 H         -13.7804    0.1716    1.7244 H         1 P09         0.0470
     45 H         -13.7955    5.6708    3.6909 H         1 P09         0.2220
@<TRIPOS>BOND
     1   21    1 1  
     2   22    2 1  
     3   19    3 ar 
     4   20    4 2  
     5   19    5 ar 
     6    7    6 ar 
     7    6    8 ar 
     8    9    7 ar 
     9    8   26 ar 
    10   27    9 ar 
    11   13   10 ar 
    12   10   21 ar 
    13   11   14 ar 
    14   23   11 ar 
    15   12   15 ar 
    16   23   12 ar 
    17   25   13 ar 
    18   14   24 ar 
    19   15   24 ar 
    20   16   22 ar 
    21   25   16 ar 
    22   20   17 am 
    23   17   23 1  
    24   24   18 1  
    25   18   25 1  
    26   26   19 1  
    27   20   27 1  
    28   21   22 ar 
    29   26   27 ar 
    30    1   28 1  
    31    1   29 1  
    32    1   30 1  
    33    2   31 1  
    34    2   32 1  
    35    2   33 1  
    36    6   34 1  
    37    7   35 1  
    38    8   36 1  
    39    9   37 1  
    40   10   38 1  
    41   11   39 1  
    42   12   40 1  
    43   13   41 1  
    44   14   42 1  
    45   15   43 1  
    46   16   44 1  
    47   17   45 1  
@<TRIPOS>SUBSTRUCTURE
     1 P09         1

