### 
### Created by X-TOOL on Mon Sep 10 21:13:09 2018
### 

@<TRIPOS>MOLECULE
3sgv_ligand
   47    49     1     0     0
SMALL
GAST_HUCK


@<TRIPOS>ATOM
      1 C1        -14.9060    2.0090   -9.5840 C.ar      1 2BJ         0.0979
      2 N1        -16.7810    4.2710  -11.7890 N.2       1 2BJ        -0.2138
      3 O1        -16.7570    4.5060  -13.2420 O.2       1 2BJ        -0.4878
      4 C2        -14.8250    0.8890  -10.4420 C.ar      1 2BJ         0.0368
      5 N2        -14.7170    1.2550   -7.2070 N.am      1 2BJ        -0.1509
      6 O2        -17.4950    5.1820  -10.8720 O.2       1 2BJ        -0.4878
      7 C3        -15.3950    0.9220  -11.7040 C.ar      1 2BJ        -0.0348
      8 O3        -13.7560   -1.1750  -10.9680 O.co2     1 2BJ        -0.5583
      9 C4        -16.0470    2.0630  -12.1300 C.ar      1 2BJ        -0.0208
     10 O4        -13.8130   -0.5170   -8.8810 O.co2     1 2BJ        -0.5583
     11 C5        -16.1420    3.1940  -11.3070 C.ar      1 2BJ         0.0921
     12 O5        -13.5520    3.0670   -7.9670 O.2       1 2BJ        -0.3221
     13 C6        -15.5600    3.1810  -10.0240 C.ar      1 2BJ        -0.0027
     14 O6        -14.7910   -0.2480   -2.5680 O.3       1 2BJ        -0.1708
     15 C7        -14.1260   -0.3890  -10.0620 C.2       1 2BJ         0.0697
     16 C8        -14.3110    2.1180   -8.1680 C.2       1 2BJ         0.3145
     17 C9        -14.2550    1.3770   -5.8920 C.ar      1 2BJ         0.2105
     18 C10       -13.3070    2.3410   -5.4950 C.ar      1 2BJ         0.0860
     19 C11       -12.8360    2.4570   -4.1630 C.ar      1 2BJ         0.0509
     20 C12       -13.3530    1.5710   -3.2220 C.ar      1 2BJ         0.0847
     21 C13       -14.3040   -1.5050   -2.2700 C.ar      1 2BJ         0.1910
     22 C14       -14.2940    0.5890   -3.5730 C.ar      1 2BJ         0.2340
     23 C15       -14.7280    0.4990   -4.8940 C.ar      1 2BJ         0.0860
     24 C16       -14.8820   -2.2230   -1.1800 C.ar      1 2BJ         0.0171
     25 C17       -14.4420   -3.5110   -0.8610 C.ar      1 2BJ        -0.0223
     26 C18       -13.4120   -4.1070   -1.5890 C.ar      1 2BJ         0.0004
     27 C19       -13.0000   -5.5450   -1.1800 C.3       1 2BJ        -0.0113
     28 C20       -12.8370   -3.3800   -2.6600 C.ar      1 2BJ        -0.0031
     29 C21       -11.8170   -3.9270   -3.5700 C.3       1 2BJ        -0.0219
     30 C22       -13.2680   -2.0950   -3.0040 C.ar      1 2BJ         0.0185
     31 H         -15.3679    0.5065   -7.4447 H         1 2BJ         0.3261
     32 H         -15.3294    0.0522  -12.3576 H         1 2BJ         0.0676
     33 H         -16.4954    2.0843  -13.1233 H         1 2BJ         0.0728
     34 H         -15.6135    4.0603   -9.3820 H         1 2BJ         0.0750
     35 H         -12.9183    3.0286   -6.2461 H         1 2BJ         0.1455
     36 H         -12.0982    3.2102   -3.8866 H         1 2BJ         0.0906
     37 H         -13.0192    1.6410   -2.1867 H         1 2BJ         0.1500
     38 H         -15.4520   -0.2700   -5.1635 H         1 2BJ         0.0614
     39 H         -15.6746   -1.7623   -0.5904 H         1 2BJ         0.0788
     40 H         -14.9070   -4.0533   -0.0377 H         1 2BJ         0.0681
     41 H         -12.6638   -5.5442   -0.1431 H         1 2BJ         0.0497
     42 H         -13.8566   -6.2108   -1.2851 H         1 2BJ         0.0497
     43 H         -12.1910   -5.8872   -1.8253 H         1 2BJ         0.0497
     44 H         -12.2240   -3.9806   -4.5798 H         1 2BJ         0.0417
     45 H         -10.9411   -3.2783   -3.5639 H         1 2BJ         0.0417
     46 H         -11.5335   -4.9256   -3.2377 H         1 2BJ         0.0417
     47 H         -12.8037   -1.5599   -3.8324 H         1 2BJ         0.0665
@<TRIPOS>BOND
     1    1    4 ar 
     2    1   13 ar 
     3   16    1 1  
     4    2    3 2  
     5    2    6 2  
     6   11    2 1  
     7    4    7 ar 
     8    4   15 1  
     9    5   16 am 
    10   17    5 1  
    11    7    9 ar 
    12   15    8 ar 
    13   11    9 ar 
    14   15   10 ar 
    15   13   11 ar 
    16   16   12 2  
    17   14   21 1  
    18   22   14 1  
    19   18   17 ar 
    20   17   23 ar 
    21   19   18 ar 
    22   20   19 ar 
    23   20   22 ar 
    24   21   24 ar 
    25   21   30 ar 
    26   22   23 ar 
    27   24   25 ar 
    28   25   26 ar 
    29   26   27 1  
    30   26   28 ar 
    31   28   29 1  
    32   28   30 ar 
    33    5   31 1  
    34    7   32 1  
    35    9   33 1  
    36   13   34 1  
    37   18   35 1  
    38   19   36 1  
    39   20   37 1  
    40   23   38 1  
    41   24   39 1  
    42   25   40 1  
    43   27   41 1  
    44   27   42 1  
    45   27   43 1  
    46   29   44 1  
    47   29   45 1  
    48   29   46 1  
    49   30   47 1  
@<TRIPOS>SUBSTRUCTURE
     1 2BJ         1

