### 
### Created by X-TOOL on Mon Sep 10 21:13:11 2018
### 

@<TRIPOS>MOLECULE
3sgx_ligand
   51    54     1     0     0
SMALL
GAST_HUCK


@<TRIPOS>ATOM
      1 OAA       -11.3460   17.8360    1.5230 O.co2     1 0FW        -0.5628
      2 OAB       -10.0410   14.6410    5.8000 O.co2     1 0FW        -0.5600
      3 OAC       -12.0000    6.9280    1.3980 O.2       1 0FW        -0.3734
      4 OAD       -10.4160   17.6800    3.5450 O.co2     1 0FW        -0.5628
      5 OAE       -11.3410   16.3720    5.3350 O.co2     1 0FW        -0.5600
      6 CAF       -14.1450   -1.7410    3.1560 C.ar      1 0FW        -0.0612
      7 CAG       -14.8750   -0.7810    3.8570 C.ar      1 0FW        -0.0605
      8 CAH       -13.0730   -1.3370    2.3410 C.ar      1 0FW        -0.0605
      9 CAI       -14.8860   10.8360    3.1690 C.ar      1 0FW        -0.0826
     10 CAJ       -14.8010    9.4410    3.2300 C.ar      1 0FW        -0.0514
     11 CAK       -13.7750   11.5820    2.8110 C.ar      1 0FW        -0.0435
     12 CAL       -14.5520    0.5660    3.7300 C.ar      1 0FW        -0.0530
     13 CAM       -12.7330    0.0220    2.1990 C.ar      1 0FW        -0.0530
     14 CAN       -11.4620   13.6770    1.0700 C.ar      1 0FW        -0.0221
     15 CAO       -13.1260    4.5420    3.7010 C.ar      1 0FW        -0.0414
     16 CAP       -13.0160    4.2490    1.3070 C.ar      1 0FW        -0.0414
     17 CAQ       -13.2760    3.1780    3.8730 C.ar      1 0FW        -0.0489
     18 CAR       -13.1640    2.8830    1.4990 C.ar      1 0FW        -0.0489
     19 CAS       -11.3350   15.0590    1.1990 C.ar      1 0FW        -0.0519
     20 CAT       -12.5040    9.5120    2.5830 C.ar      1 0FW        -0.0091
     21 CAU       -11.1270   13.4620    3.4350 C.ar      1 0FW        -0.0106
     22 NAV       -13.5930    7.3940    2.9840 N.am      1 0FW        -0.2355
     23 OAW       -11.4590   11.5300    2.1490 O.3       1 0FW        -0.2593
     24 CAX       -10.9560   17.1780    2.5180 C.2       1 0FW         0.0585
     25 CAY       -10.7470   15.3340    5.0110 C.2       1 0FW         0.0631
     26 CAZ       -12.8210    6.5760    2.2310 C.2       1 0FW         0.2317
     27 CBA       -13.6190    8.7490    2.9370 C.ar      1 0FW         0.0579
     28 CBB       -12.5870   10.8990    2.5190 C.ar      1 0FW         0.1036
     29 CBC       -11.3730   12.8850    2.2070 C.ar      1 0FW         0.1222
     30 CBD       -12.9920    5.0770    2.4280 C.ar      1 0FW         0.0554
     31 CBE       -13.4800    0.9750    2.9110 C.ar      1 0FW        -0.0153
     32 CBF       -13.2710    2.3440    2.7760 C.ar      1 0FW        -0.0140
     33 CBG       -11.0960   15.6440    2.4430 C.ar      1 0FW         0.0134
     34 CBH       -10.9870   14.8250    3.5790 C.ar      1 0FW         0.0165
     35 H         -14.4038   -2.7965    3.2395 H         1 0FW         0.0622
     36 H         -15.6977   -1.0861    4.5036 H         1 0FW         0.0619
     37 H         -12.4934   -2.0910    1.8083 H         1 0FW         0.0619
     38 H         -15.8260   11.3357    3.4031 H         1 0FW         0.0553
     39 H         -15.6860    8.8724    3.5157 H         1 0FW         0.0420
     40 H         -13.8237   12.6696    2.7580 H         1 0FW         0.0429
     41 H         -15.1340    1.3132    4.2695 H         1 0FW         0.0629
     42 H         -11.9102    0.3271    1.5524 H         1 0FW         0.0629
     43 H         -11.6285   13.2252    0.0921 H         1 0FW         0.0581
     44 H         -13.1130    5.2000    4.5699 H         1 0FW         0.0667
     45 H         -12.9208    4.6646    0.3039 H         1 0FW         0.0667
     46 H         -13.3979    2.7637    4.8738 H         1 0FW         0.0633
     47 H         -13.1970    2.2210    0.6337 H         1 0FW         0.0633
     48 H         -11.4236   15.6916    0.3158 H         1 0FW         0.0632
     49 H         -11.5605    9.0162    2.3549 H         1 0FW         0.0431
     50 H         -11.0411   12.8235    4.3142 H         1 0FW         0.0594
     51 H         -14.2181    6.9462    3.6542 H         1 0FW         0.2250
@<TRIPOS>BOND
     1   24    1 ar 
     2   25    2 ar 
     3   26    3 2  
     4   24    4 ar 
     5   25    5 ar 
     6    7    6 ar 
     7    8    6 ar 
     8   12    7 ar 
     9   13    8 ar 
    10   10    9 ar 
    11    9   11 ar 
    12   27   10 ar 
    13   28   11 ar 
    14   31   12 ar 
    15   31   13 ar 
    16   14   19 ar 
    17   29   14 ar 
    18   17   15 ar 
    19   15   30 ar 
    20   18   16 ar 
    21   16   30 ar 
    22   32   17 ar 
    23   32   18 ar 
    24   19   33 ar 
    25   27   20 ar 
    26   20   28 ar 
    27   29   21 ar 
    28   21   34 ar 
    29   26   22 am 
    30   22   27 1  
    31   28   23 1  
    32   23   29 1  
    33   33   24 1  
    34   34   25 1  
    35   30   26 1  
    36   31   32 1  
    37   33   34 ar 
    38    6   35 1  
    39    7   36 1  
    40    8   37 1  
    41    9   38 1  
    42   10   39 1  
    43   11   40 1  
    44   12   41 1  
    45   13   42 1  
    46   14   43 1  
    47   15   44 1  
    48   16   45 1  
    49   17   46 1  
    50   18   47 1  
    51   19   48 1  
    52   20   49 1  
    53   21   50 1  
    54   22   51 1  
@<TRIPOS>SUBSTRUCTURE
     1 0FW         1

