### 
### Created by X-TOOL on Mon Sep 10 21:13:09 2018
### 

@<TRIPOS>MOLECULE
3sh0_ligand
   52    52     1     0     0
SMALL
GAST_HUCK


@<TRIPOS>ATOM
      1 C1        -14.0800    7.2360    7.3220 C.ar      1 SAX         0.0664
      2 O1        -14.7430    9.0750    8.6530 O.3       1 SAX        -0.3323
      3 C2        -15.0880    8.0680    7.7800 C.ar      1 SAX         0.0946
      4 O2        -13.4540    5.3530    5.9450 O.3       1 SAX        -0.3172
      5 C3        -16.3990    7.8860    7.3450 C.ar      1 SAX        -0.0404
      6 O3        -11.8400    6.5600    7.7770 O.co2     1 SAX        -0.5680
      7 C4        -16.7450    6.8610    6.4490 C.ar      1 SAX        -0.0764
      8 O4        -12.4480    8.5960    8.4660 O.co2     1 SAX        -0.5680
      9 C5        -15.7340    6.0070    5.9970 C.ar      1 SAX        -0.0401
     10 C6        -14.4100    6.2000    6.4380 C.ar      1 SAX         0.0981
     11 C7        -13.8590    4.4070    4.9300 C.3       1 SAX         0.0712
     12 C8        -12.6070    3.8850    4.2660 C.3       1 SAX        -0.0249
     13 C9        -12.9480    2.9140    3.1620 C.3       1 SAX        -0.0506
     14 C10       -11.7410    2.0560    2.8690 C.3       1 SAX        -0.0530
     15 C11       -12.1360    1.0480    1.8050 C.3       1 SAX        -0.0531
     16 C12       -10.8460    0.5430    1.1440 C.3       1 SAX        -0.0531
     17 C13       -11.0630   -0.7130    0.2890 C.3       1 SAX        -0.0531
     18 C14       -12.2430   -0.5430   -0.6570 C.3       1 SAX        -0.0531
     19 C15       -11.9930   -0.0720   -2.0860 C.3       1 SAX        -0.0531
     20 C16       -11.6680   -1.2560   -2.9810 C.3       1 SAX        -0.0533
     21 C17       -12.6470   -1.5990   -4.1140 C.3       1 SAX        -0.0559
     22 C18       -12.1770   -2.9220   -4.7300 C.3       1 SAX        -0.0653
     23 C19       -12.6990    7.4930    7.8640 C.2       1 SAX         0.0532
     24 H         -14.3539    8.6928    9.4430 H         1 SAX         0.2496
     25 H         -17.1769    8.5568    7.7096 H         1 SAX         0.0458
     26 H         -17.7747    6.7345    6.1147 H         1 SAX         0.0584
     27 H         -15.9691    5.1964    5.3072 H         1 SAX         0.0459
     28 H         -14.5051    4.8897    4.1967 H         1 SAX         0.0616
     29 H         -14.4219    3.5877    5.3771 H         1 SAX         0.0616
     30 H         -12.0032    3.3691    5.0126 H         1 SAX         0.0291
     31 H         -12.0609    4.7254    3.8375 H         1 SAX         0.0291
     32 H         -13.2336    3.4638    2.2652 H         1 SAX         0.0266
     33 H         -13.7802    2.2825    3.4730 H         1 SAX         0.0266
     34 H         -11.4127    1.5431    3.7730 H         1 SAX         0.0265
     35 H         -10.9142    2.6732    2.5174 H         1 SAX         0.0265
     36 H         -12.7869    1.5121    1.0640 H         1 SAX         0.0265
     37 H         -12.6848    0.2187    2.2514 H         1 SAX         0.0265
     38 H         -10.1440    0.2875    1.9377 H         1 SAX         0.0265
     39 H         -10.4779    1.3319    0.4881 H         1 SAX         0.0265
     40 H         -11.2694   -1.5525    0.9529 H         1 SAX         0.0265
     41 H         -10.1655   -0.8873   -0.3046 H         1 SAX         0.0265
     42 H         -12.8491    0.2433   -0.2071 H         1 SAX         0.0265
     43 H         -12.6607   -1.5442   -0.7633 H         1 SAX         0.0265
     44 H         -11.1509    0.6200   -2.0908 H         1 SAX         0.0265
     45 H         -12.8896    0.4220   -2.4603 H         1 SAX         0.0265
     46 H         -11.6743   -2.1246   -2.3226 H         1 SAX         0.0265
     47 H         -10.7339   -0.9934   -3.4776 H         1 SAX         0.0265
     48 H         -12.6600   -0.8082   -4.8641 H         1 SAX         0.0263
     49 H         -13.6628   -1.6926   -3.7299 H         1 SAX         0.0263
     50 H         -11.1656   -2.8015   -5.1183 H         1 SAX         0.0230
     51 H         -12.1841   -3.6997   -3.9663 H         1 SAX         0.0230
     52 H         -12.8483   -3.2020   -5.5418 H         1 SAX         0.0230
@<TRIPOS>BOND
     1    1    3 ar 
     2    1   10 ar 
     3    1   23 1  
     4    3    2 1  
     5    3    5 ar 
     6   10    4 1  
     7    4   11 1  
     8    5    7 ar 
     9   23    6 ar 
    10    7    9 ar 
    11   23    8 ar 
    12    9   10 ar 
    13   11   12 1  
    14   12   13 1  
    15   13   14 1  
    16   14   15 1  
    17   15   16 1  
    18   16   17 1  
    19   17   18 1  
    20   18   19 1  
    21   19   20 1  
    22   20   21 1  
    23   21   22 1  
    24    2   24 1  
    25    5   25 1  
    26    7   26 1  
    27    9   27 1  
    28   11   28 1  
    29   11   29 1  
    30   12   30 1  
    31   12   31 1  
    32   13   32 1  
    33   13   33 1  
    34   14   34 1  
    35   14   35 1  
    36   15   36 1  
    37   15   37 1  
    38   16   38 1  
    39   16   39 1  
    40   17   40 1  
    41   17   41 1  
    42   18   42 1  
    43   18   43 1  
    44   19   44 1  
    45   19   45 1  
    46   20   46 1  
    47   20   47 1  
    48   21   48 1  
    49   21   49 1  
    50   22   50 1  
    51   22   51 1  
    52   22   52 1  
@<TRIPOS>SUBSTRUCTURE
     1 SAX         1

