### 
### Created by X-TOOL on Mon Sep 10 21:13:08 2018
### 

@<TRIPOS>MOLECULE
3sha_ligand
   51    53     1     0     0
SMALL
GAST_HUCK


@<TRIPOS>ATOM
      1 N4        -16.4730  -15.2100  -23.0850 N.4       1 P97         0.2394
      2 C3        -17.7530  -14.5200  -23.0690 C.3       1 P97         0.0746
      3 C5        -17.5340  -13.1460  -22.4830 C.2       1 P97         0.2313
      4 O7        -16.5920  -12.4510  -22.8500 O.2       1 P97        -0.3903
      5 C2        -18.2930  -14.4790  -24.5010 C.3       1 P97         0.0416
      6 C1        -19.7100  -13.9460  -24.5650 C.ar      1 P97        -0.0353
      7 C8        -20.7670  -14.6060  -23.9410 C.ar      1 P97        -0.0600
      8 C12       -19.9890  -12.7930  -25.2820 C.ar      1 P97        -0.0600
      9 C9        -22.0590  -14.0890  -24.0320 C.ar      1 P97        -0.0686
     10 C11       -21.2770  -12.2680  -25.3650 C.ar      1 P97        -0.0686
     11 C10       -22.3340  -12.9260  -24.7400 C.ar      1 P97        -0.0687
     12 N6        -18.3800  -12.7030  -21.5680 N.am      1 P97        -0.2470
     13 C13       -18.1560  -11.3840  -20.9760 C.3       1 P97         0.1339
     14 C14       -16.8050  -11.3500  -20.3040 C.2       1 P97         0.2038
     15 O15       -16.4070  -12.2900  -19.6140 O.2       1 P97        -0.3944
     16 C19       -19.2840  -11.2030  -19.9640 C.3       1 P97        -0.0104
     17 C20       -20.3080  -12.2870  -20.2840 C.3       1 P97        -0.0281
     18 C21       -19.5420  -13.3950  -20.9960 C.3       1 P97         0.0371
     19 N16       -16.0440  -10.2740  -20.5320 N.am      1 P97        -0.2723
     20 C17       -14.7080  -10.1080  -19.9520 C.3       1 P97         0.0712
     21 C18       -13.6680  -10.9010  -20.7100 C.ar      1 P97         0.0210
     22 C22       -13.3470  -12.2020  -20.3320 C.ar      1 P97         0.0147
     23 N23       -12.4230  -12.8960  -21.0100 N.ar      1 P97        -0.3046
     24 C24       -11.7800  -12.3770  -22.0650 C.ar      1 P97         0.0044
     25 C25       -12.0560  -11.0840  -22.4840 C.ar      1 P97        -0.0265
     26 C26       -13.0080  -10.3610  -21.7820 C.ar      1 P97         0.0638
     27 CL27      -13.3970   -8.7080  -22.3060 Cl        1 P97        -0.0638
     28 H1        -16.5934  -16.1325  -23.4731 H         1 P97         0.2017
     29 H2        -16.1199  -15.2849  -22.1439 H         1 P97         0.2017
     30 H3        -15.8185  -14.6910  -23.6492 H         1 P97         0.2017
     31 H4        -18.4657  -15.0685  -22.4356 H         1 P97         0.1123
     32 H5        -18.2794  -15.4985  -24.9138 H         1 P97         0.0507
     33 H6        -17.6430  -13.8298  -25.1060 H         1 P97         0.0507
     34 H7        -20.5853  -15.5193  -23.3861 H         1 P97         0.0557
     35 H8        -19.1803  -12.2841  -25.7939 H         1 P97         0.0557
     36 H9        -22.8709  -14.6090  -23.5366 H         1 P97         0.0599
     37 H10       -21.4560  -11.3506  -25.9141 H         1 P97         0.0599
     38 H11       -23.3450  -12.5403  -24.8045 H         1 P97         0.0559
     39 H12       -18.2026  -10.5994  -21.7456 H         1 P97         0.0802
     40 H13       -19.7364  -10.2059  -20.0691 H         1 P97         0.0313
     41 H14       -18.9029  -11.3267  -18.9396 H         1 P97         0.0313
     42 H15       -21.0961  -11.8864  -20.9385 H         1 P97         0.0287
     43 H16       -20.7604  -12.6703  -19.3575 H         1 P97         0.0287
     44 H17       -19.2249  -14.1720  -20.2849 H         1 P97         0.0524
     45 H18       -20.1559  -13.8504  -21.7870 H         1 P97         0.0524
     46 H19       -16.4019   -9.5516  -21.1237 H         1 P97         0.1880
     47 H20       -14.7274  -10.4521  -18.9074 H         1 P97         0.0701
     48 H21       -14.4359   -9.0426  -19.9821 H         1 P97         0.0701
     49 H22       -13.8475  -12.6560  -19.4844 H         1 P97         0.0764
     50 H23       -11.0416  -12.9698  -22.5927 H         1 P97         0.0766
     51 H24       -11.5425  -10.6516  -23.3351 H         1 P97         0.0697
@<TRIPOS>BOND
     1    1    2 1  
     2    2    3 1  
     3    2    5 1  
     4    3    4 2  
     5    3   12 am 
     6    5    6 1  
     7    6    7 ar 
     8    6    8 ar 
     9    7    9 ar 
    10    8   10 ar 
    11    9   11 ar 
    12   10   11 ar 
    13   12   13 1  
    14   12   18 1  
    15   13   14 1  
    16   13   16 1  
    17   14   15 2  
    18   14   19 am 
    19   16   17 1  
    20   17   18 1  
    21   19   20 1  
    22   20   21 1  
    23   21   22 ar 
    24   21   26 ar 
    25   22   23 ar 
    26   23   24 ar 
    27   24   25 ar 
    28   25   26 ar 
    29   26   27 1  
    30    1   28 1  
    31    1   29 1  
    32    1   30 1  
    33    2   31 1  
    34    5   32 1  
    35    5   33 1  
    36    7   34 1  
    37    8   35 1  
    38    9   36 1  
    39   10   37 1  
    40   11   38 1  
    41   13   39 1  
    42   16   40 1  
    43   16   41 1  
    44   17   42 1  
    45   17   43 1  
    46   18   44 1  
    47   18   45 1  
    48   19   46 1  
    49   20   47 1  
    50   20   48 1  
    51   22   49 1  
    52   24   50 1  
    53   25   51 1  
@<TRIPOS>SUBSTRUCTURE
     1 P97         1

