### 
### Created by X-TOOL on Mon Sep 10 21:13:08 2018
### 

@<TRIPOS>MOLECULE
3shc_ligand
   51    53     1     0     0
SMALL
GAST_HUCK


@<TRIPOS>ATOM
      1 N21        16.4670  -16.0470   23.1480 N.4       1 B01         0.2394
      2 C8         17.6300  -15.1850   23.2700 C.3       1 B01         0.0746
      3 C9         17.2830  -13.8210   22.7350 C.2       1 B01         0.2313
      4 O25        16.2960  -13.2280   23.1540 O.2       1 B01        -0.3903
      5 C7         18.0200  -15.0840   24.7410 C.3       1 B01         0.0416
      6 C6         19.4380  -14.5680   24.8540 C.ar      1 B01        -0.0353
      7 C1         20.4480  -15.1110   24.0600 C.ar      1 B01        -0.0600
      8 C5         19.7360  -13.5580   25.7650 C.ar      1 B01        -0.0600
      9 C2         21.7540  -14.6370   24.1720 C.ar      1 B01        -0.0686
     10 C4         21.0380  -13.0840   25.8760 C.ar      1 B01        -0.0686
     11 C3         22.0460  -13.6240   25.0770 C.ar      1 B01        -0.0687
     12 N22        18.0770  -13.3080   21.7950 N.am      1 B01        -0.2470
     13 C10        17.7740  -11.9880   21.2330 C.3       1 B01         0.1339
     14 C11        16.3830  -11.9630   20.6550 C.2       1 B01         0.2039
     15 O26        15.9960  -12.9110   19.9890 O.2       1 B01        -0.3944
     16 C14        18.8090  -11.8000   20.1290 C.3       1 B01        -0.0104
     17 C15        19.5060  -13.1370   19.9370 C.3       1 B01        -0.0281
     18 C16        19.2710  -13.9260   21.2160 C.3       1 B01         0.0371
     19 C12        14.2330  -10.7040   20.4400 C.3       1 B01         0.0797
     20 C13        13.2640  -10.6040   21.6020 C.ar      1 B01         0.0503
     21 C17        11.5220  -11.5700   22.8360 C.ar      1 B01         0.0030
     22 C18        11.4780  -10.4810   23.7070 C.ar      1 B01        -0.0272
     23 C19        12.3620   -9.4240   23.5200 C.ar      1 B01         0.0543
     24 C20        13.2590   -9.4960   22.4520 C.ar      1 B01        -0.0166
     25 N23        15.6070  -10.9010   20.9080 N.am      1 B01        -0.2713
     26 N24        12.3970  -11.6160   21.8180 N.ar      1 B01        -0.2963
     27 CL27       12.3300   -7.9990   24.6400 Cl        1 B01        -0.0594
     28 H1         16.6893  -16.9635   23.5039 H         1 B01         0.2017
     29 H2         16.2019  -16.1184   22.1781 H         1 B01         0.2017
     30 H3         15.7029  -15.6573   23.6774 H         1 B01         0.2017
     31 H4         18.4678  -15.6053   22.6943 H         1 B01         0.1123
     32 H5         17.9537  -16.0783   25.2068 H         1 B01         0.0507
     33 H6         17.3363  -14.3921   25.2547 H         1 B01         0.0507
     34 H7         20.2172  -15.9019   23.3556 H         1 B01         0.0557
     35 H8         18.9526  -13.1413   26.3877 H         1 B01         0.0557
     36 H9         22.5396  -15.0575   23.5548 H         1 B01         0.0599
     37 H10        21.2699  -12.2955   26.5828 H         1 B01         0.0599
     38 H11        23.0606  -13.2520   25.1625 H         1 B01         0.0559
     39 H12        17.8706  -11.2048   21.9993 H         1 B01         0.0802
     40 H13        19.5398  -11.0325   20.4237 H         1 B01         0.0313
     41 H14        18.3136  -11.4953   19.1953 H         1 B01         0.0313
     42 H15        20.5834  -12.9855   19.7751 H         1 B01         0.0287
     43 H16        19.0772  -13.6703   19.0758 H         1 B01         0.0287
     44 H17        19.0933  -14.9885   20.9935 H         1 B01         0.0524
     45 H18        20.1297  -13.8326   21.8971 H         1 B01         0.0524
     46 H19        14.1845   -9.7756   19.8521 H         1 B01         0.0713
     47 H20        13.9451  -11.5553   19.8056 H         1 B01         0.0713
     48 H21        10.8358  -12.3961   22.9839 H         1 B01         0.0801
     49 H22        10.7623  -10.4591   24.5209 H         1 B01         0.0657
     50 H23        13.9574   -8.6848   22.2813 H         1 B01         0.0656
     51 H24        16.0029  -10.1742   21.4692 H         1 B01         0.1882
@<TRIPOS>BOND
     1    2    1 1  
     2    3    2 1  
     3    2    5 1  
     4    3    4 2  
     5   12    3 am 
     6    5    6 1  
     7    6    7 ar 
     8    6    8 ar 
     9    7    9 ar 
    10    8   10 ar 
    11    9   11 ar 
    12   10   11 ar 
    13   13   12 1  
    14   12   18 1  
    15   14   13 1  
    16   13   16 1  
    17   14   15 2  
    18   25   14 am 
    19   16   17 1  
    20   17   18 1  
    21   20   19 1  
    22   19   25 1  
    23   20   24 ar 
    24   26   20 ar 
    25   21   22 ar 
    26   21   26 ar 
    27   22   23 ar 
    28   23   24 ar 
    29   23   27 1  
    30    1   28 1  
    31    1   29 1  
    32    1   30 1  
    33    2   31 1  
    34    5   32 1  
    35    5   33 1  
    36    7   34 1  
    37    8   35 1  
    38    9   36 1  
    39   10   37 1  
    40   11   38 1  
    41   13   39 1  
    42   16   40 1  
    43   16   41 1  
    44   17   42 1  
    45   17   43 1  
    46   18   44 1  
    47   18   45 1  
    48   19   46 1  
    49   19   47 1  
    50   21   48 1  
    51   22   49 1  
    52   24   50 1  
    53   25   51 1  
@<TRIPOS>SUBSTRUCTURE
     1 B01         1

