### 
### Created by X-TOOL on Mon Sep 10 21:13:08 2018
### 

@<TRIPOS>MOLECULE
3shj_ligand
   51    54     1     0     0
SMALL
GAST_HUCK


@<TRIPOS>ATOM
      1 C1          4.4150 -134.9860   18.7250 C.3       1 H10         0.0926
      2 O2          5.5180 -134.2200   18.1850 O.3       1 H10        -0.3117
      3 C3          5.8070 -134.0380   16.8330 C.ar      1 H10         0.0928
      4 C4          6.7380 -134.8920   16.1590 C.ar      1 H10        -0.0181
      5 C5          7.0450 -134.6720   14.7750 C.ar      1 H10         0.0162
      6 C6          7.9930 -135.5240   14.1530 C.1       1 H10        -0.0665
      7 C7          8.7770 -136.2280   13.6660 C.1       1 H10        -0.0633
      8 C8          9.7660 -137.1080   13.0500 C.3       1 H10         0.1536
      9 N9         10.3050 -137.8130   14.2520 N.2       1 H10        -0.0441
     10 C10         9.9040 -139.1110   14.5950 C.2       1 H10         0.5385
     11 O11         9.0750 -139.7780   13.9180 O.2       1 H10        -0.1908
     12 N12        10.4240 -139.6730   15.7110 N.am      1 H10        -0.1581
     13 O13        11.1340 -137.2350   14.9920 O.2       1 H10        -0.1956
     14 C14        10.8300 -136.2400   12.2710 C.3       1 H10        -0.0250
     15 C15         6.4250 -133.6030   14.0510 C.ar      1 H10        -0.0574
     16 C16         5.4850 -132.7380   14.6890 C.ar      1 H10        -0.0692
     17 C17         5.1780 -132.9460   16.0740 C.ar      1 H10        -0.0329
     18 C18         4.5320 -134.8780   20.3140 C.3       1 H10        -0.0165
     19 C19         3.3310 -135.7100   20.9920 C.3       1 H10        -0.0376
     20 C20         1.9280 -135.1060   20.5140 C.3       1 H10        -0.0471
     21 C21         1.8170 -135.1870   18.9410 C.3       1 H10        -0.0376
     22 C22         1.9210 -136.7070   18.4580 C.3       1 H10        -0.0471
     23 C23         3.3000 -137.3360   18.9540 C.3       1 H10        -0.0376
     24 C24         3.4060 -137.2510   20.5500 C.3       1 H10        -0.0471
     25 C25         4.5020 -136.5400   18.3230 C.3       1 H10        -0.0165
     26 C26         2.9860 -134.3530   18.3300 C.3       1 H10        -0.0165
     27 H           7.2143 -135.7107   16.6984 H         1 H10         0.0551
     28 H           9.3993 -137.8065   12.2979 H         1 H10         0.0755
     29 H          10.1434 -140.6142   15.9863 H         1 H10         0.4164
     30 H          11.0966 -139.1554   16.2768 H         1 H10         0.4164
     31 H          11.2301 -135.4748   12.9363 H         1 H10         0.0265
     32 H          11.6397 -136.8832   11.9265 H         1 H10         0.0265
     33 H          10.3522 -135.7647   11.4143 H         1 H10         0.0265
     34 H           6.6735 -133.4480   13.0011 H         1 H10         0.0537
     35 H           5.0081 -131.9318   14.1316 H         1 H10         0.0590
     36 H           4.4682 -132.2854   16.5718 H         1 H10         0.0544
     37 H           4.4678 -133.8324   20.6150 H         1 H10         0.0299
     38 H           5.4888 -135.2869   20.6387 H         1 H10         0.0299
     39 H           3.4227 -135.6378   22.0757 H         1 H10         0.0302
     40 H           1.8597 -134.0639   20.8263 H         1 H10         0.0271
     41 H           1.1174 -135.6808   20.9620 H         1 H10         0.0271
     42 H           0.8564 -134.7902   18.6125 H         1 H10         0.0302
     43 H           1.8781 -136.7438   17.3695 H         1 H10         0.0271
     44 H           1.0923 -137.2769   18.8781 H         1 H10         0.0271
     45 H           3.3380 -138.3799   18.6426 H         1 H10         0.0302
     46 H           2.5855 -137.8060   21.0048 H         1 H10         0.0271
     47 H           4.3496 -137.6847   20.8811 H         1 H10         0.0271
     48 H           5.4383 -136.9527   18.6988 H         1 H10         0.0299
     49 H           4.4573 -136.6297   17.2376 H         1 H10         0.0299
     50 H           2.8892 -134.3582   17.2443 H         1 H10         0.0299
     51 H           2.9331 -133.3372   18.7218 H         1 H10         0.0299
@<TRIPOS>BOND
     1    1    2 1  
     2    1   18 1  
     3    1   25 1  
     4    1   26 1  
     5    2    3 1  
     6    3    4 ar 
     7    3   17 ar 
     8    4    5 ar 
     9    5    6 1  
    10    5   15 ar 
    11    6    7 3  
    12    7    8 1  
    13    8    9 1  
    14    8   14 1  
    15    9   10 1  
    16    9   13 2  
    17   10   11 2  
    18   10   12 am 
    19   15   16 ar 
    20   16   17 ar 
    21   18   19 1  
    22   19   20 1  
    23   19   24 1  
    24   20   21 1  
    25   21   22 1  
    26   21   26 1  
    27   22   23 1  
    28   23   24 1  
    29   23   25 1  
    30    4   27 1  
    31    8   28 1  
    32   12   29 1  
    33   12   30 1  
    34   14   31 1  
    35   14   32 1  
    36   14   33 1  
    37   15   34 1  
    38   16   35 1  
    39   17   36 1  
    40   18   37 1  
    41   18   38 1  
    42   19   39 1  
    43   20   40 1  
    44   20   41 1  
    45   21   42 1  
    46   22   43 1  
    47   22   44 1  
    48   23   45 1  
    49   24   46 1  
    50   24   47 1  
    51   25   48 1  
    52   25   49 1  
    53   26   50 1  
    54   26   51 1  
@<TRIPOS>SUBSTRUCTURE
     1 H10         1

