### 
### Created by X-TOOL on Mon Sep 10 21:13:08 2018
### 

@<TRIPOS>MOLECULE
3si3_ligand
   51    53     1     0     0
SMALL
GAST_HUCK


@<TRIPOS>ATOM
      1 N10        16.6920  -15.3670   23.3600 N.4       1 B03         0.2394
      2 C8         17.9710  -14.6840   23.3400 C.3       1 B03         0.0746
      3 C9         17.7590  -13.3150   22.7490 C.2       1 B03         0.2313
      4 O12        16.8250  -12.6150   23.1350 O.2       1 B03        -0.3903
      5 C7         18.4740  -14.5870   24.7850 C.3       1 B03         0.0416
      6 C4         19.8740  -14.0180   24.8370 C.ar      1 B03        -0.0353
      7 C3         20.9500  -14.6840   24.2540 C.ar      1 B03        -0.0600
      8 C5         20.0850  -12.8070   25.4680 C.ar      1 B03        -0.0600
      9 C2         22.2250  -14.1270   24.3100 C.ar      1 B03        -0.0686
     10 C6         21.3540  -12.2480   25.5180 C.ar      1 B03        -0.0686
     11 C1         22.4350  -12.9120   24.9400 C.ar      1 B03        -0.0687
     12 N11        18.6040  -12.9030   21.8160 N.am      1 B03        -0.2470
     13 C13        18.4090  -11.5830   21.2360 C.3       1 B03         0.1339
     14 C17        17.0650  -11.4740   20.5700 C.2       1 B03         0.2039
     15 O28        16.7190  -12.3280   19.7680 O.2       1 B03        -0.3944
     16 C15        19.5130  -11.4360   20.1920 C.3       1 B03        -0.0104
     17 C16        20.5110  -12.5460   20.4710 C.3       1 B03        -0.0281
     18 C14        19.7600  -13.6160   21.2560 C.3       1 B03         0.0371
     19 N18        16.2730  -10.4460   20.8920 N.am      1 B03        -0.2713
     20 C19        14.9490  -10.2000   20.3250 C.3       1 B03         0.0798
     21 C20        13.8650  -10.0880   21.3770 C.ar      1 B03         0.0502
     22 C22        13.8200   -9.0020   22.2450 C.ar      1 B03        -0.0304
     23 C23        12.8120   -8.9290   23.1990 C.ar      1 B03        -0.0488
     24 C24        11.8640   -9.9390   23.2620 C.ar      1 B03        -0.0410
     25 C25        11.9440  -11.0030   22.3720 C.ar      1 B03         0.0028
     26 N21        12.9240  -11.0540   21.4610 N.ar      1 B03        -0.2960
     27 H1         16.8091  -16.2880   23.7525 H         1 B03         0.2017
     28 H2         16.3381  -15.4452   22.4194 H         1 B03         0.2017
     29 H3         16.0398  -14.8427   23.9220 H         1 B03         0.2017
     30 H4         18.6953  -15.2441   22.7303 H         1 B03         0.1123
     31 H5         18.4778  -15.5919   25.2323 H         1 B03         0.0507
     32 H6         17.7992  -13.9335   25.3572 H         1 B03         0.0507
     33 H7         20.7947  -15.6349   23.7573 H         1 B03         0.0557
     34 H8         19.2515  -12.2889   25.9282 H         1 B03         0.0557
     35 H9         23.0600  -14.6489   23.8567 H         1 B03         0.0599
     36 H10        21.5052  -11.2928   26.0076 H         1 B03         0.0599
     37 H11        23.4290  -12.4818   24.9833 H         1 B03         0.0559
     38 H12        18.4997  -10.8069   22.0102 H         1 B03         0.0802
     39 H13        19.9990  -10.4537   20.2867 H         1 B03         0.0313
     40 H14        19.0969  -11.5431   19.1794 H         1 B03         0.0313
     41 H15        21.3528  -12.1599   21.0645 H         1 B03         0.0287
     42 H16        20.8894  -12.9632   19.5262 H         1 B03         0.0287
     43 H17        19.4330  -14.4300   20.5924 H         1 B03         0.0524
     44 H18        20.3910  -14.0275   22.0576 H         1 B03         0.0524
     45 H19        16.6124   -9.7964   21.5723 H         1 B03         0.1882
     46 H20        14.6972  -11.0309   19.6496 H         1 B03         0.0713
     47 H21        14.9814   -9.2603   19.7541 H         1 B03         0.0713
     48 H22        14.5658   -8.2182   22.1778 H         1 B03         0.0652
     49 H23        12.7674   -8.0918   23.8862 H         1 B03         0.0719
     50 H24        11.0689   -9.8989   23.9978 H         1 B03         0.0652
     51 H25        11.2078  -11.7975   22.4155 H         1 B03         0.0803
@<TRIPOS>BOND
     1    1    2 1  
     2    2    3 1  
     3    2    5 1  
     4    3    4 2  
     5    3   12 am 
     6    5    6 1  
     7    6    7 ar 
     8    6    8 ar 
     9    7    9 ar 
    10    8   10 ar 
    11    9   11 ar 
    12   10   11 ar 
    13   12   13 1  
    14   12   18 1  
    15   13   14 1  
    16   13   16 1  
    17   14   15 2  
    18   14   19 am 
    19   16   17 1  
    20   17   18 1  
    21   19   20 1  
    22   20   21 1  
    23   21   22 ar 
    24   21   26 ar 
    25   22   23 ar 
    26   23   24 ar 
    27   24   25 ar 
    28   25   26 ar 
    29    1   27 1  
    30    1   28 1  
    31    1   29 1  
    32    2   30 1  
    33    5   31 1  
    34    5   32 1  
    35    7   33 1  
    36    8   34 1  
    37    9   35 1  
    38   10   36 1  
    39   11   37 1  
    40   13   38 1  
    41   16   39 1  
    42   16   40 1  
    43   17   41 1  
    44   17   42 1  
    45   18   43 1  
    46   18   44 1  
    47   19   45 1  
    48   20   46 1  
    49   20   47 1  
    50   22   48 1  
    51   23   49 1  
    52   24   50 1  
    53   25   51 1  
@<TRIPOS>SUBSTRUCTURE
     1 B03         1

