### 
### Created by X-TOOL on Mon Sep 10 21:13:08 2018
### 

@<TRIPOS>MOLECULE
3si4_ligand
   55    57     1     0     0
SMALL
GAST_HUCK


@<TRIPOS>ATOM
      1 N4         16.6960  -15.5690   23.2920 N.4       1 B04         0.2394
      2 C3         17.9550  -14.8470   23.2990 C.3       1 B04         0.0746
      3 C5         17.7070  -13.4920   22.6930 C.2       1 B04         0.2313
      4 O7         16.7810  -12.7970   23.0920 O.2       1 B04        -0.3903
      5 C2         18.4400  -14.7650   24.7430 C.3       1 B04         0.0416
      6 C1         19.8390  -14.2060   24.8030 C.ar      1 B04        -0.0353
      7 C8         20.9130  -14.8860   24.2310 C.ar      1 B04        -0.0600
      8 C12        20.0440  -13.0020   25.4600 C.ar      1 B04        -0.0600
      9 C9         22.1940  -14.3480   24.3120 C.ar      1 B04        -0.0686
     10 C11        21.3220  -12.4660   25.5340 C.ar      1 B04        -0.0686
     11 C10        22.3970  -13.1350   24.9610 C.ar      1 B04        -0.0687
     12 N6         18.5140  -13.0720   21.7160 N.am      1 B04        -0.2470
     13 C13        18.2630  -11.7660   21.1060 C.3       1 B04         0.1343
     14 C14        16.8660  -11.7520   20.5410 C.2       1 B04         0.2080
     15 O15        16.4590  -12.7100   19.8990 O.2       1 B04        -0.3940
     16 C19        19.2930  -11.6620   19.9880 C.3       1 B04        -0.0104
     17 C20        20.3510  -12.6940   20.3150 C.3       1 B04        -0.0281
     18 C21        19.6530  -13.7790   21.1240 C.3       1 B04         0.0371
     19 N16        16.0900  -10.6930   20.7800 N.am      1 B04        -0.2485
     20 C17        14.7210  -10.5330   20.2950 C.3       1 B04         0.1326
     21 C18        13.7290  -10.4070   21.4310 C.ar      1 B04         0.1486
     22 C22        13.5170   -9.1730   22.0410 C.ar      1 B04         0.0700
     23 C23        12.6090   -9.0770   23.0860 C.ar      1 B04         0.0438
     24 C24        11.9200  -10.2160   23.4870 C.ar      1 B04         0.0551
     25 C25        12.1690  -11.4190   22.8380 C.ar      1 B04         0.0837
     26 N26        13.0570  -11.4940   21.8380 N.ar      1 B04        -0.2812
     27 C27        13.2920  -12.7830   21.1790 C.3       1 B04         0.0165
     28 H1         16.8310  -16.4837   23.6934 H         1 B04         0.2017
     29 H2         16.3680  -15.6634   22.3435 H         1 B04         0.2017
     30 H3         16.0145  -15.0614   23.8342 H         1 B04         0.2017
     31 H4         18.7033  -15.3823   22.6961 H         1 B04         0.1123
     32 H5         18.4344  -15.7728   25.1838 H         1 B04         0.0507
     33 H6         17.7648  -14.1110   25.3144 H         1 B04         0.0507
     34 H7         20.7510  -15.8307   23.7248 H         1 B04         0.0557
     35 H8         19.2088  -12.4813   25.9142 H         1 B04         0.0557
     36 H9         23.0324  -14.8738   23.8697 H         1 B04         0.0599
     37 H10        21.4825  -11.5214   26.0410 H         1 B04         0.0599
     38 H11        23.3931  -12.7115   25.0199 H         1 B04         0.0559
     39 H12        18.3866  -10.9515   21.8349 H         1 B04         0.0802
     40 H13        19.7335  -10.6544   19.9637 H         1 B04         0.0313
     41 H14        18.8285  -11.8827   19.0156 H         1 B04         0.0313
     42 H15        21.1584  -12.2377   20.9065 H         1 B04         0.0287
     43 H16        20.7687  -13.1178   19.3899 H         1 B04         0.0287
     44 H17        19.3141  -14.5994   20.4743 H         1 B04         0.0524
     45 H18        20.3177  -14.1793   21.9037 H         1 B04         0.0524
     46 H19        16.4743   -9.9534   21.3325 H         1 B04         0.1942
     47 H20        14.4548  -11.4099   19.6866 H         1 B04         0.1060
     48 H21        14.6676   -9.6263   19.6745 H         1 B04         0.1060
     49 H22        14.0563   -8.2957   21.7026 H         1 B04         0.1277
     50 H23        12.4395   -8.1282   23.5822 H         1 B04         0.0965
     51 H24        11.1987  -10.1662   24.2946 H         1 B04         0.1439
     52 H25        11.6360  -12.3113   23.1459 H         1 B04         0.1343
     53 H26        14.0463  -12.6583   20.3881 H         1 B04         0.0416
     54 H27        12.3525  -13.1450   20.7359 H         1 B04         0.0416
     55 H28        13.6535  -13.5125   21.9187 H         1 B04         0.0416
@<TRIPOS>BOND
     1    1    2 1  
     2    2    3 1  
     3    2    5 1  
     4    3    4 2  
     5    3   12 am 
     6    5    6 1  
     7    6    7 ar 
     8    6    8 ar 
     9    7    9 ar 
    10    8   10 ar 
    11    9   11 ar 
    12   10   11 ar 
    13   12   13 1  
    14   12   18 1  
    15   13   14 1  
    16   13   16 1  
    17   14   15 2  
    18   14   19 am 
    19   16   17 1  
    20   17   18 1  
    21   19   20 1  
    22   20   21 1  
    23   21   22 ar 
    24   21   26 ar 
    25   22   23 ar 
    26   23   24 ar 
    27   24   25 ar 
    28   25   26 ar 
    29   26   27 1  
    30    1   28 1  
    31    1   29 1  
    32    1   30 1  
    33    2   31 1  
    34    5   32 1  
    35    5   33 1  
    36    7   34 1  
    37    8   35 1  
    38    9   36 1  
    39   10   37 1  
    40   11   38 1  
    41   13   39 1  
    42   16   40 1  
    43   16   41 1  
    44   17   42 1  
    45   17   43 1  
    46   18   44 1  
    47   18   45 1  
    48   19   46 1  
    49   20   47 1  
    50   20   48 1  
    51   22   49 1  
    52   23   50 1  
    53   24   51 1  
    54   25   52 1  
    55   27   53 1  
    56   27   54 1  
    57   27   55 1  
@<TRIPOS>SUBSTRUCTURE
     1 B04         1

