### 
### Created by X-TOOL on Mon Sep 10 21:13:06 2018
### 

@<TRIPOS>MOLECULE
3sio_ligand
  100   107     1     0     0
SMALL
GAST_HUCK


@<TRIPOS>ATOM
      1 O8        -37.6130   -7.8750  -19.3830 O.2       1 MLK        -0.3744
      2 C8        -38.4430   -8.3070  -20.1510 C.2       1 MLK         0.2359
      3 C9        -38.1660   -9.2050  -21.3480 C.3       1 MLK         0.0686
      4 C10       -39.5170   -9.2460  -22.0830 C.3       1 MLK         0.0744
      5 C12       -39.4040   -8.5660  -23.4510 C.3       1 MLK        -0.0422
      6 C11       -40.4450   -8.4800  -21.1490 C.2       1 MLK         0.2384
      7 O11       -41.6320   -8.2880  -21.3310 O.2       1 MLK        -0.3741
      8 N7        -39.7550   -8.0520  -20.0750 N.am      1 MLK        -0.1277
      9 C6        -40.3650   -7.4150  -18.9800 C.ar      1 MLK         0.1179
     10 C5        -41.0100   -8.1820  -18.0120 C.ar      1 MLK        -0.0292
     11 C4        -41.6260   -7.5840  -16.9220 C.ar      1 MLK        -0.0688
     12 C3        -41.6170   -6.2060  -16.7760 C.ar      1 MLK        -0.0695
     13 C2        -40.9840   -5.4270  -17.7230 C.ar      1 MLK        -0.0521
     14 C1        -40.3550   -6.0120  -18.8330 C.ar      1 MLK         0.0872
     15 C13       -39.6840   -5.1300  -19.8150 C.2       1 MLK         0.2546
     16 O13       -39.2540   -5.5660  -20.8690 O.2       1 MLK        -0.3652
     17 O14       -39.5180   -3.8270  -19.5160 O.3       1 MLK        -0.2791
     18 C15       -38.5480   -3.0440  -20.2560 C.3       1 MLK         0.0861
     19 C16       -38.2760   -1.7610  -19.4760 C.3       1 MLK         0.0443
     20 C21       -39.5990   -1.2170  -18.9370 C.3       1 MLK        -0.0374
     21 C20       -39.4780   -0.7410  -17.4850 C.3       1 MLK        -0.0251
     22 C19       -38.1980    0.0380  -17.2370 C.3       1 MLK         0.0698
     23 O19       -38.3210    1.3090  -17.9020 O.3       1 MLK        -0.3790
     24 C22       -39.0960    2.1820  -17.0660 C.3       1 MLK         0.0368
     25 C18       -36.9430   -0.7210  -17.6310 C.3       1 MLK         0.0517
     26 C17       -37.2900   -2.0650  -18.3140 C.3       1 MLK         0.0147
     27 C26       -36.0720   -0.0610  -18.7500 C.3       1 MLK         0.0226
     28 N23       -36.9670    0.3270  -19.8370 N.4       1 MLK         0.2403
     29 C24       -36.3100    1.1880  -20.8200 C.3       1 MLK        -0.0344
     30 C25       -35.9200    2.5170  -20.1740 C.3       1 MLK        -0.0245
     31 C23       -37.6980   -0.7520  -20.4760 C.3       1 MLK        -0.0229
     32 C30       -36.0730   -0.8830  -16.3760 C.3       1 MLK        -0.0191
     33 C33       -35.6300    0.4670  -15.7810 C.3       1 MLK        -0.0414
     34 C34       -34.1190    0.3300  -15.4510 C.3       1 MLK         0.0123
     35 C35       -33.3620    0.8930  -16.6760 C.3       1 MLK         0.0662
     36 O35       -32.0750    1.4040  -16.3180 O.3       1 MLK        -0.3793
     37 C37       -32.2880    2.7830  -16.0040 C.3       1 MLK         0.0368
     38 C36       -33.2940   -0.0280  -17.8890 C.3       1 MLK         0.0061
     39 C31       -34.7650   -1.6910  -16.5680 C.3       1 MLK         0.0212
     40 C38       -33.8810   -1.2010  -15.3680 C.3       1 MLK         0.0693
     41 O38       -32.4930   -1.5310  -15.4520 O.3       1 MLK        -0.3790
     42 C39       -32.2750   -2.8430  -14.9260 C.3       1 MLK         0.0368
     43 C32       -34.0670   -1.3400  -17.8830 C.3       1 MLK         0.1102
     44 O32       -33.1390   -2.4070  -18.1880 O.3       1 MLK        -0.3850
     45 C27       -35.0890   -1.2330  -19.0640 C.3       1 MLK         0.1641
     46 O27       -34.4070   -1.1090  -20.3270 O.3       1 MLK        -0.3780
     47 C28       -36.0050   -2.4880  -19.0770 C.3       1 MLK         0.0994
     48 O28       -35.3980   -3.6330  -18.4990 O.3       1 MLK        -0.3763
     49 C29       -36.1080   -4.8000  -18.9170 C.3       1 MLK         0.0369
     50 H1        -37.8638  -10.2116  -21.0234 H         1 MLK         0.0541
     51 H2        -37.3820   -8.7757  -21.9891 H         1 MLK         0.0541
     52 H3        -39.8637  -10.2813  -22.2167 H         1 MLK         0.0571
     53 H4        -40.3777   -8.6048  -23.9613 H         1 MLK         0.0259
     54 H5        -38.6505   -9.0881  -24.0589 H         1 MLK         0.0259
     55 H6        -39.1028   -7.5168  -23.3152 H         1 MLK         0.0259
     56 H7        -41.0308   -9.2612  -18.1119 H         1 MLK         0.0534
     57 H8        -42.1185   -8.2000  -16.1783 H         1 MLK         0.0619
     58 H9        -42.1033   -5.7436  -15.9247 H         1 MLK         0.0515
     59 H10       -40.9724   -4.3492  -17.6081 H         1 MLK         0.0636
     60 H11       -38.9490   -2.7974  -21.2502 H         1 MLK         0.0618
     61 H12       -37.6153   -3.6162  -20.3684 H         1 MLK         0.0618
     62 H13       -40.3566   -2.0129  -18.9873 H         1 MLK         0.0274
     63 H14       -39.9153   -0.3695  -19.5628 H         1 MLK         0.0274
     64 H15       -39.4911   -1.6193  -16.8228 H         1 MLK         0.0291
     65 H16       -40.3364   -0.0936  -17.2525 H         1 MLK         0.0291
     66 H17       -38.1259    0.2292  -16.1562 H         1 MLK         0.0603
     67 H18       -39.2021    3.1607  -17.5567 H         1 MLK         0.0524
     68 H19       -38.5879    2.3100  -16.0988 H         1 MLK         0.0524
     69 H20       -40.0917    1.7442  -16.9021 H         1 MLK         0.0524
     70 H21       -37.6615   -2.8217  -17.6073 H         1 MLK         0.0343
     71 H22       -35.5247    0.8238  -18.3930 H         1 MLK         0.0888
     72 H23       -37.6728    0.8988  -19.4001 H         1 MLK         0.2038
     73 H24       -36.9991    1.3779  -21.6561 H         1 MLK         0.0812
     74 H25       -35.4060    0.6870  -21.1965 H         1 MLK         0.0812
     75 H26       -35.4271    3.1569  -20.9207 H         1 MLK         0.0281
     76 H27       -35.2295    2.3299  -19.3384 H         1 MLK         0.0281
     77 H28       -36.8227    3.0208  -19.7980 H         1 MLK         0.0281
     78 H29       -38.5268   -0.3187  -21.0550 H         1 MLK         0.0821
     79 H30       -37.0151   -1.2837  -21.1549 H         1 MLK         0.0821
     80 H31       -36.6905   -1.4081  -15.6324 H         1 MLK         0.0313
     81 H32       -36.2004    0.6843  -14.8659 H         1 MLK         0.0273
     82 H33       -35.7875    1.2741  -16.5116 H         1 MLK         0.0273
     83 H34       -33.8362    0.8459  -14.5216 H         1 MLK         0.0351
     84 H35       -33.9510    1.7615  -17.0058 H         1 MLK         0.0600
     85 H36       -31.3321    3.2455  -15.7169 H         1 MLK         0.0524
     86 H37       -32.9995    2.8633  -15.1690 H         1 MLK         0.0524
     87 H38       -32.6960    3.3008  -16.8845 H         1 MLK         0.0524
     88 H39       -32.2342   -0.2826  -18.0375 H         1 MLK         0.0319
     89 H40       -33.6561    0.5518  -18.7508 H         1 MLK         0.0319
     90 H41       -34.9544   -2.7735  -16.5208 H         1 MLK         0.0358
     91 H42       -34.2686   -1.6071  -14.4221 H         1 MLK         0.0603
     92 H43       -31.2056   -3.0919  -14.9930 H         1 MLK         0.0524
     93 H44       -32.8583   -3.5726  -15.5069 H         1 MLK         0.0524
     94 H45       -32.5933   -2.8737  -13.8735 H         1 MLK         0.0524
     95 H46       -33.6153   -3.2244  -18.2745 H         1 MLK         0.2103
     96 H47       -33.8588   -1.8724  -20.4659 H         1 MLK         0.2106
     97 H48       -36.2630   -2.7339  -20.1176 H         1 MLK         0.0631
     98 H49       -35.6421   -5.6916  -18.4721 H         1 MLK         0.0524
     99 H50       -36.0735   -4.8770  -20.0137 H         1 MLK         0.0524
    100 H51       -37.1550   -4.7301  -18.5870 H         1 MLK         0.0524
@<TRIPOS>BOND
     1    1    2 2  
     2    2    3 1  
     3    2    8 am 
     4    3    4 1  
     5    4    5 1  
     6    4    6 1  
     7    6    7 2  
     8    6    8 am 
     9    8    9 1  
    10    9   10 ar 
    11    9   14 ar 
    12   10   11 ar 
    13   11   12 ar 
    14   12   13 ar 
    15   13   14 ar 
    16   14   15 1  
    17   15   16 2  
    18   15   17 1  
    19   17   18 1  
    20   18   19 1  
    21   19   20 1  
    22   19   26 1  
    23   19   31 1  
    24   20   21 1  
    25   21   22 1  
    26   22   23 1  
    27   22   25 1  
    28   23   24 1  
    29   25   26 1  
    30   25   27 1  
    31   25   32 1  
    32   26   47 1  
    33   27   28 1  
    34   27   45 1  
    35   28   29 1  
    36   28   31 1  
    37   29   30 1  
    38   32   33 1  
    39   32   39 1  
    40   33   34 1  
    41   34   35 1  
    42   34   40 1  
    43   35   36 1  
    44   35   38 1  
    45   36   37 1  
    46   38   43 1  
    47   39   40 1  
    48   39   43 1  
    49   40   41 1  
    50   41   42 1  
    51   43   44 1  
    52   43   45 1  
    53   45   46 1  
    54   45   47 1  
    55   47   48 1  
    56   48   49 1  
    57    3   50 1  
    58    3   51 1  
    59    4   52 1  
    60    5   53 1  
    61    5   54 1  
    62    5   55 1  
    63   10   56 1  
    64   11   57 1  
    65   12   58 1  
    66   13   59 1  
    67   18   60 1  
    68   18   61 1  
    69   20   62 1  
    70   20   63 1  
    71   21   64 1  
    72   21   65 1  
    73   22   66 1  
    74   24   67 1  
    75   24   68 1  
    76   24   69 1  
    77   26   70 1  
    78   27   71 1  
    79   28   72 1  
    80   29   73 1  
    81   29   74 1  
    82   30   75 1  
    83   30   76 1  
    84   30   77 1  
    85   31   78 1  
    86   31   79 1  
    87   32   80 1  
    88   33   81 1  
    89   33   82 1  
    90   34   83 1  
    91   35   84 1  
    92   37   85 1  
    93   37   86 1  
    94   37   87 1  
    95   38   88 1  
    96   38   89 1  
    97   39   90 1  
    98   40   91 1  
    99   42   92 1  
   100   42   93 1  
   101   42   94 1  
   102   44   95 1  
   103   46   96 1  
   104   47   97 1  
   105   49   98 1  
   106   49   99 1  
   107   49  100 1  
@<TRIPOS>SUBSTRUCTURE
     1 MLK         1

