### 
### Created by X-TOOL on Mon Sep 10 21:13:05 2018
### 

@<TRIPOS>MOLECULE
3sjf_ligand
   54    54     1     0     0
SMALL
GAST_HUCK


@<TRIPOS>ATOM
      1 C          20.1410   45.6330   45.8170 C.2       1 JRG         0.0599
      2 N          18.6580   45.3960   43.9460 N.am      1 JRG        -0.2576
      3 O          19.6260   46.7780   46.0570 O.co2     1 JRG        -0.5666
      4 CA         19.9730   45.0010   44.4330 C.3       1 JRG         0.0947
      5 CB         20.9840   45.6360   43.4270 C.3       1 JRG        -0.0181
      6 CAA        13.9150   48.8470   40.1760 C.3       1 JRG        -0.0181
      7 OAC        17.8880   45.6370   40.3950 O.co2     1 JRG        -0.5666
      8 OAD        18.4290   43.6550   42.5610 O.2       1 JRG        -0.4006
      9 OAE        22.2550   49.6670   43.9380 O.2       1 JRG        -0.3836
     10 OAG        16.9490   43.9160   39.3810 O.co2     1 JRG        -0.5666
     11 IAH        23.6370   50.3040   51.3770 I         1 JRG        -0.0459
     12 CAI        23.3800   50.9130   48.1100 C.ar      1 JRG        -0.0453
     13 CAJ        23.5020   48.6570   48.5380 C.ar      1 JRG        -0.0453
     14 CAK        23.2520   50.6810   46.7090 C.ar      1 JRG        -0.0391
     15 CAL        23.4010   48.3830   47.1280 C.ar      1 JRG        -0.0391
     16 CAM        23.4200   45.9410   42.6700 C.3       1 JRG        -0.0326
     17 CAN        22.4450   45.2170   43.6730 C.3       1 JRG        -0.0476
     18 CAO        23.3970   47.4750   42.6850 C.3       1 JRG         0.0305
     19 CAP        14.8230   46.6160   41.1390 C.3       1 JRG        -0.0030
     20 CAR        14.7380   45.1400   41.1900 C.3       1 JRG        -0.0091
     21 NAS        23.6680   47.9680   44.0550 N.am      1 JRG        -0.2858
     22 NAU        16.7460   45.1250   42.7140 N.am      1 JRG        -0.2575
     23 SAV        13.2730   47.2280   40.3730 S.3       1 JRG        -0.1639
     24 CAX        17.0410   44.7160   40.3370 C.2       1 JRG         0.0599
     25 CAY        17.9700   44.6910   43.0490 C.2       1 JRG         0.2608
     26 CAZ        23.1040   49.0510   44.5910 C.2       1 JRG         0.2067
     27 CBA        23.4950   49.9380   49.1520 C.ar      1 JRG         0.0137
     28 CBB        23.2950   49.3740   46.1360 C.ar      1 JRG         0.0523
     29 CBD        16.0900   44.5040   41.5590 C.3       1 JRG         0.0954
     30 OXT        20.7520   44.9090   46.6270 O.co2     1 JRG        -0.5666
     31 H1         18.2519   46.2375   44.3024 H         1 JRG         0.1869
     32 H2         20.0860   43.9079   44.4807 H         1 JRG         0.0723
     33 H3         20.9174   46.7307   43.5116 H         1 JRG         0.0305
     34 H4         20.7010   45.3290   42.4093 H         1 JRG         0.0305
     35 H5         13.1546   49.4883   39.7065 H         1 JRG         0.0340
     36 H6         14.8098   48.8114   39.5372 H         1 JRG         0.0340
     37 H7         14.1835   49.2573   41.1606 H         1 JRG         0.0340
     38 H8         23.3916   51.9507   48.4233 H         1 JRG         0.0657
     39 H9         23.5924   47.8006   49.1964 H         1 JRG         0.0657
     40 H10        23.1164   51.5322   46.0517 H         1 JRG         0.0675
     41 H11        23.4071   47.3464   46.8109 H         1 JRG         0.0675
     42 H12        23.1591   45.6122   41.6532 H         1 JRG         0.0285
     43 H13        24.4446   45.6192   42.9079 H         1 JRG         0.0285
     44 H14        22.5341   44.1290   43.5381 H         1 JRG         0.0268
     45 H15        22.7264   45.4831   44.7025 H         1 JRG         0.0268
     46 H16        22.4077   47.8285   42.3589 H         1 JRG         0.0519
     47 H17        24.1676   47.8584   42.0000 H         1 JRG         0.0519
     48 H18        15.6883   46.9221   40.5328 H         1 JRG         0.0378
     49 H19        14.9256   47.0222   42.1561 H         1 JRG         0.0378
     50 H20        14.4260   44.7666   40.2035 H         1 JRG         0.0313
     51 H21        13.9909   44.8518   41.9442 H         1 JRG         0.0313
     52 H22        24.3174   47.4543   44.6157 H         1 JRG         0.1845
     53 H23        16.2950   45.8493   43.2355 H         1 JRG         0.1869
     54 H24        15.9439   43.4319   41.7572 H         1 JRG         0.0723
@<TRIPOS>BOND
     1    1    3 ar 
     2    4    1 1  
     3    1   30 ar 
     4    4    2 1  
     5    2   25 am 
     6    5    4 1  
     7   17    5 1  
     8   23    6 1  
     9   24    7 ar 
    10   25    8 2  
    11   26    9 2  
    12   24   10 ar 
    13   27   11 1  
    14   14   12 ar 
    15   12   27 ar 
    16   15   13 ar 
    17   13   27 ar 
    18   28   14 ar 
    19   28   15 ar 
    20   16   17 1  
    21   18   16 1  
    22   21   18 1  
    23   20   19 1  
    24   19   23 1  
    25   29   20 1  
    26   26   21 am 
    27   25   22 am 
    28   22   29 1  
    29   29   24 1  
    30   26   28 1  
    31    2   31 1  
    32    4   32 1  
    33    5   33 1  
    34    5   34 1  
    35    6   35 1  
    36    6   36 1  
    37    6   37 1  
    38   12   38 1  
    39   13   39 1  
    40   14   40 1  
    41   15   41 1  
    42   16   42 1  
    43   16   43 1  
    44   17   44 1  
    45   17   45 1  
    46   18   46 1  
    47   18   47 1  
    48   19   48 1  
    49   19   49 1  
    50   20   50 1  
    51   20   51 1  
    52   21   52 1  
    53   22   53 1  
    54   29   54 1  
@<TRIPOS>SUBSTRUCTURE
     1 JRG         1

