### 
### Created by X-TOOL on Mon Sep 10 21:13:06 2018
### 

@<TRIPOS>MOLECULE
3sji_ligand
   87    89     1     0     0
SMALL
GAST_HUCK


@<TRIPOS>ATOM
      1 C01        -9.5350   -8.6290   -2.6810 C.2       1 AG7         0.1331
      2 C02        -8.1250   -7.9930   -2.4610 C.3       1 AG7         0.0448
      3 O03        -9.6980   -9.8300   -2.5040 O.2       1 AG7        -0.3890
      4 C04        -7.0810   -8.8920   -1.7830 C.3       1 AG7         0.0733
      5 C05        -5.7710   -8.2020   -1.4790 C.3       1 AG7         0.0009
      6 C06        -5.1340   -7.3990   -2.5850 C.ar      1 AG7        -0.0442
      7 C07        -4.6050   -8.0900   -3.7120 C.ar      1 AG7        -0.0618
      8 C08        -4.0040   -7.3560   -4.7690 C.ar      1 AG7        -0.0349
      9 C09        -3.9430   -5.9730   -4.6940 C.ar      1 AG7         0.1248
     10 C10        -4.5000   -5.2560   -3.5150 C.ar      1 AG7        -0.0349
     11 C11        -5.0770   -5.9670   -2.4980 C.ar      1 AG7        -0.0618
     12 N12        -7.4060  -11.1250   -0.4400 N.am      1 AG7        -0.2833
     13 C13        -7.6700  -11.8500    0.8160 C.3       1 AG7         0.0447
     14 C14        -8.7800  -12.8900    0.7400 C.3       1 AG7        -0.0192
     15 C15       -10.1690  -12.3890    0.3890 C.3       1 AG7         0.0350
     16 C16       -11.3120  -13.3160   -0.0970 C.3       1 AG7         0.0834
     17 N17       -12.5480  -12.8350    0.5280 N.4       1 AG7         0.2492
     18 O18       -11.1290  -14.5230   -0.7580 O.3       1 AG7        -0.3528
     19 C19        -6.4170  -12.3810    1.4550 C.3       1 AG7        -0.0116
     20 C20        -5.4990  -11.3310    2.0770 C.3       1 AG7         0.0508
     21 C21        -6.1030  -10.5570    3.2430 C.2       1 AG7         0.2338
     22 O22        -6.0330   -9.2440    3.2730 O.3       1 AG7        -0.2771
     23 O23        -6.7760  -11.1620    4.0920 O.2       1 AG7        -0.3704
     24 C47        -7.6590   -9.6740   -0.5580 C.2       1 AG7         0.1835
     25 O48        -8.2340   -9.0650    0.3270 O.2       1 AG7        -0.3964
     26 C50        -6.6230   -8.5410    4.3620 C.3       1 AG7         0.0740
     27 C53        -6.3460   -7.0440    4.4880 C.3       1 AG7        -0.0371
     28 C57       -10.7320   -7.7770   -3.1900 C.3       1 AG7         0.1169
     29 N58       -11.4790   -8.4650   -4.2230 N.am      1 AG7        -0.2658
     30 C59       -11.6270   -7.9270   -5.5610 C.2       1 AG7         0.2113
     31 O60       -11.0560   -6.9050   -5.8940 O.2       1 AG7        -0.3853
     32 C78       -11.6160   -7.2390   -2.0780 C.3       1 AG7        -0.0074
     33 C81       -12.4630   -6.0780   -2.4870 C.3       1 AG7        -0.0584
     34 F1         -3.3760   -5.2780   -5.6800 F         1 AG7        -0.1893
     35 C82       -10.9320   -7.0560   -0.7570 C.3       1 AG7        -0.0584
     36 C83       -12.3740  -11.3770    0.7500 C.3       1 AG7        -0.0306
     37 C84       -10.8700  -11.1660    1.0040 C.3       1 AG7        -0.0021
     38 C1        -12.4960   -8.6930   -6.5500 C.2       1 AG7         0.1131
     39 C2        -12.8370   -8.3200   -7.8240 C.2       1 AG7        -0.0165
     40 C3        -13.6530   -9.3450   -8.3670 C.2       1 AG7         0.1392
     41 O4        -13.8000  -10.3570   -7.3790 O.3       1 AG7        -0.1606
     42 N5        -13.1060   -9.9770   -6.2710 N.2       1 AG7        -0.1328
     43 C4        -14.2690   -9.3720   -9.7510 C.3       1 AG7         0.0097
     44 H          -8.2731   -7.1410   -1.7975 H         1 AG7         0.0524
     45 H          -7.7343   -7.7632   -3.4523 H         1 AG7         0.0524
     46 H          -6.8284   -9.6412   -2.5333 H         1 AG7         0.0585
     47 H          -5.0646   -9.0005   -1.2519 H         1 AG7         0.0447
     48 H          -5.9931   -7.4864   -0.6874 H         1 AG7         0.0447
     49 H          -4.6610   -9.1773   -3.7633 H         1 AG7         0.0547
     50 H          -3.5932   -7.8769   -5.6339 H         1 AG7         0.0587
     51 H          -4.4486   -4.1685   -3.4616 H         1 AG7         0.0587
     52 H          -5.4892   -5.4514   -1.6306 H         1 AG7         0.0547
     53 H          -7.0412  -11.6355   -1.2442 H         1 AG7         0.1854
     54 H          -8.0678  -11.0868    1.4848 H         1 AG7         0.0557
     55 H          -8.8602  -13.3140    1.7409 H         1 AG7         0.0293
     56 H          -8.4967  -13.5701   -0.0633 H         1 AG7         0.0293
     57 H          -9.4841  -12.0614   -0.3931 H         1 AG7         0.0384
     58 H         -11.4178  -13.5443   -1.1576 H         1 AG7         0.1186
     59 H         -12.7221  -13.3187    1.4090 H         1 AG7         0.2041
     60 H         -13.3533  -13.0181   -0.0707 H         1 AG7         0.2041
     61 H         -10.2227  -14.5819   -1.0692 H         1 AG7         0.2154
     62 H          -5.8447  -12.8624    0.6620 H         1 AG7         0.0313
     63 H          -6.7361  -13.0340    2.2673 H         1 AG7         0.0313
     64 H          -5.2791  -10.6030    1.2962 H         1 AG7         0.0519
     65 H          -4.6318  -11.8631    2.4680 H         1 AG7         0.0519
     66 H          -6.1962   -8.9893    5.2592 H         1 AG7         0.0610
     67 H          -7.6990   -8.6228    4.2084 H         1 AG7         0.0610
     68 H          -5.2734   -6.8820    4.5951 H         1 AG7         0.0255
     69 H          -6.7045   -6.5330    3.5944 H         1 AG7         0.0255
     70 H          -6.8631   -6.6526    5.3641 H         1 AG7         0.0255
     71 H         -10.2969   -6.8895   -3.6496 H         1 AG7         0.0794
     72 H         -11.9162   -9.3594   -4.0011 H         1 AG7         0.1878
     73 H         -12.3188   -8.0513   -1.8926 H         1 AG7         0.0343
     74 H         -11.8218   -5.2599   -2.8151 H         1 AG7         0.0235
     75 H         -13.1183   -6.3782   -3.3047 H         1 AG7         0.0235
     76 H         -13.0646   -5.7520   -1.6385 H         1 AG7         0.0235
     77 H         -10.5461   -8.0156   -0.4131 H         1 AG7         0.0235
     78 H         -10.1083   -6.3512   -0.8704 H         1 AG7         0.0235
     79 H         -11.6460   -6.6685   -0.0302 H         1 AG7         0.0235
     80 H         -12.9704  -11.0312    1.5943 H         1 AG7         0.0815
     81 H         -12.7145  -10.8020   -0.1111 H         1 AG7         0.0815
     82 H         -10.5172  -10.2377    0.5547 H         1 AG7         0.0322
     83 H         -10.6550  -11.0782    2.0690 H         1 AG7         0.0322
     84 H         -12.5356   -7.4019   -8.3284 H         1 AG7         0.0312
     85 H         -14.9278   -8.5120   -9.8709 H         1 AG7         0.0449
     86 H         -13.4782   -9.3327  -10.5001 H         1 AG7         0.0449
     87 H         -14.8426  -10.2907   -9.8742 H         1 AG7         0.0449
@<TRIPOS>BOND
     1    2    1 1  
     2    1    3 2  
     3    1   28 1  
     4    4    2 1  
     5    4    5 1  
     6   24    4 1  
     7    5    6 1  
     8    6    7 ar 
     9    6   11 ar 
    10    7    8 ar 
    11    8    9 ar 
    12   10    9 ar 
    13    9   34 1  
    14   11   10 ar 
    15   12   13 1  
    16   12   24 am 
    17   13   14 1  
    18   13   19 1  
    19   14   15 1  
    20   15   16 1  
    21   15   37 1  
    22   16   17 1  
    23   16   18 1  
    24   17   36 1  
    25   19   20 1  
    26   20   21 1  
    27   21   22 1  
    28   21   23 2  
    29   22   26 1  
    30   24   25 2  
    31   26   27 1  
    32   28   29 1  
    33   28   32 1  
    34   29   30 am 
    35   30   31 2  
    36   30   38 1  
    37   32   33 1  
    38   32   35 1  
    39   36   37 1  
    40   38   39 1  
    41   38   42 2  
    42   39   40 2  
    43   40   41 1  
    44   40   43 1  
    45   41   42 1  
    46    2   44 1  
    47    2   45 1  
    48    4   46 1  
    49    5   47 1  
    50    5   48 1  
    51    7   49 1  
    52    8   50 1  
    53   10   51 1  
    54   11   52 1  
    55   12   53 1  
    56   13   54 1  
    57   14   55 1  
    58   14   56 1  
    59   15   57 1  
    60   16   58 1  
    61   17   59 1  
    62   17   60 1  
    63   18   61 1  
    64   19   62 1  
    65   19   63 1  
    66   20   64 1  
    67   20   65 1  
    68   26   66 1  
    69   26   67 1  
    70   27   68 1  
    71   27   69 1  
    72   27   70 1  
    73   28   71 1  
    74   29   72 1  
    75   32   73 1  
    76   33   74 1  
    77   33   75 1  
    78   33   76 1  
    79   35   77 1  
    80   35   78 1  
    81   35   79 1  
    82   36   80 1  
    83   36   81 1  
    84   37   82 1  
    85   37   83 1  
    86   39   84 1  
    87   43   85 1  
    88   43   86 1  
    89   43   87 1  
@<TRIPOS>SUBSTRUCTURE
     1 AG7         1

