### 
### Created by X-TOOL on Mon Sep 10 21:13:07 2018
### 

@<TRIPOS>MOLECULE
3sjo_ligand
   87    89     1     0     0
SMALL
GAST_HUCK


@<TRIPOS>ATOM
      1 C01        10.2960   -8.1980    4.1650 C.2       1 AG7         0.1331
      2 C02         8.9020   -7.6250    3.9430 C.3       1 AG7         0.0448
      3 O03        10.4740   -9.3950    4.1050 O.2       1 AG7        -0.3890
      4 C04         7.9230   -8.5150    3.1950 C.3       1 AG7         0.0733
      5 C05         6.6460   -7.8040    2.7850 C.3       1 AG7         0.0009
      6 C06         5.9610   -7.0570    3.9000 C.ar      1 AG7        -0.0442
      7 C07         5.3060   -7.8180    4.9860 C.ar      1 AG7        -0.0618
      8 C08         4.6370   -7.0880    6.0900 C.ar      1 AG7        -0.0349
      9 C09         4.6480   -5.6890    6.1070 C.ar      1 AG7         0.1248
     10 C10         5.3190   -4.9190    5.0090 C.ar      1 AG7        -0.0349
     11 C11         5.9760   -5.6440    3.9160 C.ar      1 AG7        -0.0618
     12 N12         8.2670  -10.7400    1.9500 N.am      1 AG7        -0.2833
     13 C13         8.6030  -11.4730    0.7240 C.3       1 AG7         0.0447
     14 C14         9.7270  -12.4700    0.9600 C.3       1 AG7        -0.0192
     15 C15        11.0400  -11.7810    1.3310 C.3       1 AG7         0.0350
     16 C16        12.1670  -12.6480    1.9070 C.3       1 AG7         0.0834
     17 N17        13.4730  -12.1950    1.2880 N.4       1 AG7         0.2492
     18 O18        11.9640  -13.9770    2.1310 O.3       1 AG7        -0.3528
     19 C19         7.3760  -12.0510    0.0560 C.3       1 AG7        -0.0116
     20 C20         6.4450  -10.9940   -0.5070 C.3       1 AG7         0.0508
     21 C21         7.0760  -10.1940   -1.6410 C.2       1 AG7         0.2338
     22 O22         7.1080   -8.9040   -1.5840 O.3       1 AG7        -0.2771
     23 O23         7.8530  -10.7830   -2.4300 O.2       1 AG7        -0.3704
     24 C47         8.5630   -9.3130    2.0540 C.2       1 AG7         0.1835
     25 O48         9.1700   -8.7450    1.1660 O.2       1 AG7        -0.3964
     26 C50         7.7990   -8.2130   -2.5890 C.3       1 AG7         0.0740
     27 C53         8.2060   -6.7870   -2.2910 C.3       1 AG7        -0.0371
     28 C57        11.4090   -7.2950    4.7210 C.3       1 AG7         0.1169
     29 N58        12.3650   -8.0180    5.5500 N.am      1 AG7        -0.2658
     30 C59        12.4690   -7.7530    6.9690 C.2       1 AG7         0.2113
     31 O60        11.8860   -6.7960    7.4590 O.2       1 AG7        -0.3853
     32 C78        12.1070   -6.4060    3.7090 C.3       1 AG7        -0.0074
     33 C81        13.0860   -5.4930    4.3870 C.3       1 AG7        -0.0584
     34 F1          4.0290   -5.0390    7.0910 F         1 AG7        -0.1893
     35 C82        12.7240   -7.1740    2.5840 C.3       1 AG7        -0.0584
     36 C83        13.1760  -10.8560    0.6680 C.3       1 AG7        -0.0306
     37 C84        11.6780  -10.8360    0.3400 C.3       1 AG7        -0.0021
     38 C1         13.4190   -8.5970    7.8020 C.2       1 AG7         0.1131
     39 C2         13.7900   -8.4180    9.2970 C.2       1 AG7        -0.0165
     40 C3         14.7450   -9.4560    9.6350 C.2       1 AG7         0.1392
     41 O4         14.9830  -10.2480    8.4650 O.3       1 AG7        -0.1606
     42 N5         14.1200   -9.6770    7.3310 N.2       1 AG7        -0.1328
     43 C4         15.3860   -9.6700   10.9780 C.3       1 AG7         0.0097
     44 H           9.0331   -6.7334    3.3298 H         1 AG7         0.0524
     45 H           8.4756   -7.4683    4.9338 H         1 AG7         0.0524
     46 H           7.6142   -9.2616    3.9267 H         1 AG7         0.0585
     47 H           5.9512   -8.5698    2.4402 H         1 AG7         0.0447
     48 H           6.9194   -7.0680    2.0289 H         1 AG7         0.0447
     49 H           5.3149   -8.9079    4.9750 H         1 AG7         0.0547
     50 H           4.1379   -7.6401    6.8864 H         1 AG7         0.0587
     51 H           5.3186   -3.8291    5.0229 H         1 AG7         0.0587
     52 H           6.4747   -5.0940    3.1179 H         1 AG7         0.0547
     53 H           7.8264  -11.2272    2.7303 H         1 AG7         0.1854
     54 H           9.0010  -10.7624   -0.0004 H         1 AG7         0.0557
     55 H           9.8853  -13.0279    0.0371 H         1 AG7         0.0293
     56 H           9.4379  -13.1179    1.7875 H         1 AG7         0.0293
     57 H          10.5875  -11.1881    2.1258 H         1 AG7         0.0384
     58 H          12.2038  -12.4562    2.9794 H         1 AG7         0.1186
     59 H          13.8113  -12.8626    0.5950 H         1 AG7         0.2041
     60 H          14.2155  -12.1297    1.9843 H         1 AG7         0.2041
     61 H          12.6397  -14.3066    2.7281 H         1 AG7         0.2154
     62 H           6.8223  -12.6093    0.8108 H         1 AG7         0.0313
     63 H           7.7141  -12.6689   -0.7758 H         1 AG7         0.0313
     64 H           6.2036  -10.2992    0.2974 H         1 AG7         0.0519
     65 H           5.5662  -11.5012   -0.9052 H         1 AG7         0.0519
     66 H           7.1131   -8.1550   -3.4342 H         1 AG7         0.0610
     67 H           8.7289   -8.7613   -2.7400 H         1 AG7         0.0610
     68 H           7.3162   -6.1919   -2.0859 H         1 AG7         0.0255
     69 H           8.8630   -6.7722   -1.4214 H         1 AG7         0.0255
     70 H           8.7311   -6.3730   -3.1518 H         1 AG7         0.0255
     71 H          10.8631   -6.6022    5.3614 H         1 AG7         0.0794
     72 H          12.9693   -8.7207    5.1241 H         1 AG7         0.1878
     73 H          11.3413   -5.7843    3.2450 H         1 AG7         0.0343
     74 H          12.5579   -4.8635    5.1032 H         1 AG7         0.0235
     75 H          13.8355   -6.0886    4.9082 H         1 AG7         0.0235
     76 H          13.5733   -4.8660    3.6403 H         1 AG7         0.0235
     77 H          13.4643   -7.8678    2.9824 H         1 AG7         0.0235
     78 H          11.9487   -7.7307    2.0576 H         1 AG7         0.0235
     79 H          13.2072   -6.4813    1.8949 H         1 AG7         0.0235
     80 H          13.7702  -10.7083   -0.2338 H         1 AG7         0.0815
     81 H          13.4314  -10.0483    1.3539 H         1 AG7         0.0815
     82 H          11.2633   -9.8311    0.4198 H         1 AG7         0.0322
     83 H          11.4883  -11.1448   -0.6880 H         1 AG7         0.0322
     84 H          13.4040   -7.6526    9.9702 H         1 AG7         0.0312
     85 H          15.9502   -8.7797   11.2559 H         1 AG7         0.0449
     86 H          14.6125   -9.8586   11.7225 H         1 AG7         0.0449
     87 H          16.0584  -10.5263   10.9259 H         1 AG7         0.0449
@<TRIPOS>BOND
     1    2    1 1  
     2    1    3 2  
     3    1   28 1  
     4    4    2 1  
     5    4    5 1  
     6   24    4 1  
     7    5    6 1  
     8    6    7 ar 
     9    6   11 ar 
    10    7    8 ar 
    11    8    9 ar 
    12   10    9 ar 
    13    9   34 1  
    14   11   10 ar 
    15   12   13 1  
    16   12   24 am 
    17   13   14 1  
    18   13   19 1  
    19   14   15 1  
    20   15   16 1  
    21   15   37 1  
    22   16   17 1  
    23   16   18 1  
    24   17   36 1  
    25   19   20 1  
    26   20   21 1  
    27   21   22 1  
    28   21   23 2  
    29   22   26 1  
    30   24   25 2  
    31   26   27 1  
    32   28   29 1  
    33   28   32 1  
    34   29   30 am 
    35   30   31 2  
    36   30   38 1  
    37   32   33 1  
    38   32   35 1  
    39   36   37 1  
    40   38   39 1  
    41   38   42 2  
    42   39   40 2  
    43   40   41 1  
    44   40   43 1  
    45   41   42 1  
    46    2   44 1  
    47    2   45 1  
    48    4   46 1  
    49    5   47 1  
    50    5   48 1  
    51    7   49 1  
    52    8   50 1  
    53   10   51 1  
    54   11   52 1  
    55   12   53 1  
    56   13   54 1  
    57   14   55 1  
    58   14   56 1  
    59   15   57 1  
    60   16   58 1  
    61   17   59 1  
    62   17   60 1  
    63   18   61 1  
    64   19   62 1  
    65   19   63 1  
    66   20   64 1  
    67   20   65 1  
    68   26   66 1  
    69   26   67 1  
    70   27   68 1  
    71   27   69 1  
    72   27   70 1  
    73   28   71 1  
    74   29   72 1  
    75   32   73 1  
    76   33   74 1  
    77   33   75 1  
    78   33   76 1  
    79   35   77 1  
    80   35   78 1  
    81   35   79 1  
    82   36   80 1  
    83   36   81 1  
    84   37   82 1  
    85   37   83 1  
    86   39   84 1  
    87   43   85 1  
    88   43   86 1  
    89   43   87 1  
@<TRIPOS>SUBSTRUCTURE
     1 AG7         1

