### 
### Created by X-TOOL on Mon Sep 10 21:13:05 2018
### 

@<TRIPOS>MOLECULE
3sk2_ligand
   32    34     1     0     0
SMALL
GAST_HUCK


@<TRIPOS>ATOM
      1 CAA         4.1670   82.6450   25.9790 C.3       1 GRI         0.0603
      2 OAB         3.9240   88.8940   22.6010 O.co2     1 GRI        -0.5604
      3 OAC        -3.3060   84.7210   25.3720 O.3       1 GRI        -0.3835
      4 OAD         4.0820   86.9570   23.7980 O.co2     1 GRI        -0.5604
      5 CAE        -0.0420   89.3320   23.2260 C.ar      1 GRI        -0.0458
      6 CAF         1.3100   89.1380   23.0430 C.ar      1 GRI        -0.0357
      7 CAG        -0.1960   83.0250   26.7020 C.ar      1 GRI        -0.0609
      8 CAH         1.1810   82.8550   26.4850 C.ar      1 GRI        -0.0321
      9 CAI        -0.7790   88.3390   23.8160 C.ar      1 GRI        -0.0273
     10 CAJ        -2.3720   84.3180   26.4640 C.3       1 GRI         0.0771
     11 NAK        -0.8160   86.1890   24.8850 N.ar      1 GRI        -0.2727
     12 NAL         1.8510   85.8350   24.5040 N.ar      1 GRI        -0.2664
     13 OAM         3.2460   83.6670   25.4630 O.3       1 GRI        -0.3172
     14 CAN         3.3670   87.9180   23.2640 C.2       1 GRI         0.0666
     15 CAO        -0.8750   84.1410   26.1650 C.ar      1 GRI         0.0033
     16 CAP         1.8780   83.8040   25.7140 C.ar      1 GRI         0.1203
     17 CAQ         1.9290   87.9870   23.4750 C.ar      1 GRI         0.0405
     18 CAR        -0.1390   87.1750   24.2810 C.ar      1 GRI         0.0756
     19 CAS        -0.1880   85.0860   25.4150 C.ar      1 GRI         0.0770
     20 CAT         1.2310   86.9790   24.0840 C.ar      1 GRI         0.0864
     21 CAU         1.1890   84.9040   25.1970 C.ar      1 GRI         0.1076
     22 H1          5.1770   82.8286   25.5839 H         1 GRI         0.0580
     23 H2          3.8246   81.6490   25.6616 H         1 GRI         0.0580
     24 H3          4.1889   82.6923   27.0778 H         1 GRI         0.0580
     25 H4         -4.1879   84.7862   25.7191 H         1 GRI         0.2125
     26 H5         -0.5144   90.2546   22.9086 H         1 GRI         0.0688
     27 H6          1.8962   89.9052   22.5503 H         1 GRI         0.0721
     28 H7         -0.7423   82.2936   27.2865 H         1 GRI         0.0554
     29 H8          1.7012   82.0025   26.9066 H         1 GRI         0.0530
     30 H9         -1.8519   88.4496   23.9243 H         1 GRI         0.0699
     31 H10        -2.7345   83.3553   26.8535 H         1 GRI         0.0710
     32 H11        -2.4510   85.0844   27.2491 H         1 GRI         0.0710
@<TRIPOS>BOND
     1   13    1 1  
     2   14    2 ar 
     3   10    3 1  
     4   14    4 ar 
     5    5    6 ar 
     6    9    5 ar 
     7    6   17 ar 
     8    8    7 ar 
     9    7   15 ar 
    10   16    8 ar 
    11   18    9 ar 
    12   15   10 1  
    13   11   18 ar 
    14   19   11 ar 
    15   12   20 ar 
    16   21   12 ar 
    17   16   13 1  
    18   17   14 1  
    19   15   19 ar 
    20   16   21 ar 
    21   17   20 ar 
    22   18   20 ar 
    23   19   21 ar 
    24    1   22 1  
    25    1   23 1  
    26    1   24 1  
    27    3   25 1  
    28    5   26 1  
    29    6   27 1  
    30    7   28 1  
    31    8   29 1  
    32    9   30 1  
    33   10   31 1  
    34   10   32 1  
@<TRIPOS>SUBSTRUCTURE
     1 GRI         1

