### 
### Created by X-TOOL on Mon Sep 10 21:13:05 2018
### 

@<TRIPOS>MOLECULE
3ska_ligand
   45    48     1     0     0
SMALL
GAST_HUCK


@<TRIPOS>ATOM
      1 C1         23.1410   46.1710   45.5350 C.2       1 053         0.0285
      2 C2         23.4460   47.0140   46.5570 C.2       1 053        -0.0691
      3 C3         22.5840   48.1390   46.8960 C.2       1 053        -0.0415
      4 C4         21.4610   48.3640   46.1740 C.2       1 053         0.0638
      5 N5         21.1090   47.5130   45.1490 N.am      1 053        -0.2200
      6 C6         21.8530   46.4130   44.7760 C.2       1 053         0.2117
      7 C7         26.9720   43.5420   42.3960 C.ar      1 053        -0.0057
      8 C8         27.5840   44.6090   43.0630 C.ar      1 053        -0.0137
      9 C9         28.7680   45.1400   42.5450 C.ar      1 053         0.0997
     10 N10        29.3380   44.6730   41.4100 N.ar      1 053        -0.2952
     11 C11        28.7310   43.6360   40.7830 C.ar      1 053        -0.0117
     12 C12        27.5710   43.0370   41.2310 C.ar      1 053        -0.0439
     13 C13        25.0390   42.7900   48.0340 C.ar      1 053         0.0259
     14 C14        25.7770   41.8890   47.2540 C.ar      1 053        -0.0516
     15 C15        25.8830   42.0510   45.8840 C.ar      1 053        -0.0187
     16 C16        24.4020   43.8930   47.4550 C.ar      1 053        -0.0331
     17 C17        24.4890   44.0760   46.0650 C.ar      1 053         0.0238
     18 C18        25.2200   43.1500   45.3090 C.ar      1 053         0.0990
     19 N19        25.1160   43.5490   44.0090 N.pl3     1 053        -0.2316
     20 C20        24.3710   44.6910   43.8820 C.2       1 053         0.1090
     21 C21        23.9640   45.0360   45.1680 C.2       1 053         0.0080
     22 C22        24.1120   45.2850   42.5770 C.2       1 053         0.0839
     23 O23        23.8030   44.6510   41.5900 O.co2     1 053        -0.5617
     24 C24        25.7100   42.8770   42.8560 C.3       1 053         0.0940
     25 C25        24.9450   42.5360   49.4940 C.3       1 053         0.3581
     26 O26        24.0550   46.6290   42.5910 O.co2     1 053        -0.5617
     27 F27        24.4710   41.3030   49.7530 F         1 053        -0.2363
     28 F28        26.1380   42.6110   50.1120 F         1 053        -0.2363
     29 F29        24.1600   43.4100   50.1460 F         1 053        -0.2363
     30 O30        21.4870   45.6570   43.8610 O.2       1 053        -0.4110
     31 N31        29.3730   46.1860   43.2360 N.pl3     1 053        -0.3239
     32 H1         24.3537   46.8450   47.1345 H         1 053         0.0610
     33 H2         22.8418   48.7954   47.7258 H         1 053         0.0384
     34 H3         20.8322   49.2226   46.4047 H         1 053         0.1221
     35 H4         20.2657   47.7039   44.6467 H         1 053         0.2586
     36 H5         27.1466   45.0170   43.9670 H         1 053         0.0542
     37 H6         29.1837   43.2541   39.8751 H         1 053         0.0760
     38 H7         27.1346   42.1999   40.6981 H         1 053         0.0543
     39 H8         26.2727   41.0518   47.7319 H         1 053         0.0686
     40 H9         26.4547   41.3579   45.2775 H         1 053         0.0621
     41 H10        23.8501   44.5952   48.0693 H         1 053         0.0894
     42 H11        25.9388   41.8371   43.1322 H         1 053         0.0802
     43 H12        24.9843   42.8857   42.0294 H         1 053         0.0802
     44 H13        30.2468   46.6003   42.8813 H         1 053         0.1763
     45 H14        28.9469   46.5457   44.1020 H         1 053         0.1763
@<TRIPOS>BOND
     1    1    2 2  
     2    1    6 1  
     3   21    1 1  
     4    2    3 1  
     5    3    4 2  
     6    5    4 1  
     7    6    5 am 
     8    6   30 2  
     9    7    8 ar 
    10    7   12 ar 
    11   24    7 1  
    12    8    9 ar 
    13    9   10 ar 
    14    9   31 1  
    15   11   10 ar 
    16   12   11 ar 
    17   14   13 ar 
    18   16   13 ar 
    19   13   25 1  
    20   15   14 ar 
    21   18   15 ar 
    22   17   16 ar 
    23   18   17 ar 
    24   17   21 1  
    25   19   18 1  
    26   19   20 1  
    27   19   24 1  
    28   20   21 2  
    29   20   22 1  
    30   22   23 ar 
    31   22   26 ar 
    32   25   27 1  
    33   25   28 1  
    34   25   29 1  
    35    2   32 1  
    36    3   33 1  
    37    4   34 1  
    38    5   35 1  
    39    8   36 1  
    40   11   37 1  
    41   12   38 1  
    42   14   39 1  
    43   15   40 1  
    44   16   41 1  
    45   24   42 1  
    46   24   43 1  
    47   31   44 1  
    48   31   45 1  
@<TRIPOS>SUBSTRUCTURE
     1 053         1

