### 
### Created by X-TOOL on Mon Sep 10 21:13:08 2018
### 

@<TRIPOS>MOLECULE
3skc_ligand
   47    50     1     0     0
SMALL
GAST_HUCK


@<TRIPOS>ATOM
      1 C1         13.6810  -26.7530   -2.0530 C.2       1 BR2         0.2292
      2 C2         12.8840  -27.9690   -2.3100 C.ar      1 BR2         0.1078
      3 O3         13.2550  -25.6370   -2.3360 O.2       1 BR2        -0.3767
      4 C4         12.5520  -28.2050   -3.6130 C.ar      1 BR2         0.1674
      5 C5         11.8260  -29.3850   -3.9640 C.ar      1 BR2         0.0982
      6 C6         11.4290  -30.3030   -2.9760 C.ar      1 BR2        -0.0439
      7 C7         11.7470  -30.0580   -1.6400 C.ar      1 BR2        -0.0421
      8 C8         12.4700  -28.9010   -1.2940 C.ar      1 BR2         0.1336
      9 F9         12.7850  -28.6720   -0.0070 F         1 BR2        -0.1929
     10 F10        12.9380  -27.3310   -4.5640 F         1 BR2        -0.1906
     11 N11        11.5660  -29.5860   -5.2370 N.am      1 BR2        -0.1878
     12 N12        14.8970  -27.0190   -1.5250 N.am      1 BR2        -0.2277
     13 C13        15.9420  -26.1320   -1.1550 C.ar      1 BR2         0.0955
     14 C14        15.7210  -24.7700   -0.8910 C.ar      1 BR2         0.0023
     15 C15        16.8240  -24.0100   -0.5130 C.ar      1 BR2         0.1011
     16 C16        18.0700  -24.6140   -0.4240 C.ar      1 BR2         0.0120
     17 N17        18.3490  -25.9180   -0.6690 N.ar      1 BR2        -0.3167
     18 C18        17.2760  -26.6410   -1.0290 C.ar      1 BR2         0.0307
     19 C19        17.0100  -22.7010   -0.1810 C.2       1 BR2         0.3012
     20 N20        18.2670  -22.4390    0.1120 N.pl3     1 BR2        -0.2388
     21 N21        18.9000  -23.6400   -0.0450 N.2       1 BR2        -0.4193
     22 O22        16.0720  -21.7360   -0.1330 O.3       1 BR2        -0.2316
     23 C23        16.5120  -20.4370    0.2500 C.3       1 BR2         0.0854
     24 S24        10.8180  -30.8810   -5.9920 S.o2      1 BR2         0.0881
     25 C25        12.2410  -31.8610   -6.3890 C.ar      1 BR2         0.1137
     26 C26        12.9800  -31.5550   -7.5410 C.ar      1 BR2        -0.0346
     27 C27        14.1260  -32.3000   -7.8560 C.ar      1 BR2        -0.0599
     28 C28        14.5360  -33.3620   -7.0020 C.ar      1 BR2        -0.0616
     29 C29        13.7830  -33.6600   -5.8410 C.ar      1 BR2        -0.0599
     30 C30        12.6340  -32.9000   -5.5390 C.ar      1 BR2        -0.0346
     31 O31         9.9970  -31.5610   -4.9830 O.2       1 BR2        -0.1449
     32 O32        10.2350  -30.3420   -7.2220 O.2       1 BR2        -0.1449
     33 H          10.8760  -31.2008   -3.2522 H         1 BR2         0.0495
     34 H          11.4365  -30.7604   -0.8665 H         1 BR2         0.0539
     35 H          11.8662  -28.8376   -5.8616 H         1 BR2         0.2134
     36 H          15.0935  -28.0076   -1.3687 H         1 BR2         0.2276
     37 H          14.7287  -24.3276   -0.9784 H         1 BR2         0.0639
     38 H          17.4319  -27.6985   -1.2422 H         1 BR2         0.0711
     39 H          18.6739  -21.5464    0.3914 H         1 BR2         0.2618
     40 H          16.9444  -20.4813    1.2496 H         1 BR2         0.0626
     41 H          17.2636  -20.0862   -0.4572 H         1 BR2         0.0626
     42 H          15.6636  -19.7527    0.2498 H         1 BR2         0.0626
     43 H          12.6641  -30.7390   -8.1910 H         1 BR2         0.0637
     44 H          14.7008  -32.0662   -8.7522 H         1 BR2         0.0618
     45 H          15.4263  -33.9436   -7.2410 H         1 BR2         0.0618
     46 H          14.0898  -34.4733   -5.1833 H         1 BR2         0.0618
     47 H          12.0528  -33.1221   -4.6440 H         1 BR2         0.0637
@<TRIPOS>BOND
     1    1    2 1  
     2    1    3 2  
     3    1   12 am 
     4    2    4 ar 
     5    2    8 ar 
     6    4    5 ar 
     7    4   10 1  
     8    5    6 ar 
     9    5   11 1  
    10    6    7 ar 
    11    7    8 ar 
    12    8    9 1  
    13   11   24 am 
    14   12   13 1  
    15   13   14 ar 
    16   13   18 ar 
    17   14   15 ar 
    18   15   16 ar 
    19   15   19 2  
    20   16   17 ar 
    21   16   21 2  
    22   17   18 ar 
    23   19   20 1  
    24   19   22 1  
    25   20   21 1  
    26   22   23 1  
    27   24   25 1  
    28   24   31 2  
    29   24   32 2  
    30   25   26 ar 
    31   25   30 ar 
    32   26   27 ar 
    33   27   28 ar 
    34   28   29 ar 
    35   29   30 ar 
    36    6   33 1  
    37    7   34 1  
    38   11   35 1  
    39   12   36 1  
    40   14   37 1  
    41   18   38 1  
    42   20   39 1  
    43   23   40 1  
    44   23   41 1  
    45   23   42 1  
    46   26   43 1  
    47   27   44 1  
    48   28   45 1  
    49   29   46 1  
    50   30   47 1  
@<TRIPOS>SUBSTRUCTURE
     1 BR2         1

