### 
### Created by X-TOOL on Mon Sep 10 21:13:05 2018
### 

@<TRIPOS>MOLECULE
3ske_ligand
   48    52     1     0     0
SMALL
GAST_HUCK


@<TRIPOS>ATOM
      1 C1         25.0430   43.0600   48.2020 C.ar      1 054         0.0286
      2 C2         25.7560   42.1080   47.4560 C.ar      1 054        -0.0517
      3 C3         25.8550   42.1990   46.0740 C.ar      1 054        -0.0205
      4 C4         24.3970   44.1490   47.5740 C.ar      1 054        -0.0290
      5 C5         24.4790   44.2550   46.1740 C.ar      1 054         0.0548
      6 C6         25.2030   43.2830   45.4620 C.ar      1 054         0.0955
      7 N7         25.1170   43.6210   44.1430 N.pl3     1 054        -0.2440
      8 C8         24.3820   44.7640   43.9420 C.2       1 054         0.1224
      9 C9         23.9700   45.1650   45.2100 C.2       1 054         0.1279
     10 C10        24.1360   45.3220   42.6090 C.2       1 054         0.0706
     11 O11        24.0140   44.6840   41.5810 O.co2     1 054        -0.5677
     12 O12        23.8830   46.6450   42.6070 O.co2     1 054        -0.5677
     13 C13        25.7230   42.8710   43.0650 C.3       1 054         0.0892
     14 C14        26.9830   43.4960   42.5530 C.ar      1 054        -0.0066
     15 C15        24.9910   42.8640   49.6830 C.3       1 054         0.3610
     16 C16        27.5400   42.8900   41.4280 C.ar      1 054        -0.0440
     17 C17        28.7030   43.4120   40.9010 C.ar      1 054        -0.0117
     18 N18        29.3590   44.4710   41.4310 N.ar      1 054        -0.2952
     19 C19        28.8350   45.0360   42.5490 C.ar      1 054         0.0997
     20 C20        27.6510   44.5820   43.1370 C.ar      1 054        -0.0138
     21 N21        23.1910   46.3090   45.4330 N.am      1 054        -0.1261
     22 C22        21.8730   46.2930   44.8800 C.2       1 054         0.3364
     23 N23        21.1600   47.4710   45.0010 N.am      1 054        -0.2240
     24 C24        23.8400   47.3680   46.0900 C.2       1 054         0.2407
     25 O25        24.9800   47.3180   46.5450 O.2       1 054        -0.3787
     26 O26        21.3720   45.2880   44.3400 O.2       1 054        -0.3776
     27 C27        23.3810   49.7890   46.6620 C.2       1 054         0.0146
     28 C28        23.0220   48.5760   46.1250 C.2       1 054         0.0753
     29 C29        21.7130   48.6050   45.5870 C.2       1 054         0.0647
     30 C30        21.1090   49.8300   45.7190 C.2       1 054        -0.0003
     31 S31        22.1390   50.9640   46.5040 S.3       1 054        -0.0606
     32 F32        24.4840   41.6520   50.0050 F         1 054        -0.2334
     33 F33        26.2170   42.9170   50.2440 F         1 054        -0.2334
     34 F34        24.2690   43.7760   50.3610 F         1 054        -0.2334
     35 N35        29.5120   46.1120   43.1280 N.pl3     1 054        -0.3239
     36 H1         26.2393   41.2848   47.9696 H         1 054         0.0683
     37 H2         26.4087   41.4688   45.4949 H         1 054         0.0616
     38 H3         23.8525   44.8835   48.1563 H         1 054         0.0914
     39 H4         25.0029   42.8047   42.2361 H         1 054         0.0791
     40 H5         25.9565   41.8598   43.4296 H         1 054         0.0791
     41 H6         27.0682   42.0251   40.9759 H         1 054         0.0543
     42 H7         29.1150   42.9480   40.0122 H         1 054         0.0760
     43 H8         27.2570   45.0598   44.0267 H         1 054         0.0542
     44 H9         20.2214   47.5091   44.6581 H         1 054         0.2199
     45 H10        24.3432   49.9828   47.1338 H         1 054         0.0838
     46 H11        20.1026   50.0567   45.3703 H         1 054         0.0416
     47 H12        29.1373   46.5598   43.9765 H         1 054         0.1763
     48 H13        30.3859   46.4576   42.7064 H         1 054         0.1763
@<TRIPOS>BOND
     1    1    2 ar 
     2    1    4 ar 
     3    1   15 1  
     4    2    3 ar 
     5    3    6 ar 
     6    4    5 ar 
     7    5    6 ar 
     8    5    9 1  
     9    6    7 1  
    10    7    8 1  
    11    7   13 1  
    12    8    9 2  
    13    8   10 1  
    14    9   21 1  
    15   10   11 ar 
    16   10   12 ar 
    17   13   14 1  
    18   14   16 ar 
    19   14   20 ar 
    20   15   32 1  
    21   15   33 1  
    22   15   34 1  
    23   16   17 ar 
    24   17   18 ar 
    25   18   19 ar 
    26   19   20 ar 
    27   19   35 1  
    28   21   22 am 
    29   21   24 am 
    30   22   23 am 
    31   22   26 2  
    32   23   29 1  
    33   24   25 2  
    34   24   28 1  
    35   28   27 2  
    36   27   31 1  
    37   28   29 1  
    38   29   30 2  
    39   30   31 1  
    40    2   36 1  
    41    3   37 1  
    42    4   38 1  
    43   13   39 1  
    44   13   40 1  
    45   16   41 1  
    46   17   42 1  
    47   20   43 1  
    48   23   44 1  
    49   27   45 1  
    50   30   46 1  
    51   35   47 1  
    52   35   48 1  
@<TRIPOS>SUBSTRUCTURE
     1 054         1

