### 
### Created by X-TOOL on Mon Sep 10 21:13:08 2018
### 

@<TRIPOS>MOLECULE
3skg_ligand
   95    99     1     0     0
SMALL
GAST_HUCK


@<TRIPOS>ATOM
      1 C1         -1.5440   16.6310   23.1560 C.ar      1 PB8        -0.0687
      2 C2         -9.8050   18.5760   30.4490 C.ar      1 PB8        -0.0755
      3 C3         -9.4670   20.0100   30.5480 C.ar      1 PB8        -0.0753
      4 C4         -2.2240   17.7460   23.7180 C.ar      1 PB8        -0.0686
      5 C5         -0.8310   15.6690   23.9750 C.ar      1 PB8        -0.0686
      6 C6         -8.9530   17.6270   30.8610 C.ar      1 PB8        -0.0665
      7 C7         -8.2730   20.2330   31.1110 C.ar      1 PB8        -0.0618
      8 C8         -2.1540   17.8640   25.1370 C.ar      1 PB8        -0.0603
      9 C9         -0.7910   15.8030   25.3690 C.ar      1 PB8        -0.0603
     10 C10        -1.9510   11.8190   33.1080 C.ar      1 PB8        -0.0310
     11 C11        -3.8930   12.0070   31.8480 C.ar      1 PB8        -0.0310
     12 C12        -2.5440   10.0750   31.4990 C.ar      1 PB8        -0.0019
     13 C13        -7.6380   17.9110   31.4680 C.ar      1 PB8        -0.0306
     14 C14        -7.3060   19.1570   31.5750 C.ar      1 PB8         0.0035
     15 C15        -1.4540   16.9060   25.9280 C.ar      1 PB8        -0.0428
     16 C16        -3.0660   12.5370   32.8080 C.ar      1 PB8        -0.0445
     17 C17        -1.7010   10.6130   32.4410 C.ar      1 PB8         0.1242
     18 C18        -3.6440   10.8100   31.2060 C.ar      1 PB8         0.1242
     19 C19         0.2030   15.2720   30.0840 C.2       1 PB8         0.2292
     20 C20         2.6100   14.4490   28.4230 C.2       1 PB8         0.1722
     21 C21        -3.1840   15.3310   30.3790 C.2       1 PB8         0.2026
     22 C22        -6.8120   16.7550   31.9400 C.3       1 PB8         0.0243
     23 C23        -5.9590   19.5720   32.1480 C.3       1 PB8        -0.0017
     24 C24         0.3720   12.8260   29.6650 C.3       1 PB8         0.0009
     25 C25        -0.9850   13.4510   29.2990 C.3       1 PB8         0.0383
     26 C26        -5.3950   17.0640   32.4840 C.3       1 PB8         0.0160
     27 C27         1.0500   14.0570   30.3360 C.3       1 PB8         0.1352
     28 C28         1.6310   14.4990   27.2780 C.3       1 PB8         0.0255
     29 C29         3.2930   12.5860   32.2210 C.3       1 PB8        -0.0627
     30 C30         1.4590   12.1110   33.4640 C.3       1 PB8        -0.0627
     31 C31        -1.4190   17.0960   27.4410 C.3       1 PB8        -0.0149
     32 C32        -3.4220   13.8330   33.5330 C.3       1 PB8         0.0048
     33 C33         1.2410   13.8370   31.8500 C.3       1 PB8        -0.0174
     34 C34        -2.3940   16.0860   28.0160 C.3       1 PB8        -0.0023
     35 C35        -2.0320   15.8200   29.4730 C.3       1 PB8         0.1355
     36 C36        -4.6940   16.0010   33.4080 C.3       1 PB8         0.1238
     37 C37         1.8010   12.4530   32.0540 C.3       1 PB8        -0.0452
     38 C38        -4.0740   14.8630   32.6060 C.3       1 PB8         0.0827
     39 N39        -5.2610   18.5100   32.9990 N.4       1 PB8         0.2435
     40 N40        -0.9340   14.9170   29.5370 N.am      1 PB8        -0.2489
     41 N41         2.3120   14.2750   29.7040 N.am      1 PB8        -0.2760
     42 N42        -3.0240   15.3180   31.7210 N.am      1 PB8        -0.2773
     43 O43         0.5080   16.3810   30.4150 O.2       1 PB8        -0.3417
     44 O44         3.7800   14.5910   28.1590 O.2       1 PB8        -0.3975
     45 O45        -4.2730   15.0100   29.9070 O.2       1 PB8        -0.3945
     46 O46        -5.4720   15.4580   34.4830 O.3       1 PB8        -0.3836
     47 F47        -0.5770    9.9130   32.7080 F         1 PB8        -0.1863
     48 F48        -4.4890   10.3920   30.2770 F         1 PB8        -0.1863
     49 H          -1.5589   16.4946   22.0747 H         1 PB8         0.0559
     50 H         -10.7684   18.2829   30.0318 H         1 PB8         0.0541
     51 H         -10.1234   20.8067   30.1980 H         1 PB8         0.0541
     52 H          -2.7647   18.4652   23.1028 H         1 PB8         0.0599
     53 H          -0.3201   14.8315   23.4999 H         1 PB8         0.0599
     54 H          -9.2485   16.5847   30.7408 H         1 PB8         0.0537
     55 H          -7.9700   21.2711   31.2476 H         1 PB8         0.0539
     56 H          -2.6458   18.7040   25.6275 H         1 PB8         0.0557
     57 H          -0.2664   15.0801   25.9937 H         1 PB8         0.0557
     58 H          -1.2545   12.1805   33.8645 H         1 PB8         0.0508
     59 H          -4.7929   12.5601   31.5788 H         1 PB8         0.0508
     60 H          -2.3410    9.1181   31.0181 H         1 PB8         0.0532
     61 H          -6.6590   16.1261   31.0630 H         1 PB8         0.0467
     62 H          -7.3607   16.3249   32.7778 H         1 PB8         0.0467
     63 H          -6.1450   20.4248   32.8008 H         1 PB8         0.0964
     64 H          -5.3055   19.7733   31.2992 H         1 PB8         0.0964
     65 H           0.9219   12.4071   28.8223 H         1 PB8         0.0297
     66 H           0.3091   11.9405   30.2974 H         1 PB8         0.0297
     67 H          -1.7673   13.0092   29.9162 H         1 PB8         0.0525
     68 H          -1.2017   13.2604   28.2479 H         1 PB8         0.0525
     69 H          -4.7907   16.9639   31.5824 H         1 PB8         0.0899
     70 H           1.7016   15.4677   26.7833 H         1 PB8         0.0467
     71 H           1.8661   13.7080   26.5659 H         1 PB8         0.0467
     72 H           0.6199   14.3573   27.6597 H         1 PB8         0.0467
     73 H           3.5076   13.3705   32.9467 H         1 PB8         0.0232
     74 H           3.7035   11.6401   32.5745 H         1 PB8         0.0232
     75 H           3.7431   12.8432   31.2622 H         1 PB8         0.0232
     76 H           1.9710   11.1916   33.7480 H         1 PB8         0.0232
     77 H           1.7751   12.9220   34.1201 H         1 PB8         0.0232
     78 H           0.3817   11.9702   33.5513 H         1 PB8         0.0232
     79 H          -1.6982   18.1130   27.7163 H         1 PB8         0.0428
     80 H          -0.4142   16.9404   27.8338 H         1 PB8         0.0428
     81 H          -2.4999   14.2657   33.9210 H         1 PB8         0.0448
     82 H          -4.1342   13.5923   34.3223 H         1 PB8         0.0448
     83 H           0.2870   13.9367   32.3678 H         1 PB8         0.0280
     84 H           1.9249   14.5829   32.2550 H         1 PB8         0.0280
     85 H          -2.3385   15.1573   27.4481 H         1 PB8         0.0335
     86 H          -3.4088   16.4792   27.9554 H         1 PB8         0.0335
     87 H          -1.7663   16.7955   29.8803 H         1 PB8         0.0805
     88 H          -3.9213   16.5987   33.8915 H         1 PB8         0.0677
     89 H           1.4664   11.7841   31.2611 H         1 PB8         0.0295
     90 H          -4.8957   14.4342   32.0325 H         1 PB8         0.0606
     91 H          -5.7019   18.5353   33.9184 H         1 PB8         0.2032
     92 H          -4.2659   18.7336   32.9880 H         1 PB8         0.2032
     93 H           3.1107   14.3010   30.3379 H         1 PB8         0.1838
     94 H          -2.1410   15.6369   32.1197 H         1 PB8         0.1857
     95 H          -4.9051   14.9345   35.0541 H         1 PB8         0.2102
@<TRIPOS>BOND
     1    4    1 ar 
     2    5    1 ar 
     3    2    3 ar 
     4    6    2 ar 
     5    7    3 ar 
     6    8    4 ar 
     7    9    5 ar 
     8   13    6 ar 
     9   14    7 ar 
    10   15    8 ar 
    11   15    9 ar 
    12   16   10 ar 
    13   10   17 ar 
    14   16   11 ar 
    15   11   18 ar 
    16   17   12 ar 
    17   18   12 ar 
    18   13   14 ar 
    19   22   13 1  
    20   23   14 1  
    21   31   15 1  
    22   32   16 1  
    23   17   47 1  
    24   18   48 1  
    25   19   27 1  
    26   40   19 am 
    27   19   43 2  
    28   20   28 1  
    29   41   20 am 
    30   20   44 2  
    31   21   35 1  
    32   42   21 am 
    33   21   45 2  
    34   26   22 1  
    35   39   23 1  
    36   25   24 1  
    37   24   27 1  
    38   40   25 1  
    39   36   26 1  
    40   26   39 1  
    41   27   33 1  
    42   27   41 1  
    43   37   29 1  
    44   37   30 1  
    45   34   31 1  
    46   38   32 1  
    47   33   37 1  
    48   35   34 1  
    49   35   40 1  
    50   38   36 1  
    51   36   46 1  
    52   38   42 1  
    53    1   49 1  
    54    2   50 1  
    55    3   51 1  
    56    4   52 1  
    57    5   53 1  
    58    6   54 1  
    59    7   55 1  
    60    8   56 1  
    61    9   57 1  
    62   10   58 1  
    63   11   59 1  
    64   12   60 1  
    65   22   61 1  
    66   22   62 1  
    67   23   63 1  
    68   23   64 1  
    69   24   65 1  
    70   24   66 1  
    71   25   67 1  
    72   25   68 1  
    73   26   69 1  
    74   28   70 1  
    75   28   71 1  
    76   28   72 1  
    77   29   73 1  
    78   29   74 1  
    79   29   75 1  
    80   30   76 1  
    81   30   77 1  
    82   30   78 1  
    83   31   79 1  
    84   31   80 1  
    85   32   81 1  
    86   32   82 1  
    87   33   83 1  
    88   33   84 1  
    89   34   85 1  
    90   34   86 1  
    91   35   87 1  
    92   36   88 1  
    93   37   89 1  
    94   38   90 1  
    95   39   91 1  
    96   39   92 1  
    97   41   93 1  
    98   42   94 1  
    99   46   95 1  
@<TRIPOS>SUBSTRUCTURE
     1 PB8         1

