### 
### Created by X-TOOL on Mon Sep 10 21:13:07 2018
### 

@<TRIPOS>MOLECULE
3skh_ligand
   41    44     1     0     0
SMALL
GAST_HUCK


@<TRIPOS>ATOM
      1 C1         25.3360   42.9830   49.1900 C.ar      1 058         0.0250
      2 F1         21.6070   45.8780   45.1850 F         1 058        -0.1860
      3 N1         25.2380   43.7040   45.0960 N.pl3     1 058        -0.2405
      4 O1         24.5230   46.9150   43.8280 O.co2     1 058        -0.5583
      5 CL1        25.3050   42.8100   50.9080 Cl        1 058        -0.0811
      6 C2         25.9900   42.0370   48.4000 C.ar      1 058        -0.0603
      7 O2         23.7210   45.1040   42.7440 O.co2     1 058        -0.5583
      8 C3         26.0190   42.1820   47.0050 C.ar      1 058        -0.0395
      9 C4         24.6860   44.0870   48.6070 C.ar      1 058        -0.0569
     10 C5         24.5070   44.8850   45.0050 C.2       1 058         0.1106
     11 C6         24.1630   45.2300   46.3190 C.2       1 058         0.0037
     12 C7         24.7030   44.2490   47.1970 C.ar      1 058        -0.0090
     13 C8         25.3690   43.3000   46.4180 C.ar      1 058         0.0742
     14 C9         25.8040   43.0000   43.9530 C.3       1 058         0.0869
     15 C10        24.1850   45.5980   43.7660 C.2       1 058         0.0904
     16 C11        23.3800   46.4020   46.7080 C.ar      1 058        -0.0004
     17 C12        23.8750   47.2680   47.7010 C.ar      1 058        -0.0634
     18 C13        23.1280   48.3880   48.0920 C.ar      1 058        -0.0706
     19 C14        21.8830   48.6560   47.5000 C.ar      1 058        -0.0684
     20 C15        21.3830   47.8030   46.5180 C.ar      1 058        -0.0327
     21 C16        22.1230   46.6840   46.1280 C.ar      1 058         0.1331
     22 C17        27.1050   43.6310   43.5300 C.ar      1 058        -0.0140
     23 C18        27.8010   43.1360   42.4150 C.ar      1 058        -0.0578
     24 C19        29.0100   43.7240   42.0150 C.ar      1 058        -0.0685
     25 C20        29.5430   44.8050   42.7300 C.ar      1 058        -0.0687
     26 C21        28.8670   45.3050   43.8470 C.ar      1 058        -0.0685
     27 C22        27.6560   44.7240   44.2410 C.ar      1 058        -0.0578
     28 H1         26.4770   41.1877   48.8654 H         1 058         0.0552
     29 H2         26.5289   41.4531   46.3856 H         1 058         0.0551
     30 H3         24.1748   44.8102   49.2320 H         1 058         0.0561
     31 H4         25.0930   43.0420   43.1147 H         1 058         0.0768
     32 H5         25.9845   41.9505   44.2285 H         1 058         0.0768
     33 H6         24.8347   47.0687   48.1639 H         1 058         0.0565
     34 H7         23.5142   49.0520   48.8569 H         1 058         0.0571
     35 H8         21.3119   49.5249   47.8064 H         1 058         0.0567
     36 H9         20.4228   48.0071   46.0581 H         1 058         0.0590
     37 H10        27.4015   42.2947   41.8604 H         1 058         0.0557
     38 H11        29.5351   43.3400   41.1478 H         1 058         0.0599
     39 H12        30.4790   45.2533   42.4171 H         1 058         0.0559
     40 H13        29.2785   46.1383   44.4050 H         1 058         0.0599
     41 H14        27.1317   45.1174   45.1044 H         1 058         0.0557
@<TRIPOS>BOND
     1    1    5 1  
     2    1    6 ar 
     3    9    1 ar 
     4   21    2 1  
     5   10    3 1  
     6   13    3 1  
     7    3   14 1  
     8   15    4 ar 
     9    8    6 ar 
    10   15    7 ar 
    11   13    8 ar 
    12   12    9 ar 
    13   11   10 2  
    14   10   15 1  
    15   11   12 1  
    16   16   11 1  
    17   12   13 ar 
    18   14   22 1  
    19   16   17 ar 
    20   16   21 ar 
    21   17   18 ar 
    22   18   19 ar 
    23   19   20 ar 
    24   20   21 ar 
    25   22   23 ar 
    26   22   27 ar 
    27   23   24 ar 
    28   24   25 ar 
    29   25   26 ar 
    30   26   27 ar 
    31    6   28 1  
    32    8   29 1  
    33    9   30 1  
    34   14   31 1  
    35   14   32 1  
    36   17   33 1  
    37   18   34 1  
    38   19   35 1  
    39   20   36 1  
    40   23   37 1  
    41   24   38 1  
    42   25   39 1  
    43   26   40 1  
    44   27   41 1  
@<TRIPOS>SUBSTRUCTURE
     1 058         1

