### 
### Created by X-TOOL on Mon Sep 10 21:13:06 2018
### 

@<TRIPOS>MOLECULE
3sl4_ligand
   54    56     1     0     0
SMALL
GAST_HUCK


@<TRIPOS>ATOM
      1 C1        -21.7120   10.4640   27.7740 C.3       1 JN4         0.0399
      2 N2        -21.7410    9.7030   26.5330 N.am      1 JN4        -0.2513
      3 C3        -21.1610    8.3330   26.5270 C.3       1 JN4         0.0615
      4 C4        -21.4000    7.4820   27.7960 C.2       1 JN4         0.0129
      5 C5        -21.7940    8.1610   29.0070 C.2       1 JN4        -0.0664
      6 C6        -21.9350    9.6800   29.0650 C.3       1 JN4        -0.0214
      7 C7        -22.6440   10.1420   25.5060 C.2       1 JN4         0.2614
      8 O8        -22.7430    9.5140   24.4640 O.2       1 JN4        -0.4005
      9 N9        -23.2570   11.4360   25.6380 N.am      1 JN4        -0.2732
     10 C10       -24.0290   12.0100   24.5690 C.3       1 JN4         0.0284
     11 C11       -24.1120   13.4980   24.4980 C.3       1 JN4        -0.0451
     12 S12       -21.3460    5.7780   28.1250 S.3       1 JN4        -0.0162
     13 C13       -21.7480    5.6130   29.6500 C.2       1 JN4         0.1448
     14 C14       -22.0300    7.0110   30.2250 C.2       1 JN4         0.0528
     15 C15       -22.4590    7.3070   31.6300 C.2       1 JN4         0.2205
     16 O16       -22.8000    8.4910   31.9310 O.3       1 JN4        -0.2864
     17 C17       -23.1150    8.7870   33.2470 C.3       1 JN4         0.0717
     18 C18       -21.9690    8.9500   34.1920 C.3       1 JN4        -0.0374
     19 O19       -22.5810    6.3720   32.4740 O.2       1 JN4        -0.3867
     20 N20       -21.9060    4.4320   30.4830 N.am      1 JN4        -0.2126
     21 C21       -21.8150    3.0730   30.0170 C.2       1 JN4         0.2230
     22 C22       -22.1060    1.9560   30.9860 C.3       1 JN4         0.0780
     23 C23       -22.4100    2.3650   32.4140 C.ar      1 JN4        -0.0236
     24 C24       -23.6540    2.8230   32.7630 C.ar      1 JN4        -0.0579
     25 C25       -21.3640    2.2930   33.4340 C.ar      1 JN4        -0.0579
     26 C26       -21.6250    2.6700   34.7640 C.ar      1 JN4        -0.0681
     27 C27       -22.9100    3.1450   35.1180 C.ar      1 JN4        -0.0684
     28 C28       -23.9250    3.2200   34.1310 C.ar      1 JN4        -0.0681
     29 O29       -21.3700    2.8560   28.9110 O.2       1 JN4        -0.3782
     30 H1        -22.4959   11.2331   27.7117 H         1 JN4         0.0536
     31 H2        -20.7272   10.9490   27.8446 H         1 JN4         0.0536
     32 H3        -20.0741    8.4298   26.3883 H         1 JN4         0.0628
     33 H4        -21.5927    7.7901   25.6733 H         1 JN4         0.0628
     34 H5        -22.9549    9.9020   29.4120 H         1 JN4         0.0368
     35 H6        -21.2079   10.0493   29.8032 H         1 JN4         0.0368
     36 H7        -23.1442   11.9470   26.4902 H         1 JN4         0.1845
     37 H8        -25.0560   11.6274   24.6626 H         1 JN4         0.0514
     38 H9        -23.5919   11.6594   23.6224 H         1 JN4         0.0514
     39 H10       -24.7304   13.7900   23.6365 H         1 JN4         0.0249
     40 H11       -23.1013   13.9165   24.3825 H         1 JN4         0.0249
     41 H12       -24.5655   13.8845   25.4226 H         1 JN4         0.0249
     42 H13       -23.7486    7.9730   33.6291 H         1 JN4         0.0607
     43 H14       -23.6852    9.7276   33.2496 H         1 JN4         0.0607
     44 H15       -22.3524    9.1812   35.1968 H         1 JN4         0.0255
     45 H16       -21.3239    9.7717   33.8477 H         1 JN4         0.0255
     46 H17       -21.3872    8.0171   34.2272 H         1 JN4         0.0255
     47 H18       -22.0923    4.5748   31.4551 H         1 JN4         0.2371
     48 H19       -21.2278    1.2939   31.0072 H         1 JN4         0.0666
     49 H20       -22.9753    1.4001   30.6048 H         1 JN4         0.0666
     50 H21       -24.4361    2.8885   32.0153 H         1 JN4         0.0561
     51 H22       -20.3744    1.9445   33.1614 H         1 JN4         0.0561
     52 H23       -20.8456    2.5970   35.5138 H         1 JN4         0.0600
     53 H24       -23.1171    3.4497   36.1375 H         1 JN4         0.0561
     54 H25       -24.9121    3.5772   34.4014 H         1 JN4         0.0600
@<TRIPOS>BOND
     1    1    2 1  
     2    1    6 1  
     3    2    3 1  
     4    2    7 am 
     5    3    4 1  
     6    4    5 2  
     7    4   12 1  
     8    5    6 1  
     9    5   14 1  
    10    7    8 2  
    11    7    9 am 
    12    9   10 1  
    13   10   11 1  
    14   12   13 1  
    15   13   14 2  
    16   13   20 1  
    17   14   15 1  
    18   15   16 1  
    19   15   19 2  
    20   16   17 1  
    21   17   18 1  
    22   20   21 am 
    23   21   22 1  
    24   21   29 2  
    25   22   23 1  
    26   23   24 ar 
    27   23   25 ar 
    28   24   28 ar 
    29   25   26 ar 
    30   26   27 ar 
    31   27   28 ar 
    32    1   30 1  
    33    1   31 1  
    34    3   32 1  
    35    3   33 1  
    36    6   34 1  
    37    6   35 1  
    38    9   36 1  
    39   10   37 1  
    40   10   38 1  
    41   11   39 1  
    42   11   40 1  
    43   11   41 1  
    44   17   42 1  
    45   17   43 1  
    46   18   44 1  
    47   18   45 1  
    48   18   46 1  
    49   20   47 1  
    50   22   48 1  
    51   22   49 1  
    52   24   50 1  
    53   25   51 1  
    54   26   52 1  
    55   27   53 1  
    56   28   54 1  
@<TRIPOS>SUBSTRUCTURE
     1 JN4         1

