### 
### Created by X-TOOL on Mon Sep 10 21:13:06 2018
### 

@<TRIPOS>MOLECULE
3sl5_ligand
   50    52     1     0     0
SMALL
GAST_HUCK


@<TRIPOS>ATOM
      1 C1        -21.7130    7.3930   28.9430 C.2       1 J25        -0.0663
      2 C2        -21.6020    6.4030   30.0660 C.2       1 J25         0.0528
      3 C3        -21.2550    5.0320   29.5550 C.2       1 J25         0.1448
      4 S4        -21.0610    5.0390   27.8290 S.3       1 J25        -0.0162
      5 C5        -21.4320    6.7340   27.6580 C.2       1 J25         0.0131
      6 C6        -21.4540    7.3890   26.3130 C.3       1 J25         0.0630
      7 N7        -22.2630    8.6210   26.3670 N.am      1 J25        -0.2407
      8 C8        -22.8220    9.1560   27.6290 C.3       1 J25         0.0414
      9 C9        -22.0420    8.8560   28.9190 C.3       1 J25        -0.0212
     10 N10       -21.0610    3.9390   30.3470 N.am      1 J25        -0.2123
     11 C11       -21.2820    2.6720   29.9760 C.2       1 J25         0.2249
     12 C12       -22.4680    1.9940   30.6370 C.3       1 J25         0.0893
     13 C13       -22.6130    2.4530   32.0750 C.2       1 J25         0.0313
     14 C14       -23.6850    2.8930   32.8430 C.2       1 J25        -0.0791
     15 C15       -23.3130    3.2210   34.1570 C.2       1 J25        -0.0924
     16 C16       -21.9680    3.0670   34.4940 C.2       1 J25        -0.0189
     17 S17       -21.1930    2.4810   33.0600 S.3       1 J25        -0.0419
     18 O18       -20.5770    2.0700   29.1710 O.2       1 J25        -0.3778
     19 C19       -21.8500    6.7800   31.4840 C.2       1 J25         0.2205
     20 O20       -21.8660    8.1890   31.8160 O.3       1 J25        -0.2864
     21 C21       -22.6760    8.6550   32.8900 C.3       1 J25         0.0717
     22 C22       -22.0450    9.9180   33.4340 C.3       1 J25        -0.0374
     23 O23       -22.0700    5.9470   32.3560 O.2       1 J25        -0.3867
     24 C24       -22.5640    9.2640   25.2320 C.2       1 J25         0.3236
     25 O25       -21.5500    9.6160   24.2240 O.3       1 J25        -0.2640
     26 C26       -20.1410    9.4300   24.4230 C.3       1 J25         0.0745
     27 C27       -19.4440    9.1770   23.1000 C.3       1 J25        -0.0372
     28 O28       -23.7300    9.5640   24.9990 O.2       1 J25        -0.3773
     29 H         -21.8912    6.7037   25.5868 H         1 J25         0.0630
     30 H         -20.4350    7.6410   26.0194 H         1 J25         0.0630
     31 H         -23.7940    8.6780   27.7506 H         1 J25         0.0538
     32 H         -22.8147   10.2407   27.5219 H         1 J25         0.0538
     33 H         -21.1254    9.4452   28.9465 H         1 J25         0.0368
     34 H         -22.6446    9.1174   29.7889 H         1 J25         0.0368
     35 H         -20.7213    4.0993   31.2953 H         1 J25         0.2372
     36 H         -22.3097    0.9156   30.6251 H         1 J25         0.0692
     37 H         -23.3739    2.2555   30.0901 H         1 J25         0.0692
     38 H         -24.7045    2.9746   32.4660 H         1 J25         0.0284
     39 H         -24.0434    3.5803   34.8820 H         1 J25         0.0373
     40 H         -21.5023    3.2724   35.4579 H         1 J25         0.0603
     41 H         -22.7392    7.8977   33.6714 H         1 J25         0.0607
     42 H         -23.6875    8.8592   32.5390 H         1 J25         0.0607
     43 H         -21.0384    9.6962   33.7884 H         1 J25         0.0255
     44 H         -21.9965   10.6677   32.6442 H         1 J25         0.0255
     45 H         -22.6471   10.2968   34.2599 H         1 J25         0.0255
     46 H         -19.9868    8.5693   25.0738 H         1 J25         0.0608
     47 H         -19.7260   10.3313   24.8742 H         1 J25         0.0608
     48 H         -19.8575    8.2802   22.6386 H         1 J25         0.0255
     49 H         -19.5984   10.0308   22.4403 H         1 J25         0.0255
     50 H         -18.3768    9.0387   23.2736 H         1 J25         0.0255
@<TRIPOS>BOND
     1    1    2 1  
     2    1    5 2  
     3    1    9 1  
     4    2    3 2  
     5    2   19 1  
     6    3    4 1  
     7    3   10 1  
     8    4    5 1  
     9    5    6 1  
    10    6    7 1  
    11    7    8 1  
    12    7   24 am 
    13    8    9 1  
    14   10   11 am 
    15   11   12 1  
    16   11   18 2  
    17   12   13 1  
    18   13   14 2  
    19   13   17 1  
    20   14   15 1  
    21   15   16 2  
    22   16   17 1  
    23   19   20 1  
    24   19   23 2  
    25   20   21 1  
    26   21   22 1  
    27   24   25 1  
    28   24   28 2  
    29   25   26 1  
    30   26   27 1  
    31    6   29 1  
    32    6   30 1  
    33    8   31 1  
    34    8   32 1  
    35    9   33 1  
    36    9   34 1  
    37   10   35 1  
    38   12   36 1  
    39   12   37 1  
    40   14   38 1  
    41   15   39 1  
    42   16   40 1  
    43   21   41 1  
    44   21   42 1  
    45   22   43 1  
    46   22   44 1  
    47   22   45 1  
    48   26   46 1  
    49   26   47 1  
    50   27   48 1  
    51   27   49 1  
    52   27   50 1  
@<TRIPOS>SUBSTRUCTURE
     1 J25         1

