### 
### Created by X-TOOL on Mon Sep 10 21:13:07 2018
### 

@<TRIPOS>MOLECULE
3sl8_ligand
   57    60     1     0     0
SMALL
GAST_HUCK


@<TRIPOS>ATOM
      1 C1         72.0580   -9.3670   29.6650 C.3       1 JN7        -0.0212
      2 C2         71.7730  -10.0400   28.2930 C.3       1 JN7         0.0414
      3 N3         72.0160   -9.1480   27.1720 N.am      1 JN7        -0.2407
      4 C4         71.2150   -7.9180   27.0990 C.3       1 JN7         0.0630
      5 C5         71.3320   -7.1430   28.4070 C.2       1 JN7         0.0131
      6 C6         71.7610   -7.8480   29.6770 C.2       1 JN7        -0.0663
      7 S7         71.1130   -5.5850   28.7230 S.3       1 JN7        -0.0162
      8 C8         71.4400   -5.3840   30.3680 C.2       1 JN7         0.1448
      9 C9         71.8260   -6.7130   30.9490 C.2       1 JN7         0.0528
     10 C10        73.2510   -9.0580   26.4110 C.2       1 JN7         0.3236
     11 O11        73.5880   -7.9720   25.8530 O.2       1 JN7        -0.3773
     12 O12        74.0860  -10.0170   26.5060 O.3       1 JN7        -0.2640
     13 C13        75.2290  -10.1000   25.7260 C.3       1 JN7         0.0745
     14 C14        76.3030  -11.0340   26.1880 C.3       1 JN7        -0.0372
     15 C15        72.2140   -6.9000   32.4040 C.2       1 JN7         0.2207
     16 N16        71.4180   -4.1500   31.1270 N.am      1 JN7        -0.2123
     17 C17        71.4240   -2.8130   30.5780 C.2       1 JN7         0.2249
     18 C18        71.4890   -1.7000   31.5820 C.3       1 JN7         0.0893
     19 C19        71.7690   -2.1030   33.0110 C.2       1 JN7         0.0313
     20 S20        73.1950   -2.6440   33.6470 S.3       1 JN7        -0.0419
     21 C21        72.9270   -2.9530   35.2140 C.2       1 JN7        -0.0189
     22 C22        71.4600   -2.6310   35.5340 C.2       1 JN7        -0.0924
     23 C23        70.7260   -2.0990   34.1610 C.2       1 JN7        -0.0791
     24 O24        71.0760   -2.5890   29.4310 O.2       1 JN7        -0.3778
     25 O25        72.0200   -7.9490   33.1080 O.3       1 JN7        -0.2828
     26 O26        72.5510   -5.8680   33.0380 O.2       1 JN7        -0.3866
     27 C27        71.8820   -9.2350   32.6060 C.3       1 JN7         0.0853
     28 C28        70.7440  -10.1180   33.1510 C.3       1 JN7        -0.0224
     29 C29        71.3820  -11.4670   33.5570 C.3       1 JN7        -0.0503
     30 C30        72.6660  -11.5620   32.7340 C.3       1 JN7        -0.0503
     31 C31        73.1220  -10.1240   32.5270 C.3       1 JN7        -0.0224
     32 H          73.1190   -9.5169   29.9134 H         1 JN7         0.0368
     33 H          71.4308   -9.8511   30.4280 H         1 JN7         0.0368
     34 H          70.7202  -10.3579   28.2684 H         1 JN7         0.0538
     35 H          72.4244  -10.9204   28.1903 H         1 JN7         0.0538
     36 H          70.1610   -8.1792   26.9231 H         1 JN7         0.0630
     37 H          71.5811   -7.2931   26.2711 H         1 JN7         0.0630
     38 H          75.6670   -9.0924   25.6716 H         1 JN7         0.0608
     39 H          74.9211  -10.4209   24.7199 H         1 JN7         0.0608
     40 H          77.1459  -11.0015   25.4819 H         1 JN7         0.0255
     41 H          75.9034  -12.0578   26.2350 H         1 JN7         0.0255
     42 H          76.6493  -10.7293   27.1866 H         1 JN7         0.0255
     43 H          71.3967   -4.2309   32.1235 H         1 JN7         0.2372
     44 H          70.5218   -1.1763   31.5649 H         1 JN7         0.0692
     45 H          72.2853   -1.0099   31.2663 H         1 JN7         0.0692
     46 H          73.6644   -3.3269   35.9228 H         1 JN7         0.0603
     47 H          70.9845   -2.7372   36.5079 H         1 JN7         0.0373
     48 H          69.6839   -1.7952   34.0736 H         1 JN7         0.0284
     49 H          71.6087   -9.0485   31.5569 H         1 JN7         0.0646
     50 H          69.9828  -10.2778   32.3732 H         1 JN7         0.0293
     51 H          70.2795   -9.6400   34.0261 H         1 JN7         0.0293
     52 H          70.7067  -12.3016   33.3172 H         1 JN7         0.0266
     53 H          71.6109  -11.4780   34.6328 H         1 JN7         0.0266
     54 H          72.4677  -12.0458   31.7662 H         1 JN7         0.0266
     55 H          73.4313  -12.1334   33.2796 H         1 JN7         0.0266
     56 H          73.8386   -9.8403   33.3119 H         1 JN7         0.0293
     57 H          73.5977  -10.0189   31.5408 H         1 JN7         0.0293
@<TRIPOS>BOND
     1    1    2 1  
     2    1    6 1  
     3    2    3 1  
     4    3    4 1  
     5    3   10 am 
     6    4    5 1  
     7    5    6 2  
     8    5    7 1  
     9    6    9 1  
    10    7    8 1  
    11    8    9 2  
    12    8   16 1  
    13    9   15 1  
    14   10   11 2  
    15   10   12 1  
    16   12   13 1  
    17   13   14 1  
    18   15   25 1  
    19   15   26 2  
    20   16   17 am 
    21   17   18 1  
    22   17   24 2  
    23   18   19 1  
    24   19   20 1  
    25   19   23 2  
    26   20   21 1  
    27   21   22 2  
    28   22   23 1  
    29   25   27 1  
    30   27   28 1  
    31   27   31 1  
    32   28   29 1  
    33   29   30 1  
    34   30   31 1  
    35    1   32 1  
    36    1   33 1  
    37    2   34 1  
    38    2   35 1  
    39    4   36 1  
    40    4   37 1  
    41   13   38 1  
    42   13   39 1  
    43   14   40 1  
    44   14   41 1  
    45   14   42 1  
    46   16   43 1  
    47   18   44 1  
    48   18   45 1  
    49   21   46 1  
    50   22   47 1  
    51   23   48 1  
    52   27   49 1  
    53   28   50 1  
    54   28   51 1  
    55   29   52 1  
    56   29   53 1  
    57   30   54 1  
    58   30   55 1  
    59   31   56 1  
    60   31   57 1  
@<TRIPOS>SUBSTRUCTURE
     1 JN7         1

