### 
### Created by X-TOOL on Mon Sep 10 21:13:06 2018
### 

@<TRIPOS>MOLECULE
3slz_ligand
  130   133     1     0     0
SMALL
GAST_HUCK


@<TRIPOS>ATOM
      1 C31        -0.2550    2.4820   18.3190 C.2       1 3TL         0.3239
      2 O8         -1.0730    3.3600   18.5020 O.2       1 3TL        -0.3773
      3 O9          0.0500    1.7380   19.3960 O.3       1 3TL        -0.2506
      4 CA         -0.9680    1.0670   20.1750 C.3       1 3TL         0.1113
      5 C          -0.4040    0.4340   21.4100 C.ar      1 3TL        -0.0130
      6 C13        -1.2590   -0.0130   22.4110 C.ar      1 3TL        -0.0578
      7 C14        -0.7130   -0.5990   23.5680 C.ar      1 3TL        -0.0685
      8 C15         0.6680   -0.7450   23.7420 C.ar      1 3TL        -0.0687
      9 C16         1.5270   -0.2950   22.7370 C.ar      1 3TL        -0.0685
     10 C17         0.9690    0.2810   21.6000 C.ar      1 3TL        -0.0578
     11 N4          0.5480    2.3680   17.2720 N.am      1 3TL        -0.2413
     12 C18         0.3560    3.0440   16.1390 C.3       1 3TL         0.1300
     13 C19        -0.4840    2.2110   15.2050 C.2       1 3TL         0.2036
     14 O4         -0.0090    1.0670   14.8120 O.2       1 3TL        -0.3944
     15 C20         1.7230    3.1960   15.5350 C.3       1 3TL        -0.0244
     16 N2         -1.6290    2.6680   14.8370 N.am      1 3TL        -0.2635
     17 C10        -2.6200    2.0030   14.0030 C.3       1 3TL         0.1331
     18 C11        -2.8020    2.8180   12.7660 C.2       1 3TL         0.2024
     19 O2         -3.7160    3.7240   12.8370 O.2       1 3TL        -0.3945
     20 C12        -3.8750    1.7020   14.8000 C.3       1 3TL        -0.0063
     21 CG2        -3.6120    0.8800   16.0800 C.3       1 3TL        -0.0584
     22 CG1        -4.9240    0.9990   13.9240 C.3       1 3TL        -0.0584
     23 C2         -2.5730    2.5420    9.2430 C.3       1 3TL         0.1079
     24 O1         -1.3820    1.8160    9.0230 O.3       1 3TL        -0.3867
     25 C1         -2.3370    3.4280   10.4230 C.3       1 3TL         0.0799
     26 N1         -2.1430    2.5900   11.6460 N.am      1 3TL        -0.2774
     27 C3         -1.1450    4.3200   10.0210 C.3       1 3TL         0.0065
     28 C4         -0.4240    4.8260   11.2020 C.ar      1 3TL        -0.0408
     29 C5         -1.0050    5.8930   11.8920 C.ar      1 3TL        -0.0603
     30 C9          0.7870    4.2420   11.5920 C.ar      1 3TL        -0.0603
     31 C6         -0.3800    6.3930   13.0200 C.ar      1 3TL        -0.0686
     32 C8          1.4170    4.7580   12.7210 C.ar      1 3TL        -0.0686
     33 C7          0.8190    5.8140   13.4270 C.ar      1 3TL        -0.0687
     34 N51        -5.3210    2.9830    7.9450 N.am      1 3TL        -0.2774
     35 C51        -5.0700    2.3090    9.2130 C.3       1 3TL         0.0799
     36 C52        -3.7230    1.6320    9.3650 C.3       1 3TL         0.1079
     37 O51        -3.4440    0.6710    8.3610 O.3       1 3TL        -0.3867
     38 C53        -6.0450    1.1750    9.3810 C.3       1 3TL         0.0065
     39 C54        -7.3820    1.7230    9.2080 C.ar      1 3TL        -0.0408
     40 C55        -8.1450    1.3010    8.1320 C.ar      1 3TL        -0.0603
     41 C59        -7.8590    2.6990   10.0900 C.ar      1 3TL        -0.0603
     42 C56        -9.4200    1.8540    7.9720 C.ar      1 3TL        -0.0686
     43 C58        -9.1280    3.2640    9.9250 C.ar      1 3TL        -0.0686
     44 C57        -9.9090    2.8350    8.8440 C.ar      1 3TL        -0.0687
     45 N52        -7.2350    5.0720    6.1030 N.am      1 3TL        -0.2635
     46 C60        -5.8480    4.7220    6.3240 C.3       1 3TL         0.1331
     47 C61        -5.6370    4.1850    7.7340 C.2       1 3TL         0.2024
     48 O52        -5.7200    5.0450    8.7340 O.2       1 3TL        -0.3945
     49 C62        -4.9740    5.9340    5.9810 C.3       1 3TL        -0.0063
     50 CG6        -3.5090    5.8440    6.4320 C.3       1 3TL        -0.0584
     51 CG5        -5.0840    6.4920    4.5340 C.3       1 3TL        -0.0584
     52 N54        -9.4700    5.3860    3.6890 N.am      1 3TL        -0.2413
     53 C68        -9.3530    4.8900    4.8280 C.3       1 3TL         0.1300
     54 C69        -7.9350    4.6360    5.1350 C.2       1 3TL         0.2036
     55 O54        -7.3420    3.7820    4.3130 O.2       1 3TL        -0.3944
     56 C70       -10.3410    3.7560    5.0940 C.3       1 3TL        -0.0244
     57 C81        -9.5620    6.6620    3.4000 C.2       1 3TL         0.3239
     58 O58        -9.3970    7.5160    4.2920 O.2       1 3TL        -0.3773
     59 O59        -9.5390    7.0090    2.1430 O.3       1 3TL        -0.2506
     60 CA5        -8.5930    8.0030    1.6590 C.3       1 3TL         0.1113
     61 C50        -8.6220    8.2800    0.1840 C.ar      1 3TL        -0.0130
     62 C63        -9.4490    9.2540   -0.3950 C.ar      1 3TL        -0.0578
     63 C64        -9.4460    9.4570   -1.7800 C.ar      1 3TL        -0.0685
     64 C65        -8.6140    8.6670   -2.5860 C.ar      1 3TL        -0.0687
     65 C66        -7.7980    7.6840   -2.0240 C.ar      1 3TL        -0.0685
     66 C67        -7.8080    7.5020   -0.6420 C.ar      1 3TL        -0.0578
     67 H1         -1.4315    0.2852   19.5554 H         1 3TL         0.0776
     68 H2         -1.7315    1.8019   20.4698 H         1 3TL         0.0776
     69 H3         -2.3327    0.0886   22.3016 H         1 3TL         0.0557
     70 H4         -1.3814   -0.9474   24.3471 H         1 3TL         0.0599
     71 H5          1.0645   -1.2001   24.6424 H         1 3TL         0.0559
     72 H6          2.6017   -0.3921   22.8402 H         1 3TL         0.0599
     73 H7          1.6370    0.6293   20.8205 H         1 3TL         0.0557
     74 H8          1.3310    1.7491   17.3338 H         1 3TL         0.1899
     75 H9         -0.1161    4.0197   16.3264 H         1 3TL         0.0796
     76 H10         1.6457    3.7495   14.5875 H         1 3TL         0.0277
     77 H11         2.1524    2.2014   15.3446 H         1 3TL         0.0277
     78 H12         2.3718    3.7485   16.2305 H         1 3TL         0.0277
     79 H13        -1.8652    3.5842   15.1606 H         1 3TL         0.1883
     80 H14        -2.2084    1.0319   13.6906 H         1 3TL         0.0802
     81 H15        -4.2958    2.6681   15.1155 H         1 3TL         0.0343
     82 H16        -4.5631    0.7015   16.6030 H         1 3TL         0.0234
     83 H17        -2.9298    1.4365   16.7395 H         1 3TL         0.0234
     84 H18        -3.1557   -0.0837   15.8096 H         1 3TL         0.0234
     85 H19        -5.1020    1.5943   13.0163 H         1 3TL         0.0234
     86 H20        -5.8638    0.8985   14.4867 H         1 3TL         0.0234
     87 H21        -4.5570    0.0012   13.6419 H         1 3TL         0.0234
     88 H22        -2.7603    3.1856    8.3708 H         1 3TL         0.0645
     89 H23        -1.4970    1.2398    8.2764 H         1 3TL         0.2100
     90 H24        -3.2144    4.0696   10.5917 H         1 3TL         0.0605
     91 H25        -1.4921    1.8315   11.6140 H         1 3TL         0.1857
     92 H26        -1.5191    5.1745    9.4380 H         1 3TL         0.0449
     93 H27        -0.4504    3.7310    9.4040 H         1 3TL         0.0449
     94 H28        -1.9372    6.3251   11.5464 H         1 3TL         0.0557
     95 H29         1.2184    3.4180   11.0352 H         1 3TL         0.0557
     96 H30        -0.8139    7.2171   13.5747 H         1 3TL         0.0599
     97 H31         2.3635    4.3470   13.0530 H         1 3TL         0.0599
     98 H32         1.3070    6.1910   14.3185 H         1 3TL         0.0559
     99 H33        -5.2298    2.4124    7.1289 H         1 3TL         0.1857
    100 H34        -5.1942    3.0476   10.0186 H         1 3TL         0.0605
    101 H35        -3.7092    1.1495   10.3534 H         1 3TL         0.0645
    102 H36        -2.5884    0.2893    8.5185 H         1 3TL         0.2100
    103 H37        -5.9446    0.7382   10.3855 H         1 3TL         0.0449
    104 H38        -5.8551    0.4002    8.6236 H         1 3TL         0.0449
    105 H39        -7.7653    0.5636    7.4341 H         1 3TL         0.0557
    106 H40        -7.2347    3.0227   10.9149 H         1 3TL         0.0557
    107 H41       -10.0446    1.5151    7.1534 H         1 3TL         0.0599
    108 H42        -9.4972    4.0139   10.6153 H         1 3TL         0.0599
    109 H43       -10.8920    3.2624    8.6824 H         1 3TL         0.0559
    110 H44        -7.6701    5.6958    6.7523 H         1 3TL         0.1883
    111 H45        -5.5830    3.9136    5.6266 H         1 3TL         0.0802
    112 H46        -5.3996    6.7330    6.6059 H         1 3TL         0.0343
    113 H47        -2.9775    6.7606    6.1366 H         1 3TL         0.0234
    114 H48        -3.0318    4.9742    5.9569 H         1 3TL         0.0234
    115 H49        -3.4682    5.7328    7.5256 H         1 3TL         0.0234
    116 H50        -6.1429    6.5443    4.2407 H         1 3TL         0.0234
    117 H51        -4.5445    5.8278    3.8428 H         1 3TL         0.0234
    118 H52        -4.6425    7.4987    4.4947 H         1 3TL         0.0234
    119 H53        -9.4962    4.7471    2.9201 H         1 3TL         0.1899
    120 H54        -9.6546    5.6825    5.5286 H         1 3TL         0.0796
    121 H55       -10.1853    3.3649    6.1103 H         1 3TL         0.0277
    122 H56       -10.1802    2.9504    4.3625 H         1 3TL         0.0277
    123 H57       -11.3691    4.1360    5.0009 H         1 3TL         0.0277
    124 H58        -7.5810    7.6568    1.9159 H         1 3TL         0.0776
    125 H59        -8.8012    8.9478    2.1824 H         1 3TL         0.0776
    126 H60       -10.0955    9.8542    0.2351 H         1 3TL         0.0557
    127 H61       -10.0796   10.2162   -2.2243 H         1 3TL         0.0599
    128 H62        -8.6044    8.8216   -3.6589 H         1 3TL         0.0559
    129 H63        -7.1647    7.0700   -2.6540 H         1 3TL         0.0599
    130 H64        -7.1725    6.7429   -0.2005 H         1 3TL         0.0557
@<TRIPOS>BOND
     1    1    2 2  
     2    1    3 1  
     3   11    1 am 
     4    3    4 1  
     5    4    5 1  
     6    5    6 ar 
     7    5   10 ar 
     8    6    7 ar 
     9    7    8 ar 
    10    9    8 ar 
    11   10    9 ar 
    12   12   11 1  
    13   13   12 1  
    14   12   15 1  
    15   13   14 2  
    16   16   13 am 
    17   17   16 1  
    18   18   17 1  
    19   17   20 1  
    20   18   19 2  
    21   26   18 am 
    22   20   21 1  
    23   20   22 1  
    24   23   24 1  
    25   23   25 1  
    26   36   23 1  
    27   25   26 1  
    28   25   27 1  
    29   27   28 1  
    30   28   29 ar 
    31   28   30 ar 
    32   29   31 ar 
    33   30   32 ar 
    34   31   33 ar 
    35   32   33 ar 
    36   34   35 1  
    37   47   34 am 
    38   35   36 1  
    39   35   38 1  
    40   36   37 1  
    41   38   39 1  
    42   39   40 ar 
    43   39   41 ar 
    44   40   42 ar 
    45   41   43 ar 
    46   42   44 ar 
    47   43   44 ar 
    48   45   46 1  
    49   54   45 am 
    50   46   47 1  
    51   46   49 1  
    52   47   48 2  
    53   49   50 1  
    54   49   51 1  
    55   53   52 1  
    56   52   57 am 
    57   53   54 1  
    58   53   56 1  
    59   54   55 2  
    60   57   58 2  
    61   57   59 1  
    62   59   60 1  
    63   60   61 1  
    64   61   62 ar 
    65   61   66 ar 
    66   62   63 ar 
    67   63   64 ar 
    68   64   65 ar 
    69   65   66 ar 
    70    4   67 1  
    71    4   68 1  
    72    6   69 1  
    73    7   70 1  
    74    8   71 1  
    75    9   72 1  
    76   10   73 1  
    77   11   74 1  
    78   12   75 1  
    79   15   76 1  
    80   15   77 1  
    81   15   78 1  
    82   16   79 1  
    83   17   80 1  
    84   20   81 1  
    85   21   82 1  
    86   21   83 1  
    87   21   84 1  
    88   22   85 1  
    89   22   86 1  
    90   22   87 1  
    91   23   88 1  
    92   24   89 1  
    93   25   90 1  
    94   26   91 1  
    95   27   92 1  
    96   27   93 1  
    97   29   94 1  
    98   30   95 1  
    99   31   96 1  
   100   32   97 1  
   101   33   98 1  
   102   34   99 1  
   103   35  100 1  
   104   36  101 1  
   105   37  102 1  
   106   38  103 1  
   107   38  104 1  
   108   40  105 1  
   109   41  106 1  
   110   42  107 1  
   111   43  108 1  
   112   44  109 1  
   113   45  110 1  
   114   46  111 1  
   115   49  112 1  
   116   50  113 1  
   117   50  114 1  
   118   50  115 1  
   119   51  116 1  
   120   51  117 1  
   121   51  118 1  
   122   52  119 1  
   123   53  120 1  
   124   56  121 1  
   125   56  122 1  
   126   56  123 1  
   127   60  124 1  
   128   60  125 1  
   129   62  126 1  
   130   63  127 1  
   131   64  128 1  
   132   65  129 1  
   133   66  130 1  
@<TRIPOS>SUBSTRUCTURE
     1 3TL         1

