### 
### Created by X-TOOL on Mon Sep 10 21:13:08 2018
### 

@<TRIPOS>MOLECULE
3sm0_ligand
   50    53     1     0     0
SMALL
GAST_HUCK


@<TRIPOS>ATOM
      1 N1         19.0630   18.2860   16.1730 N.pl3     1 AEK        -0.2785
      2 N3         14.1100   14.7760   17.7000 N.4       1 AEK         0.2284
      3 C4         16.3410   16.9230   19.9570 C.ar      1 AEK        -0.0060
      4 C5         15.0170   16.4290   19.3650 C.3       1 AEK         0.0170
      5 C6         15.2400   15.1070   18.5950 C.3       1 AEK        -0.0262
      6 C7         12.7590   14.9490   18.2860 C.3       1 AEK        -0.0307
      7 C8         11.6470   14.7750   17.1870 C.3       1 AEK        -0.0008
      8 C10         9.3200   15.2820   16.7140 C.3       1 AEK        -0.0526
      9 C13        16.6590   16.9100   21.3200 C.ar      1 AEK         0.0116
     10 C15        18.1460   17.2660   23.2810 C.2       1 AEK         0.2279
     11 C17        18.9290   17.7730   20.9300 C.ar      1 AEK        -0.0592
     12 C1         18.2510   18.1030   14.9560 C.3       1 AEK         0.0221
     13 C2         18.5790   17.9880   17.4040 C.2       1 AEK         0.2109
     14 N2         17.3720   17.5130   17.7540 N.pl3     1 AEK        -0.2324
     15 C3         17.3560   17.3770   19.1110 C.ar      1 AEK         0.0775
     16 C9         10.2290   14.7440   17.8190 C.3       1 AEK        -0.0454
     17 C11        10.1580   16.2290   15.8440 C.3       1 AEK        -0.0526
     18 C12        11.6350   16.0450   16.2770 C.3       1 AEK        -0.0454
     19 N4         15.7170   16.4820   22.2000 N.2       1 AEK        -0.3100
     20 C14        15.9490   16.4450   23.4810 C.2       1 AEK         0.1191
     21 N5         17.1190   16.8180   24.0640 N.am      1 AEK        -0.2035
     22 O1         19.2160   17.6130   23.7710 O.2       1 AEK        -0.3881
     23 C16        17.9200   17.3230   21.7950 C.ar      1 AEK         0.0414
     24 C18        18.5920   17.7800   19.5800 C.ar      1 AEK         0.0063
     25 N6         19.3140   18.1460   18.5180 N.2       1 AEK        -0.3174
     26 H          20.0134   18.6461   16.0866 H         1 AEK         0.1891
     27 H          14.2021   13.7865   17.4700 H         1 AEK         0.2015
     28 H          14.1680   15.4182   16.9096 H         1 AEK         0.2015
     29 H          14.6290   17.1817   18.6787 H         1 AEK         0.0449
     30 H          14.3059   16.2569   20.1730 H         1 AEK         0.0449
     31 H          16.1332   15.2218   17.9809 H         1 AEK         0.0834
     32 H          15.3368   14.3041   19.3258 H         1 AEK         0.0834
     33 H          12.6840   15.9519   18.7063 H         1 AEK         0.0816
     34 H          12.6114   14.1938   19.0580 H         1 AEK         0.0816
     35 H          11.8659   13.8510   16.6519 H         1 AEK         0.0352
     36 H           8.4709   15.8127   17.1448 H         1 AEK         0.0265
     37 H           8.9258   14.4624   16.1131 H         1 AEK         0.0265
     38 H          19.9066   18.0940   21.2897 H         1 AEK         0.0497
     39 H          17.9688   17.0542   14.8633 H         1 AEK         0.0490
     40 H          17.3533   18.7175   15.0239 H         1 AEK         0.0490
     41 H          18.8327   18.4025   14.0842 H         1 AEK         0.0490
     42 H          16.6049   17.2934   17.1186 H         1 AEK         0.2299
     43 H          10.1694   15.3398   18.7298 H         1 AEK         0.0270
     44 H           9.9414   13.7428   18.1398 H         1 AEK         0.0270
     45 H           9.8402   17.2628   15.9793 H         1 AEK         0.0265
     46 H          10.0323   15.9970   14.7864 H         1 AEK         0.0265
     47 H          12.2922   15.9258   15.4156 H         1 AEK         0.0270
     48 H          12.0080   16.9208   16.8080 H         1 AEK         0.0270
     49 H          15.1492   16.0902   24.1310 H         1 AEK         0.1463
     50 H          17.2296   16.7641   25.0766 H         1 AEK         0.2525
@<TRIPOS>BOND
     1    1   12 1  
     2   13    1 1  
     3    5    2 1  
     4    2    6 1  
     5    3    4 1  
     6    3    9 ar 
     7   15    3 ar 
     8    4    5 1  
     9    6    7 1  
    10    7   16 1  
    11    7   18 1  
    12   16    8 1  
    13    8   17 1  
    14    9   19 1  
    15    9   23 ar 
    16   10   21 am 
    17   10   22 2  
    18   23   10 1  
    19   23   11 ar 
    20   11   24 ar 
    21   14   13 1  
    22   13   25 2  
    23   14   15 1  
    24   15   24 ar 
    25   17   18 1  
    26   19   20 2  
    27   20   21 1  
    28   24   25 1  
    29    1   26 1  
    30    2   27 1  
    31    2   28 1  
    32    4   29 1  
    33    4   30 1  
    34    5   31 1  
    35    5   32 1  
    36    6   33 1  
    37    6   34 1  
    38    7   35 1  
    39    8   36 1  
    40    8   37 1  
    41   11   38 1  
    42   12   39 1  
    43   12   40 1  
    44   12   41 1  
    45   14   42 1  
    46   16   43 1  
    47   16   44 1  
    48   17   45 1  
    49   17   46 1  
    50   18   47 1  
    51   18   48 1  
    52   20   49 1  
    53   21   50 1  
@<TRIPOS>SUBSTRUCTURE
     1 AEK         1

