### 
### Created by X-TOOL on Mon Sep 10 21:13:05 2018
### 

@<TRIPOS>MOLECULE
3sm1_ligand
   76    75     1     0     0
SMALL
GAST_HUCK


@<TRIPOS>ATOM
      1 CA         -5.5570    2.3350    8.7090 C.3       1 IVA         0.0397
      2 CB         -6.8630    1.7240    9.2530 C.3       1 IVA        -0.0298
      3 CG1        -7.4860    2.5750   10.3510 C.3       1 IVA        -0.0606
      4 CG2        -7.9330    1.4430    8.2070 C.3       1 IVA        -0.0606
      5 C          -5.7340    3.7020    8.0740 C.2       1 IVA         0.1785
      6 O          -5.6850    4.7340    8.7490 O.2       1 IVA        -0.3969
      7 N          -5.9340    3.7530    6.7630 N.am      1 VAL        -0.2654
      8 CA         -6.1770    5.0000    6.0470 C.3       1 VAL         0.1332
      9 C          -7.3020    4.6580    5.0550 C.2       1 VAL         0.2042
     10 O          -7.1610    3.7640    4.2040 O.2       1 VAL        -0.3944
     11 CB         -4.9380    5.5340    5.2670 C.3       1 VAL        -0.0063
     12 CG1        -5.3120    6.6050    4.2230 C.3       1 VAL        -0.0584
     13 CG2        -3.8800    6.0900    6.2320 C.3       1 VAL        -0.0584
     14 N          -8.4030    5.3740    5.1580 N.am      1 VAL        -0.2635
     15 CA         -9.5320    5.1990    4.2360 C.3       1 VAL         0.1331
     16 C          -9.8190    6.5530    3.5930 C.2       1 VAL         0.2022
     17 O          -9.7560    7.5620    4.2860 O.2       1 VAL        -0.3945
     18 CB        -10.7850    4.7040    5.0200 C.3       1 VAL        -0.0063
     19 CG1       -12.0510    4.7800    4.1830 C.3       1 VAL        -0.0584
     20 CG2       -10.5830    3.2690    5.5220 C.3       1 VAL        -0.0584
     21 N         -10.1770    6.5700    2.2950 N.am      1 STA        -0.2793
     22 CA        -10.5110    7.8280    1.6200 C.3       1 STA         0.0703
     23 CB        -10.2050    7.7500    0.1180 C.3       1 STA        -0.0250
     24 CG         -8.7080    7.5630   -0.1880 C.3       1 STA        -0.0446
     25 CD1        -7.8540    8.7060    0.3530 C.3       1 STA        -0.0626
     26 CD2        -8.4400    7.4010   -1.6930 C.3       1 STA        -0.0626
     27 CH        -11.9590    8.2280    2.0080 C.3       1 STA         0.0946
     28 OH        -12.3420    9.5130    1.5330 O.3       1 STA        -0.3872
     29 CM        -12.9520    7.1970    1.5080 C.3       1 STA         0.0652
     30 C         -14.3670    7.4150    2.0100 C.2       1 STA         0.1761
     31 O         -14.6740    7.3690    3.3860 O.2       1 STA        -0.3972
     32 N         -15.2860    7.4800    1.0490 N.am      1 ALA        -0.3008
     33 H          -5.1836    1.6644    7.9350 H         1 IVA         0.0505
     34 H          -4.8795    2.4559    9.5543 H         1 IVA         0.0505
     35 H          -6.5335    0.7639    9.6501 H         1 IVA         0.0320
     36 H          -7.8481    3.5098    9.9231 H         1 IVA         0.0234
     37 H          -8.3182    2.0334   10.8006 H         1 IVA         0.0234
     38 H          -6.7362    2.7889   11.1126 H         1 IVA         0.0234
     39 H          -8.7621    0.9092    8.6715 H         1 IVA         0.0234
     40 H          -8.2920    2.3857    7.7940 H         1 IVA         0.0234
     41 H          -7.5083    0.8336    7.4093 H         1 IVA         0.0234
     42 H          -5.9170    2.8817    6.2329 H         1 VAL         0.1883
     43 H          -6.4255    5.7925    6.7528 H         1 VAL         0.0802
     44 H          -4.5219    4.6825    4.7285 H         1 VAL         0.0343
     45 H          -6.0059    6.1780    3.4989 H         1 VAL         0.0234
     46 H          -5.7828    7.4506    4.7244 H         1 VAL         0.0234
     47 H          -4.4108    6.9409    3.7101 H         1 VAL         0.0234
     48 H          -4.3107    6.9083    6.8090 H         1 VAL         0.0234
     49 H          -3.5549    5.2989    6.9077 H         1 VAL         0.0234
     50 H          -3.0263    6.4559    5.6615 H         1 VAL         0.0234
     51 H          -8.4731    6.0703    5.9000 H         1 VAL         0.1883
     52 H          -9.2924    4.4584    3.4730 H         1 VAL         0.0802
     53 H         -10.9053    5.3714    5.8734 H         1 VAL         0.0343
     54 H         -12.2247    5.8132    3.8822 H         1 VAL         0.0234
     55 H         -11.9368    4.1564    3.2963 H         1 VAL         0.0234
     56 H         -12.8964    4.4247    4.7722 H         1 VAL         0.0234
     57 H         -10.4167    2.6079    4.6715 H         1 VAL         0.0234
     58 H          -9.7180    3.2355    6.1844 H         1 VAL         0.0234
     59 H         -11.4712    2.9472    6.0657 H         1 VAL         0.0234
     60 H         -10.2164    5.6943    1.7734 H         1 STA         0.1856
     61 H          -9.8748    8.6464    1.9571 H         1 STA         0.0583
     62 H         -10.5186    8.6920   -0.3320 H         1 STA         0.0291
     63 H         -10.7341    6.8851   -0.2820 H         1 STA         0.0291
     64 H          -8.4216    6.6440    0.3233 H         1 STA         0.0296
     65 H          -8.1753    9.6439   -0.1001 H         1 STA         0.0232
     66 H          -7.9713    8.7648    1.4351 H         1 STA         0.0232
     67 H          -6.8075    8.5229    0.1091 H         1 STA         0.0232
     68 H          -8.9743    6.5263   -2.0638 H         1 STA         0.0232
     69 H          -8.7859    8.2901   -2.2201 H         1 STA         0.0232
     70 H          -7.3704    7.2721   -1.8585 H         1 STA         0.0232
     71 H         -11.9699    8.2691    3.0972 H         1 STA         0.0642
     72 H         -11.7529   10.1769    1.8990 H         1 STA         0.2101
     73 H         -12.6233    6.2247    1.8750 H         1 STA         0.0529
     74 H         -12.9779    7.2715    0.4209 H         1 STA         0.0529
     75 H         -16.2767    7.4991    1.2911 H         1 ALA         0.1814
     76 H         -14.9995    7.5107    0.0706 H         1 ALA         0.1814
@<TRIPOS>BOND
     1    1    2 1  
     2    1    5 1  
     3    2    3 1  
     4    2    4 1  
     5    5    6 2  
     6    5    7 am 
     7    7    8 1  
     8    8    9 1  
     9    8   11 1  
    10    9   10 2  
    11    9   14 am 
    12   11   12 1  
    13   11   13 1  
    14   14   15 1  
    15   15   16 1  
    16   15   18 1  
    17   16   17 2  
    18   16   21 am 
    19   18   19 1  
    20   18   20 1  
    21   21   22 1  
    22   22   23 1  
    23   22   27 1  
    24   23   24 1  
    25   24   25 1  
    26   24   26 1  
    27   27   28 1  
    28   27   29 1  
    29   29   30 1  
    30   30   31 2  
    31   30   32 am 
    32    1   33 1  
    33    1   34 1  
    34    2   35 1  
    35    3   36 1  
    36    3   37 1  
    37    3   38 1  
    38    4   39 1  
    39    4   40 1  
    40    4   41 1  
    41    7   42 1  
    42    8   43 1  
    43   11   44 1  
    44   12   45 1  
    45   12   46 1  
    46   12   47 1  
    47   13   48 1  
    48   13   49 1  
    49   13   50 1  
    50   14   51 1  
    51   15   52 1  
    52   18   53 1  
    53   19   54 1  
    54   19   55 1  
    55   19   56 1  
    56   20   57 1  
    57   20   58 1  
    58   20   59 1  
    59   21   60 1  
    60   22   61 1  
    61   23   62 1  
    62   23   63 1  
    63   24   64 1  
    64   25   65 1  
    65   25   66 1  
    66   25   67 1  
    67   26   68 1  
    68   26   69 1  
    69   26   70 1  
    70   27   71 1  
    71   28   72 1  
    72   29   73 1  
    73   29   74 1  
    74   32   75 1  
    75   32   76 1  
@<TRIPOS>SUBSTRUCTURE
     1 IVA         1

