### 
### Created by X-TOOL on Mon Sep 10 21:13:06 2018
### 

@<TRIPOS>MOLECULE
3sm2_ligand
   70    72     1     0     0
SMALL
GAST_HUCK


@<TRIPOS>ATOM
      1 C1         -2.6620    1.3630   16.0670 C.3       1 478         0.0782
      2 C2         -4.6390    1.2380   14.7350 C.3       1 478         0.0034
      3 C3         -2.9240    2.7800   12.6580 C.2       1 478         0.3203
      4 C4         -3.3930    2.0530   14.9290 C.3       1 478         0.1134
      5 C5         -2.4950    3.1570   10.2390 C.3       1 478         0.0807
      6 C6         -3.2700    2.2460    9.2490 C.3       1 478         0.0967
      7 C7         -1.1280    3.7010    9.7720 C.3       1 478         0.0064
      8 C8         -0.4530    4.4740   10.8970 C.ar      1 478        -0.0408
      9 C9          0.6890    3.9330   11.5090 C.ar      1 478        -0.0603
     10 C10        -0.9390    5.7200   11.3510 C.ar      1 478        -0.0603
     11 C11         1.3410    4.5870   12.5630 C.ar      1 478        -0.0686
     12 C12        -0.2850    6.3630   12.4130 C.ar      1 478        -0.0686
     13 C13         0.8290    5.7990   13.0210 C.ar      1 478        -0.0687
     14 C14        -3.7390    2.9320    7.9510 C.3       1 478         0.0578
     15 C15        -6.1960    3.2670    7.7960 C.3       1 478         0.0319
     16 C16        -6.8620    2.3120    8.8180 C.3       1 478        -0.0296
     17 C17        -4.6780    5.8180    6.4790 C.ar      1 478         0.0949
     18 C18        -3.5070    5.9290    5.7220 C.ar      1 478        -0.0471
     19 C19        -3.5800    6.3140    4.3760 C.ar      1 478        -0.0429
     20 C20        -4.8250    6.5590    3.7970 C.ar      1 478         0.0353
     21 C21        -5.9830    6.4460    4.5520 C.ar      1 478        -0.0429
     22 C22        -5.9140    6.0730    5.8960 C.ar      1 478        -0.0471
     23 C23        -7.0530    2.9420   10.1890 C.3       1 478        -0.0612
     24 C24        -8.2310    1.8280    8.3490 C.3       1 478        -0.0612
     25 C25        -4.4800    0.0600   15.6950 C.3       1 478         0.0505
     26 N1         -2.2760    2.4850   11.5190 N.am      1 478        -0.2550
     27 N2         -4.8990    3.7890    8.2890 N.am      1 478        -0.2327
     28 N3         -4.9270    6.9220    2.4880 N.pl3     1 478        -0.3369
     29 O1         -2.5610    1.9330   13.7820 O.3       1 478        -0.2582
     30 O2         -3.7670    3.6550   12.7940 O.2       1 478        -0.3775
     31 O3         -2.5190    1.0630    8.9000 O.3       1 478        -0.3877
     32 O4         -3.2230    5.6300    8.4100 O.2       1 478        -0.1518
     33 O5         -5.5280    6.0800    8.8380 O.2       1 478        -0.1518
     34 O6         -3.0950    0.0100   16.0000 O.3       1 478        -0.3768
     35 S1         -4.5770    5.3690    8.0220 S.o2      1 478         0.0648
     36 H1         -2.9357    1.8114   17.0335 H         1 478         0.0589
     37 H2         -1.5730    1.4301   15.9269 H         1 478         0.0589
     38 H3         -4.7147    0.8850   13.6959 H         1 478         0.0316
     39 H4         -5.5325    1.8277   14.9880 H         1 478         0.0316
     40 H5         -3.6220    3.1055   15.1519 H         1 478         0.0671
     41 H6         -3.1406    4.0293   10.4187 H         1 478         0.0604
     42 H7         -4.1755    1.9175    9.7802 H         1 478         0.0634
     43 H8         -1.2786    4.3700    8.9119 H         1 478         0.0449
     44 H9         -0.4854    2.8594    9.4739 H         1 478         0.0449
     45 H10         1.0767    2.9840   11.1567 H         1 478         0.0557
     46 H11        -1.8062    6.1738   10.8850 H         1 478         0.0557
     47 H12         2.2282    4.1574   13.0140 H         1 478         0.0599
     48 H13        -0.6565    7.3184   12.7656 H         1 478         0.0599
     49 H14         1.3021    6.3039   13.8554 H         1 478         0.0559
     50 H15        -4.0364    2.1731    7.2124 H         1 478         0.0504
     51 H16        -2.9263    3.5474    7.5376 H         1 478         0.0504
     52 H17        -6.8719    4.1143    7.6086 H         1 478         0.0480
     53 H18        -6.0250    2.7197    6.8573 H         1 478         0.0480
     54 H19        -6.2023    1.4387    8.9281 H         1 478         0.0311
     55 H20        -2.5452    5.7178    6.1752 H         1 478         0.0602
     56 H21        -2.6749    6.4206    3.7891 H         1 478         0.0515
     57 H22        -6.9458    6.6481    4.0968 H         1 478         0.0515
     58 H23        -6.8211    5.9826    6.4826 H         1 478         0.0602
     59 H24        -7.5283    2.2147   10.8637 H         1 478         0.0233
     60 H25        -7.6943    3.8311   10.0979 H         1 478         0.0233
     61 H26        -6.0747    3.2358   10.5971 H         1 478         0.0233
     62 H27        -8.1355    1.3638    7.3563 H         1 478         0.0233
     63 H28        -8.9213    2.6823    8.2894 H         1 478         0.0233
     64 H29        -8.6231    1.0889    9.0631 H         1 478         0.0233
     65 H30        -4.8026   -0.8752   15.2141 H         1 478         0.0561
     66 H31        -5.0700    0.2251   16.6086 H         1 478         0.0561
     67 H32        -1.5950    1.7533   11.5486 H         1 478         0.1873
     68 H33        -4.0787    7.0113    1.9107 H         1 478         0.1719
     69 H34        -5.8525    7.1071    2.0755 H         1 478         0.1719
     70 H35        -1.7672    1.3101    8.3745 H         1 478         0.2100
@<TRIPOS>BOND
     1    4    1 1  
     2    1   34 1  
     3    4    2 1  
     4    2   25 1  
     5   26    3 am 
     6    3   29 1  
     7    3   30 2  
     8   29    4 1  
     9    6    5 1  
    10    5    7 1  
    11    5   26 1  
    12   14    6 1  
    13    6   31 1  
    14    7    8 1  
    15    8    9 ar 
    16    8   10 ar 
    17    9   11 ar 
    18   10   12 ar 
    19   11   13 ar 
    20   12   13 ar 
    21   27   14 1  
    22   15   16 1  
    23   27   15 1  
    24   16   23 1  
    25   16   24 1  
    26   17   18 ar 
    27   17   22 ar 
    28   35   17 1  
    29   18   19 ar 
    30   19   20 ar 
    31   21   20 ar 
    32   20   28 1  
    33   22   21 ar 
    34   25   34 1  
    35   27   35 am 
    36   35   32 2  
    37   35   33 2  
    38    1   36 1  
    39    1   37 1  
    40    2   38 1  
    41    2   39 1  
    42    4   40 1  
    43    5   41 1  
    44    6   42 1  
    45    7   43 1  
    46    7   44 1  
    47    9   45 1  
    48   10   46 1  
    49   11   47 1  
    50   12   48 1  
    51   13   49 1  
    52   14   50 1  
    53   14   51 1  
    54   15   52 1  
    55   15   53 1  
    56   16   54 1  
    57   18   55 1  
    58   19   56 1  
    59   21   57 1  
    60   22   58 1  
    61   23   59 1  
    62   23   60 1  
    63   23   61 1  
    64   24   62 1  
    65   24   63 1  
    66   24   64 1  
    67   25   65 1  
    68   25   66 1  
    69   26   67 1  
    70   28   68 1  
    71   28   69 1  
    72   31   70 1  
@<TRIPOS>SUBSTRUCTURE
     1 478         1

