### 
### Created by X-TOOL on Mon Sep 10 21:13:06 2018
### 

@<TRIPOS>MOLECULE
3smq_ligand
   39    41     1     0     0
SMALL
GAST_HUCK


@<TRIPOS>ATOM
      1 OAA         3.0980   -4.5800   12.0230 O.2       1 TDU        -0.3890
      2 CAB         5.0630   -6.2080    6.9110 C.2       1 TDU        -0.0955
      3 CAC        -0.8350   -4.8290   13.5660 C.ar      1 TDU        -0.0377
      4 CAD        -1.2720   -5.2010   14.8350 C.ar      1 TDU        -0.0464
      5 CAE         1.3850   -5.5820   14.0960 C.ar      1 TDU        -0.0188
      6 CAF         6.2640   -6.4890    6.2600 C.2       1 TDU        -0.0984
      7 CAG         7.3630   -5.4440    6.5670 C.3       1 TDU        -0.0363
      8 CAH         6.8700   -3.9940    6.7030 C.3       1 TDU        -0.0446
      9 CAI         3.2780   -3.9240    9.3750 C.3       1 TDU         0.0337
     10 CAJ         5.7460   -3.8830    7.7470 C.3       1 TDU        -0.0420
     11 CAK         3.3460   -4.9480    8.2400 C.3       1 TDU        -0.0235
     12 NAL         0.3250   -6.6670   17.6510 N.2       1 TDU        -0.1340
     13 NAM        -0.6260   -6.1840   17.0100 N.2       1 TDU        -0.1775
     14 NAN         2.0290   -4.1700   10.1110 N.am      1 TDU        -0.2671
     15 NAO         0.8270   -4.6470   11.9500 N.am      1 TDU        -0.2163
     16 SAP         1.6630   -6.6310   16.7100 S.3       1 TDU         0.0479
     17 CAQ         4.7380   -5.0380    7.6110 C.3       1 TDU        -0.0226
     18 CAR         2.0390   -4.4890   11.3990 C.2       1 TDU         0.2902
     19 CAS         0.4960   -5.0080   13.1920 C.ar      1 TDU         0.0692
     20 CAT        -0.3900   -5.7680   15.7440 C.ar      1 TDU         0.0848
     21 CAU         0.9350   -5.9420   15.3610 C.ar      1 TDU         0.0612
     22 H1          4.2959   -6.9800    6.8712 H         1 TDU         0.0453
     23 H2         -1.5367   -4.3960   12.8622 H         1 TDU         0.0487
     24 H3         -2.3079   -5.0466   15.1145 H         1 TDU         0.0631
     25 H4          2.4192   -5.7469   13.8161 H         1 TDU         0.0460
     26 H5          6.4119   -7.3486    5.6079 H         1 TDU         0.0450
     27 H6          8.1009   -5.4771    5.7519 H         1 TDU         0.0388
     28 H7          7.8479   -5.7283    7.5125 H         1 TDU         0.0388
     29 H8          6.4899   -3.6516    5.7292 H         1 TDU         0.0286
     30 H9          7.7114   -3.3568    7.0129 H         1 TDU         0.0286
     31 H10         3.2773   -2.9043    8.9626 H         1 TDU         0.0519
     32 H11         4.1409   -4.0477   10.0459 H         1 TDU         0.0519
     33 H12         5.2181   -2.9285    7.6046 H         1 TDU         0.0289
     34 H13         6.1884   -3.9107    8.7537 H         1 TDU         0.0289
     35 H14         2.6255   -4.6587    7.4608 H         1 TDU         0.0307
     36 H15         3.0759   -5.9362    8.6405 H         1 TDU         0.0307
     37 H16         1.1547   -4.0954    9.6314 H         1 TDU         0.1853
     38 H17         0.0556   -4.4676   11.3394 H         1 TDU         0.2293
     39 H18         4.3552   -4.5844    6.6849 H         1 TDU         0.0424
@<TRIPOS>BOND
     1   18    1 2  
     2    2    6 2  
     3   17    2 1  
     4    3    4 ar 
     5   19    3 ar 
     6    4   20 ar 
     7   19    5 ar 
     8    5   21 ar 
     9    6    7 1  
    10    8    7 1  
    11   10    8 1  
    12    9   11 1  
    13   14    9 1  
    14   17   10 1  
    15   11   17 1  
    16   13   12 2  
    17   12   16 1  
    18   20   13 1  
    19   18   14 am 
    20   15   18 am 
    21   15   19 1  
    22   16   21 1  
    23   20   21 ar 
    24    2   22 1  
    25    3   23 1  
    26    4   24 1  
    27    5   25 1  
    28    6   26 1  
    29    7   27 1  
    30    7   28 1  
    31    8   29 1  
    32    8   30 1  
    33    9   31 1  
    34    9   32 1  
    35   10   33 1  
    36   10   34 1  
    37   11   35 1  
    38   11   36 1  
    39   14   37 1  
    40   15   38 1  
    41   17   39 1  
@<TRIPOS>SUBSTRUCTURE
     1 TDU         1

