### 
### Created by X-TOOL on Mon Sep 10 21:13:08 2018
### 

@<TRIPOS>MOLECULE
3sn7_ligand
   42    45     1     0     0
SMALL
GAST_HUCK


@<TRIPOS>ATOM
      1 C1         17.4080  -11.0410  -35.1670 C.3       1 540        -0.0235
      2 F1         20.4070  -10.0460  -38.9650 F         1 540        -0.1906
      3 N1         17.7320   -7.2280  -34.9590 N.ar      1 540        -0.3078
      4 O1         22.7030  -14.2690  -37.9940 O.3       1 540        -0.3229
      5 C2         18.0160   -9.6870  -34.8110 C.ar      1 540        -0.0063
      6 N2         20.1100  -10.8650  -32.3660 N.2       1 540        -0.3043
      7 C3         17.2700   -8.5170  -35.2270 C.ar      1 540         0.0110
      8 N3         20.6080  -11.5370  -34.3870 N.pl3     1 540        -0.1973
      9 C4         18.9230   -7.0220  -34.2070 C.ar      1 540         0.0023
     10 N4         22.0960  -13.9040  -35.2640 N.2       1 540        -0.3143
     11 C5         19.7460   -8.0930  -33.7210 C.ar      1 540        -0.0299
     12 C6         19.2770   -9.4380  -34.0550 C.ar      1 540         0.0470
     13 C7         20.0080  -10.6190  -33.6240 C.2       1 540         0.1592
     14 C8         20.7930  -12.0610  -32.1760 C.2       1 540         0.0248
     15 C9         21.1330  -12.5230  -33.4480 C.2       1 540         0.1286
     16 C10        20.8610  -11.7240  -35.8030 C.ar      1 540         0.1067
     17 C11        20.4660  -10.8150  -36.7750 C.ar      1 540        -0.0057
     18 C12        20.7930  -11.0110  -38.1280 C.ar      1 540         0.1168
     19 C13        21.5180  -12.1570  -38.6050 C.ar      1 540        -0.0078
     20 C14        21.9580  -13.1630  -37.6350 C.ar      1 540         0.1029
     21 C15        21.6410  -12.9440  -36.2170 C.ar      1 540         0.0812
     22 C16        21.8860  -13.7030  -33.9740 C.2       1 540         0.0488
     23 C17        22.4060  -14.7110  -33.0680 C.3       1 540        -0.0086
     24 C18        23.1510  -14.3620  -39.3610 C.3       1 540         0.0590
     25 C19        21.1010  -12.5790  -30.7960 C.3       1 540        -0.0283
     26 H1         16.4748  -10.8876  -35.7288 H         1 540         0.0414
     27 H2         17.1929  -11.6003  -34.2446 H         1 540         0.0414
     28 H3         18.1180  -11.6109  -35.7843 H         1 540         0.0414
     29 H4         16.3335   -8.6456  -35.7575 H         1 540         0.0753
     30 H5         19.2241   -6.0035  -33.9901 H         1 540         0.0758
     31 H6         20.6494   -7.9179  -33.1481 H         1 540         0.0692
     32 H7         19.8959   -9.9395  -36.4858 H         1 540         0.0463
     33 H8         21.7347  -12.2744  -39.6606 H         1 540         0.0465
     34 H9         22.1679  -14.4301  -32.0314 H         1 540         0.0454
     35 H10        23.4972  -14.7831  -33.1869 H         1 540         0.0454
     36 H11        21.9469  -15.6835  -33.2990 H         1 540         0.0454
     37 H12        23.7275  -15.2891  -39.4956 H         1 540         0.0578
     38 H13        23.7875  -13.4967  -39.5980 H         1 540         0.0578
     39 H14        22.2799  -14.3712  -40.0326 H         1 540         0.0578
     40 H15        21.6435  -13.5327  -30.8750 H         1 540         0.0375
     41 H16        20.1619  -12.7359  -30.2452 H         1 540         0.0375
     42 H17        21.7227  -11.8469  -30.2598 H         1 540         0.0375
@<TRIPOS>BOND
     1    5    1 1  
     2   18    2 1  
     3    7    3 ar 
     4    9    3 ar 
     5   20    4 1  
     6    4   24 1  
     7    5    7 ar 
     8   12    5 ar 
     9   13    6 2  
    10   14    6 1  
    11    8   13 1  
    12    8   15 1  
    13   16    8 1  
    14   11    9 ar 
    15   21   10 1  
    16   10   22 2  
    17   12   11 ar 
    18   13   12 1  
    19   15   14 2  
    20   14   25 1  
    21   15   22 1  
    22   17   16 ar 
    23   16   21 ar 
    24   18   17 ar 
    25   19   18 ar 
    26   19   20 ar 
    27   20   21 ar 
    28   22   23 1  
    29    1   26 1  
    30    1   27 1  
    31    1   28 1  
    32    7   29 1  
    33    9   30 1  
    34   11   31 1  
    35   17   32 1  
    36   19   33 1  
    37   23   34 1  
    38   23   35 1  
    39   23   36 1  
    40   24   37 1  
    41   24   38 1  
    42   24   39 1  
    43   25   40 1  
    44   25   41 1  
    45   25   42 1  
@<TRIPOS>SUBSTRUCTURE
     1 540         1

