### 
### Created by X-TOOL on Mon Sep 10 21:13:07 2018
### 

@<TRIPOS>MOLECULE
3sn8_ligand
   60    62     1     0     0
SMALL
GAST_HUCK


@<TRIPOS>ATOM
      1 CAZ        16.7550    1.1700   23.0170 C.2       1 S89         0.1803
      2 OAB        15.6770    1.1720   22.4280 O.2       1 S89        -0.3967
      3 CAE        17.1540    2.2940   23.9610 C.3       1 S89         0.0470
      4 CAF        17.1340    3.6520   23.2900 C.3       1 S89        -0.0022
      5 CBB        17.0380    4.8060   24.2620 C.ar      1 S89        -0.0408
      6 CAP        16.7600    4.6000   25.6120 C.ar      1 S89        -0.0602
      7 CAJ        16.6880    5.7020   26.4640 C.ar      1 S89        -0.0686
      8 CAG        16.8720    7.0020   25.9860 C.ar      1 S89        -0.0687
      9 CAK        17.1480    7.2030   24.6380 C.ar      1 S89        -0.0686
     10 CAQ        17.2260    6.1080   23.7740 C.ar      1 S89        -0.0602
     11 NAY        17.6450    0.1720   22.8700 N.am      1 S89        -0.2637
     12 CBF        17.3100   -0.9730   22.0310 C.3       1 S89         0.1404
     13 CBA        16.7340   -1.9350   23.0280 C.2       1 S89         0.2061
     14 OAC        17.4100   -2.8660   23.4690 O.2       1 S89        -0.3942
     15 CAW        18.6110   -1.5010   21.4550 C.3       1 S89         0.0214
     16 CBD        18.8590   -0.7340   20.1920 C.ar      1 S89        -0.0386
     17 CAU        18.1810   -1.0860   19.0220 C.ar      1 S89        -0.0601
     18 CAT        19.7680    0.3370   20.2060 C.ar      1 S89        -0.0601
     19 CAO        18.4090   -0.3670   17.8560 C.ar      1 S89        -0.0686
     20 CAN        20.0150    1.0550   19.0410 C.ar      1 S89        -0.0686
     21 CAI        19.3310    0.6910   17.8720 C.ar      1 S89        -0.0687
     22 N          15.4800   -1.6410   23.4110 N.am      1 S89        -0.2631
     23 CA         14.7190   -2.3680   24.4270 C.3       1 S89         0.1223
     24 C          14.4120   -3.8170   24.0690 C.2       1 S89         0.1265
     25 O          13.9420   -4.5450   24.9570 O.2       1 S89        -0.3723
     26 CB         13.4170   -1.5400   24.5430 C.3       1 S89         0.0201
     27 CG         13.4260   -0.1830   25.2440 C.ar      1 S89        -0.0385
     28 CD1        12.2190    0.5500   25.2440 C.ar      1 S89        -0.0601
     29 CD2        14.5490    0.3330   25.9000 C.ar      1 S89        -0.0601
     30 CE1        12.1390    1.7800   25.9010 C.ar      1 S89        -0.0686
     31 CE2        14.4830    1.5800   26.5440 C.ar      1 S89        -0.0686
     32 CZ         13.2720    2.2940   26.5430 C.ar      1 S89        -0.0687
     33 H          18.1720    2.1021   24.3001 H         1 S89         0.0525
     34 H          16.4363    2.3142   24.7812 H         1 S89         0.0525
     35 H          16.2513    3.6881   22.6516 H         1 S89         0.0451
     36 H          18.0716    3.7610   22.7448 H         1 S89         0.0451
     37 H          16.6012    3.5925   25.9964 H         1 S89         0.0557
     38 H          16.4842    5.5460   27.5234 H         1 S89         0.0599
     39 H          16.7998    7.8520   26.6645 H         1 S89         0.0559
     40 H          17.3031    8.2122   24.2565 H         1 S89         0.0599
     41 H          17.4339    6.2658   22.7157 H         1 S89         0.0557
     42 H          18.5481    0.2158   23.3422 H         1 S89         0.1884
     43 H          16.6315   -0.7761   21.2009 H         1 S89         0.0823
     44 H          18.5440   -2.5705   21.2555 H         1 S89         0.0474
     45 H          19.4320   -1.3687   22.1596 H         1 S89         0.0474
     46 H          17.4781   -1.9191   19.0245 H         1 S89         0.0557
     47 H          20.2798    0.6053   21.1302 H         1 S89         0.0557
     48 H          17.8779   -0.6215   16.9388 H         1 S89         0.0599
     49 H          20.7245    1.8824   19.0365 H         1 S89         0.0599
     50 H          19.5204    1.2441   16.9521 H         1 S89         0.0559
     51 H          15.0232   -0.8494   22.9581 H         1 S89         0.1886
     52 H          15.2859   -2.4561   25.3538 H         1 S89         0.0814
     53 H          14.5991   -4.2011   23.0662 H         1 S89         0.1375
     54 H          12.7591   -2.1561   25.1560 H         1 S89         0.0475
     55 H          13.1513   -1.3091   23.5114 H         1 S89         0.0475
     56 H          11.3445    0.1535   24.7282 H         1 S89         0.0557
     57 H          15.4792   -0.2350   25.9115 H         1 S89         0.0557
     58 H          11.2013    2.3356   25.9138 H         1 S89         0.0599
     59 H          15.3628    1.9901   27.0399 H         1 S89         0.0599
     60 H          13.2145    3.2584   27.0476 H         1 S89         0.0559
@<TRIPOS>BOND
     1    1    2 2  
     2    1    3 1  
     3    1   11 am 
     4    3    4 1  
     5    4    5 1  
     6    5    6 ar 
     7    5   10 ar 
     8    6    7 ar 
     9    7    8 ar 
    10    8    9 ar 
    11    9   10 ar 
    12   11   12 1  
    13   12   13 1  
    14   12   15 1  
    15   13   14 2  
    16   13   22 am 
    17   15   16 1  
    18   16   17 ar 
    19   16   18 ar 
    20   17   19 ar 
    21   18   20 ar 
    22   19   21 ar 
    23   20   21 ar 
    24   22   23 1  
    25   23   24 1  
    26   23   26 1  
    27   24   25 2  
    28   26   27 1  
    29   27   28 ar 
    30   27   29 ar 
    31   28   30 ar 
    32   29   31 ar 
    33   30   32 ar 
    34   31   32 ar 
    35    3   33 1  
    36    3   34 1  
    37    4   35 1  
    38    4   36 1  
    39    6   37 1  
    40    7   38 1  
    41    8   39 1  
    42    9   40 1  
    43   10   41 1  
    44   11   42 1  
    45   12   43 1  
    46   15   44 1  
    47   15   45 1  
    48   17   46 1  
    49   18   47 1  
    50   19   48 1  
    51   20   49 1  
    52   21   50 1  
    53   22   51 1  
    54   23   52 1  
    55   24   53 1  
    56   26   54 1  
    57   26   55 1  
    58   28   56 1  
    59   29   57 1  
    60   30   58 1  
    61   31   59 1  
    62   32   60 1  
@<TRIPOS>SUBSTRUCTURE
     1 S89         1

