### 
### Created by X-TOOL on Mon Sep 10 21:13:06 2018
### 

@<TRIPOS>MOLECULE
3sna_ligand
   82    82     1     0     0
SMALL
GAST_HUCK


@<TRIPOS>ATOM
      1 C          21.4660   10.7070   22.9990 C.2       1 ACE         0.1752
      2 O          20.5050   11.0540   23.6850 O.2       1 ACE        -0.3972
      3 CH3        22.5050   11.7020   22.5310 C.3       1 ACE         0.0258
      4 N          21.6380    9.4180   22.6660 N.am      1 ASN        -0.2637
      5 CA         21.3180    8.9060   21.3260 C.3       1 ASN         0.1475
      6 C          20.8280    7.4470   21.2800 C.2       1 ASN         0.2063
      7 O          21.4600    6.5640   21.8750 O.2       1 ASN        -0.3942
      8 CB         22.5170    9.0820   20.3940 C.3       1 ASN         0.0773
      9 CG         22.1210    9.6580   19.0710 C.2       1 ASN         0.1780
     10 OD1        21.8720   10.8610   18.9480 O.2       1 ASN        -0.3970
     11 ND2        22.0360    8.8030   18.0700 N.am      1 ASN        -0.3007
     12 N          19.7170    7.2230   20.5570 N.am      1 SER        -0.2614
     13 CA         19.0130    5.9210   20.4270 C.3       1 SER         0.1539
     14 C          18.8320    5.1250   21.7540 C.2       1 SER         0.2063
     15 O          19.1890    5.6330   22.8270 O.2       1 SER        -0.3943
     16 CB         19.6410    5.0720   19.3160 C.3       1 SER         0.0843
     17 OG         18.8400    3.9320   19.0820 O.3       1 SER        -0.3903
     18 N          18.2500    3.9130   21.6720 N.am      1 PHE        -0.2619
     19 CA         18.0230    2.9710   22.8290 C.3       1 PHE         0.1404
     20 C          17.5400    1.5720   22.3520 C.2       1 PHE         0.2060
     21 O          16.3250    1.3020   22.3120 O.2       1 PHE        -0.3942
     22 CB         16.9940    3.5110   23.8590 C.3       1 PHE         0.0214
     23 CG         17.5890    4.2890   25.0040 C.ar      1 PHE        -0.0386
     24 CD1        17.4510    5.6820   25.0610 C.ar      1 PHE        -0.0601
     25 CD2        18.2450    3.6350   26.0440 C.ar      1 PHE        -0.0601
     26 CE1        17.9940    6.4200   26.1190 C.ar      1 PHE        -0.0686
     27 CE2        18.7910    4.3630   27.1210 C.ar      1 PHE        -0.0686
     28 CZ         18.6650    5.7590   27.1570 C.ar      1 PHE        -0.0687
     29 N          18.4770    0.6870   21.9990 N.am      1 SER        -0.2614
     30 CA         18.1160   -0.6510   21.5020 C.3       1 SER         0.1538
     31 C          17.6120   -1.5890   22.6120 C.2       1 SER         0.2043
     32 O          18.3930   -2.0740   23.4370 O.2       1 SER        -0.3944
     33 CB         19.2730   -1.2860   20.7110 C.3       1 SER         0.0843
     34 OG         19.2330   -0.9460   19.3270 O.3       1 SER        -0.3903
     35 C          14.9440   -3.5150   23.9570 C.3       1 ECC         0.0673
     36 N          16.4530   -1.8300   23.0760 N.am      1 ECC        -0.2796
     37 O          14.3440   -3.9630   25.1760 O.3       1 ECC        -0.3927
     38 CA         15.4150   -2.0680   24.0760 C.3       1 ECC         0.0672
     39 CB         14.2570   -1.0920   23.8480 C.3       1 ECC        -0.0108
     40 CD         12.7910    0.6050   24.9490 C.2       1 ECC         0.1736
     41 CG         14.1680   -0.0160   24.9280 C.3       1 ECC         0.0392
     42 OE1        12.1970    0.8160   23.9130 O.2       1 ECC        -0.3973
     43 NE2        12.2730    0.9110   26.1300 N.am      1 ECC        -0.3009
     44 H          22.0252   12.4655   21.9186 H         1 ACE         0.0467
     45 H          22.9736   12.1703   23.3966 H         1 ACE         0.0467
     46 H          23.2622   11.1847   21.9418 H         1 ACE         0.0467
     47 H          22.0029    8.7724   23.3663 H         1 ASN         0.1884
     48 H          20.4719    9.5050   20.9892 H         1 ASN         0.0826
     49 H          22.9590    8.1011   20.2194 H         1 ASN         0.0551
     50 H          23.2183    9.7688   20.8679 H         1 ASN         0.0551
     51 H          21.7542    9.1272   17.1449 H         1 ASN         0.1814
     52 H          22.2521    7.8177   18.2212 H         1 ASN         0.1814
     53 H          19.3224    8.0172   20.0530 H         1 SER         0.1884
     54 H          17.9914    6.1720   20.1415 H         1 SER         0.0823
     55 H          20.6393    4.7575   19.6204 H         1 SER         0.0606
     56 H          19.7073    5.6623   18.4021 H         1 SER         0.0606
     57 H          19.2352    3.4020   18.3860 H         1 SER         0.2097
     58 H          17.9366    3.6063   20.7511 H         1 PHE         0.1885
     59 H          18.9955    2.8856   23.3137 H         1 PHE         0.0823
     60 H          16.4969    2.6431   24.2924 H         1 PHE         0.0474
     61 H          16.3383    4.1951   23.3203 H         1 PHE         0.0474
     62 H          16.9116    6.1998   24.2679 H         1 PHE         0.0557
     63 H          18.3373    2.5491   26.0252 H         1 PHE         0.0557
     64 H          17.8954    7.5054   26.1357 H         1 PHE         0.0599
     65 H          19.3105    3.8411   27.9247 H         1 PHE         0.0599
     66 H          19.0861    6.3265   27.9868 H         1 PHE         0.0559
     67 H          19.4613    0.9434   22.0754 H         1 SER         0.1884
     68 H          17.2780   -0.5087   20.8196 H         1 SER         0.0823
     69 H          19.1862   -2.3692   20.7958 H         1 SER         0.0606
     70 H          20.2100   -0.9125   21.1240 H         1 SER         0.0606
     71 H          19.9704   -1.3624   18.8749 H         1 SER         0.2097
     72 H          14.2027   -3.5762   23.1602 H         1 ECC         0.0580
     73 H          15.8061   -4.1458   23.7400 H         1 ECC         0.0580
     74 H          15.9113   -1.9018   22.2147 H         1 ECC         0.1855
     75 H          14.0573   -4.8735   25.0745 H         1 ECC         0.2095
     76 H          15.8054   -1.9051   25.0806 H         1 ECC         0.0580
     77 H          13.3294   -1.6640   23.8696 H         1 ECC         0.0313
     78 H          14.4240   -0.5934   22.8932 H         1 ECC         0.0313
     79 H          14.9021    0.7607   24.7136 H         1 ECC         0.0503
     80 H          14.3639   -0.4727   25.8981 H         1 ECC         0.0503
     81 H          11.3480    1.3373   26.1862 H         1 ECC         0.1814
     82 H          12.7993    0.7202   26.9826 H         1 ECC         0.1814
@<TRIPOS>BOND
     1    1    2 2  
     2    1    3 1  
     3    4    1 am 
     4    5    4 1  
     5    6    5 1  
     6    5    8 1  
     7    6    7 2  
     8   12    6 am 
     9    8    9 1  
    10    9   10 2  
    11    9   11 am 
    12   13   12 1  
    13   14   13 1  
    14   13   16 1  
    15   14   15 2  
    16   18   14 am 
    17   16   17 1  
    18   19   18 1  
    19   20   19 1  
    20   19   22 1  
    21   20   21 2  
    22   29   20 am 
    23   22   23 1  
    24   23   24 ar 
    25   23   25 ar 
    26   24   26 ar 
    27   25   27 ar 
    28   26   28 ar 
    29   27   28 ar 
    30   30   29 1  
    31   31   30 1  
    32   30   33 1  
    33   31   32 2  
    34   36   31 am 
    35   33   34 1  
    36   35   37 1  
    37   38   35 1  
    38   36   38 1  
    39   38   39 1  
    40   39   41 1  
    41   41   40 1  
    42   40   42 2  
    43   40   43 am 
    44    3   44 1  
    45    3   45 1  
    46    3   46 1  
    47    4   47 1  
    48    5   48 1  
    49    8   49 1  
    50    8   50 1  
    51   11   51 1  
    52   11   52 1  
    53   12   53 1  
    54   13   54 1  
    55   16   55 1  
    56   16   56 1  
    57   17   57 1  
    58   18   58 1  
    59   19   59 1  
    60   22   60 1  
    61   22   61 1  
    62   24   62 1  
    63   25   63 1  
    64   26   64 1  
    65   27   65 1  
    66   28   66 1  
    67   29   67 1  
    68   30   68 1  
    69   33   69 1  
    70   33   70 1  
    71   34   71 1  
    72   35   72 1  
    73   35   73 1  
    74   36   74 1  
    75   37   75 1  
    76   38   76 1  
    77   39   77 1  
    78   39   78 1  
    79   41   79 1  
    80   41   80 1  
    81   43   81 1  
    82   43   82 1  
@<TRIPOS>SUBSTRUCTURE
     1 ACE         1

