### 
### Created by X-TOOL on Mon Sep 10 21:13:07 2018
### 

@<TRIPOS>MOLECULE
3snc_ligand
   76    75     1     0     0
SMALL
GAST_HUCK


@<TRIPOS>ATOM
      1 C          29.4170   51.4660   -6.1850 C.2       1 ACE         0.1752
      2 O          28.5910   51.9920   -6.9480 O.2       1 ACE        -0.3972
      3 CH3        30.7210   52.1430   -5.8340 C.3       1 ACE         0.0258
      4 N          29.0960   50.4700   -5.4140 N.am      1 ASN        -0.2637
      5 CA         28.8550   49.1030   -5.9060 C.3       1 ASN         0.1475
      6 C          27.4240   48.6070   -5.5590 C.2       1 ASN         0.2063
      7 O          26.5300   49.4290   -5.3160 O.2       1 ASN        -0.3942
      8 CB         29.9600   48.1280   -5.4120 C.3       1 ASN         0.0773
      9 CG         31.3720   48.4580   -5.9740 C.2       1 ASN         0.1780
     10 OD1        32.3460   48.5540   -5.2200 O.2       1 ASN        -0.3970
     11 ND2        31.4760   48.6050   -7.2880 N.am      1 ASN        -0.3007
     12 N          27.2070   47.2830   -5.5490 N.am      1 SER        -0.2614
     13 CA         25.8810   46.6820   -5.2330 C.3       1 SER         0.1539
     14 C          25.9430   45.3800   -4.3960 C.2       1 SER         0.2063
     15 O          26.9250   44.6200   -4.4820 O.2       1 SER        -0.3943
     16 CB         25.0650   46.4590   -6.5150 C.3       1 SER         0.0843
     17 OG         25.9040   46.1970   -7.6260 O.3       1 SER        -0.3903
     18 N          24.8980   45.1450   -3.5870 N.am      1 THR        -0.2613
     19 CA         24.7420   43.8910   -2.8200 C.3       1 THR         0.1565
     20 C          24.0850   42.7690   -3.6460 C.2       1 THR         0.2065
     21 O          22.8720   42.7930   -3.8880 O.2       1 THR        -0.3943
     22 CB         23.8960   44.0620   -1.5000 C.3       1 THR         0.0924
     23 OG1        24.1650   45.3220   -0.8790 O.3       1 THR        -0.3874
     24 CG2        24.1800   42.9180   -0.5020 C.3       1 THR        -0.0346
     25 N          24.8950   41.7910   -4.0600 N.am      1 SER        -0.2615
     26 CA         24.3990   40.4950   -4.5530 C.3       1 SER         0.1538
     27 C          23.6190   39.7820   -3.4450 C.2       1 SER         0.2043
     28 O          24.2060   39.4070   -2.4100 O.2       1 SER        -0.3944
     29 CB         25.5660   39.5990   -4.9920 C.3       1 SER         0.0843
     30 OG         26.2940   40.1680   -6.0680 O.3       1 SER        -0.3903
     31 C          21.6000   37.6680   -2.4630 C.3       1 ECC         0.0673
     32 N          22.4180   39.9200   -3.0350 N.am      1 ECC        -0.2796
     33 O          21.1160   36.8180   -1.4160 O.3       1 ECC        -0.3927
     34 CA         21.7060   39.1350   -2.0100 C.3       1 ECC         0.0672
     35 CB         20.3330   39.7160   -1.6930 C.3       1 ECC        -0.0108
     36 CD         19.1770   41.8000   -1.0720 C.2       1 ECC         0.1736
     37 CG         20.4960   41.0760   -1.0430 C.3       1 ECC         0.0392
     38 OE1        18.4910   41.7850   -2.0900 O.2       1 ECC        -0.3973
     39 NE2        18.8480   42.4240    0.0600 N.am      1 ECC        -0.3009
     40 H          31.2982   52.3106   -6.7433 H         1 ACE         0.0467
     41 H          30.5146   53.0985   -5.3519 H         1 ACE         0.0467
     42 H          31.2879   51.5066   -5.1544 H         1 ACE         0.0467
     43 H          29.0061   50.6448   -4.4131 H         1 ASN         0.1884
     44 H          28.9127   49.1258   -6.9942 H         1 ASN         0.0826
     45 H          29.6945   47.1288   -5.7572 H         1 ASN         0.0551
     46 H          30.0108   48.2122   -4.3264 H         1 ASN         0.0551
     47 H          32.3836   48.8046   -7.7086 H         1 ASN         0.1814
     48 H          30.6484   48.5185   -7.8779 H         1 ASN         0.1814
     49 H          27.9846   46.6601   -5.7675 H         1 SER         0.1884
     50 H          25.3805   47.4126   -4.5975 H         1 SER         0.0823
     51 H          24.4919   47.3630   -6.7209 H         1 SER         0.0606
     52 H          24.4135   45.5983   -6.3640 H         1 SER         0.0606
     53 H          25.3643   46.0627   -8.4085 H         1 SER         0.2097
     54 H          24.1797   45.8636   -3.4975 H         1 THR         0.1884
     55 H          25.7648   43.6186   -2.5598 H         1 THR         0.0826
     56 H          22.8437   44.0251   -1.7820 H         1 THR         0.0639
     57 H          23.6395   45.4022   -0.0796 H         1 THR         0.2101
     58 H          23.9200   41.9642   -0.9611 H         1 THR         0.0257
     59 H          25.2381   42.9203   -0.2402 H         1 THR         0.0257
     60 H          23.5816   43.0650    0.3971 H         1 THR         0.0257
     61 H          25.9024   41.9489   -4.0335 H         1 SER         0.1884
     62 H          23.7490   40.6822   -5.4077 H         1 SER         0.0823
     63 H          25.1579   38.6439   -5.3227 H         1 SER         0.0606
     64 H          26.2431   39.4807   -4.1460 H         1 SER         0.0606
     65 H          27.0126   39.5804   -6.3128 H         1 SER         0.2097
     66 H          20.8982   37.6177   -3.2955 H         1 ECC         0.0580
     67 H          22.5950   37.3260   -2.7479 H         1 ECC         0.0580
     68 H          21.8822   40.6695   -3.4727 H         1 ECC         0.1855
     69 H          21.0643   35.9147   -1.7369 H         1 ECC         0.2095
     70 H          22.2817   39.1818   -1.0856 H         1 ECC         0.0580
     71 H          19.8053   39.0489   -1.0113 H         1 ECC         0.0313
     72 H          19.7616   39.8208   -2.6153 H         1 ECC         0.0313
     73 H          21.2426   41.6543   -1.5873 H         1 ECC         0.0503
     74 H          20.8219   40.9511   -0.0104 H         1 ECC         0.0503
     75 H          17.9688   42.9374    0.1224 H         1 ECC         0.1814
     76 H          19.4756   42.3878    0.8633 H         1 ECC         0.1814
@<TRIPOS>BOND
     1    1    2 2  
     2    1    3 1  
     3    4    1 am 
     4    5    4 1  
     5    6    5 1  
     6    5    8 1  
     7    6    7 2  
     8   12    6 am 
     9    8    9 1  
    10    9   10 2  
    11    9   11 am 
    12   13   12 1  
    13   14   13 1  
    14   13   16 1  
    15   14   15 2  
    16   18   14 am 
    17   16   17 1  
    18   19   18 1  
    19   20   19 1  
    20   19   22 1  
    21   20   21 2  
    22   25   20 am 
    23   22   23 1  
    24   22   24 1  
    25   26   25 1  
    26   27   26 1  
    27   26   29 1  
    28   27   28 2  
    29   32   27 am 
    30   29   30 1  
    31   31   33 1  
    32   34   31 1  
    33   32   34 1  
    34   34   35 1  
    35   35   37 1  
    36   37   36 1  
    37   36   38 2  
    38   36   39 am 
    39    3   40 1  
    40    3   41 1  
    41    3   42 1  
    42    4   43 1  
    43    5   44 1  
    44    8   45 1  
    45    8   46 1  
    46   11   47 1  
    47   11   48 1  
    48   12   49 1  
    49   13   50 1  
    50   16   51 1  
    51   16   52 1  
    52   17   53 1  
    53   18   54 1  
    54   19   55 1  
    55   22   56 1  
    56   23   57 1  
    57   24   58 1  
    58   24   59 1  
    59   24   60 1  
    60   25   61 1  
    61   26   62 1  
    62   29   63 1  
    63   29   64 1  
    64   30   65 1  
    65   31   66 1  
    66   31   67 1  
    67   32   68 1  
    68   33   69 1  
    69   34   70 1  
    70   35   71 1  
    71   35   72 1  
    72   37   73 1  
    73   37   74 1  
    74   39   75 1  
    75   39   76 1  
@<TRIPOS>SUBSTRUCTURE
     1 ACE         1

