### 
### Created by X-TOOL on Mon Sep 10 21:13:06 2018
### 

@<TRIPOS>MOLECULE
3snd_ligand
   41    40     1     0     0
SMALL
GAST_HUCK


@<TRIPOS>ATOM
      1 N         -17.3060  -30.9410    5.4030 N.4       1 LEU         0.2379
      2 CA        -17.9530  -30.0670    6.4930 C.3       1 LEU         0.0651
      3 C         -17.0460  -28.9820    7.1200 C.2       1 LEU         0.2248
      4 O         -16.5350  -29.0330    8.2720 O.2       1 LEU        -0.3909
      5 CB        -18.6260  -30.9160    7.5850 C.3       1 LEU         0.0102
      6 CG        -19.9320  -30.3270    8.1780 C.3       1 LEU        -0.0394
      7 CD1       -21.1280  -30.4290    7.1740 C.3       1 LEU        -0.0623
      8 CD2       -20.3300  -30.9150    9.5430 C.3       1 LEU        -0.0623
      9 C         -15.4050  -26.0990    7.1100 C.3       1 ECC         0.0673
     10 N         -16.3340  -28.2700    6.3530 N.am      1 ECC        -0.2769
     11 O         -14.3270  -25.1510    7.0140 O.3       1 ECC        -0.3927
     12 CA        -15.1170  -27.4430    6.4340 C.3       1 ECC         0.0673
     13 CB        -14.5590  -27.3270    5.0170 C.3       1 ECC        -0.0108
     14 CD        -13.7170  -28.6830    3.0990 C.2       1 ECC         0.1736
     15 CG        -14.0290  -28.6940    4.5820 C.3       1 ECC         0.0392
     16 OE1       -14.5300  -28.2720    2.2900 O.2       1 ECC        -0.3973
     17 NE2       -12.5190  -29.1600    2.7340 N.am      1 ECC        -0.3009
     18 H         -16.8725  -30.3414    4.7009 H         1 LEU         0.2015
     19 H         -16.5964  -31.5396    5.8256 H         1 LEU         0.2015
     20 H         -18.0220  -31.5191    4.9629 H         1 LEU         0.2015
     21 H         -18.7138  -29.5078    5.9484 H         1 LEU         0.1098
     22 H         -17.9145  -30.9841    8.4079 H         1 LEU         0.0348
     23 H         -18.8963  -31.8636    7.1190 H         1 LEU         0.0348
     24 H         -19.7024  -29.2758    8.3519 H         1 LEU         0.0299
     25 H         -21.4040  -31.4755    7.0448 H         1 LEU         0.0232
     26 H         -21.9793  -29.8733    7.5673 H         1 LEU         0.0232
     27 H         -20.8309  -30.0090    6.2131 H         1 LEU         0.0232
     28 H         -21.1792  -30.3605    9.9423 H         1 LEU         0.0232
     29 H         -20.6040  -31.9628    9.4199 H         1 LEU         0.0232
     30 H         -19.4877  -30.8368   10.2304 H         1 LEU         0.0232
     31 H         -16.2657  -25.6613    6.6043 H         1 ECC         0.0580
     32 H         -15.5659  -26.2985    8.1694 H         1 ECC         0.0580
     33 H         -16.7116  -28.2681    5.4055 H         1 ECC         0.1857
     34 H         -14.1433  -24.9695    6.0893 H         1 ECC         0.2095
     35 H         -14.3580  -27.9020    7.0676 H         1 ECC         0.0580
     36 H         -13.7519  -26.5947    4.9969 H         1 ECC         0.0313
     37 H         -15.3456  -27.0022    4.3359 H         1 ECC         0.0313
     38 H         -14.7861  -29.4519    4.7829 H         1 ECC         0.0503
     39 H         -13.1185  -28.9183    5.1377 H         1 ECC         0.0503
     40 H         -12.2602  -29.1881    1.7478 H         1 ECC         0.1814
     41 H         -11.8660  -29.4949    3.4424 H         1 ECC         0.1814
@<TRIPOS>BOND
     1    2    1 1  
     2    3    2 1  
     3    2    5 1  
     4    3    4 2  
     5   10    3 am 
     6    5    6 1  
     7    6    7 1  
     8    6    8 1  
     9    9   11 1  
    10   12    9 1  
    11   10   12 1  
    12   12   13 1  
    13   13   15 1  
    14   15   14 1  
    15   14   16 2  
    16   14   17 am 
    17    1   18 1  
    18    1   19 1  
    19    1   20 1  
    20    2   21 1  
    21    5   22 1  
    22    5   23 1  
    23    6   24 1  
    24    7   25 1  
    25    7   26 1  
    26    7   27 1  
    27    8   28 1  
    28    8   29 1  
    29    8   30 1  
    30    9   31 1  
    31    9   32 1  
    32   10   33 1  
    33   11   34 1  
    34   12   35 1  
    35   13   36 1  
    36   13   37 1  
    37   15   38 1  
    38   15   39 1  
    39   17   40 1  
    40   17   41 1  
@<TRIPOS>SUBSTRUCTURE
     1 LEU         1

