### 
### Created by X-TOOL on Mon Sep 10 21:13:08 2018
### 

@<TRIPOS>MOLECULE
3sni_ligand
   41    44     1     0     0
SMALL
GAST_HUCK


@<TRIPOS>ATOM
      1 C1         17.3740  -11.1860  -34.8170 C.3       1 546        -0.0220
      2 N1         19.3420   -7.3570  -34.9590 N.ar      1 546        -0.3056
      3 O1         20.2970  -10.7660  -38.9190 O.3       1 546        -0.3059
      4 C2         18.0910   -9.8680  -34.8500 C.ar      1 546        -0.0129
      5 N2         20.1340  -10.9330  -32.3180 N.2       1 546        -0.3031
      6 C3         17.4490   -8.7800  -35.4640 C.ar      1 546        -0.0320
      7 N3         20.7830  -11.7920  -34.2550 N.pl3     1 546        -0.1824
      8 C4         18.1140   -7.5620  -35.4920 C.ar      1 546         0.0027
      9 N4         20.5120  -11.2460  -36.5840 N.ar      1 546        -0.2460
     10 C5         19.9460   -8.4170  -34.3650 C.ar      1 546         0.0160
     11 N5         22.3090  -14.0430  -34.9140 N.2       1 546        -0.3106
     12 C6         19.3740   -9.6880  -34.2830 C.ar      1 546         0.0574
     13 C7         20.0890  -10.7760  -33.6270 C.2       1 546         0.1612
     14 C8         20.8810  -12.0640  -32.0730 C.2       1 546         0.0261
     15 C9         21.2970  -12.6250  -33.2700 C.2       1 546         0.1321
     16 C10        21.0140  -12.0620  -35.6300 C.ar      1 546         0.1762
     17 C11        21.7830  -13.1990  -35.9140 C.ar      1 546         0.0677
     18 C12        22.0290  -13.4870  -37.2580 C.ar      1 546        -0.0412
     19 C13        21.5270  -12.6620  -38.2660 C.ar      1 546        -0.0139
     20 C14        20.7790  -11.5520  -37.8800 C.ar      1 546         0.1541
     21 C15        20.0090   -9.4050  -38.5940 C.3       1 546         0.0625
     22 C16        22.0820  -13.7820  -33.6570 C.2       1 546         0.0512
     23 C17        22.6650  -14.7200  -32.6360 C.3       1 546        -0.0073
     24 C18        21.1060  -12.4810  -30.6700 C.3       1 546        -0.0275
     25 H          16.4329  -11.0728  -34.2789 H         1 546         0.0425
     26 H          17.1737  -11.5148  -35.8367 H         1 546         0.0425
     27 H          17.9965  -11.9243  -34.3115 H         1 546         0.0425
     28 H          16.4583   -8.8889  -35.9053 H         1 546         0.0645
     29 H          17.6175   -6.7189  -35.9724 H         1 546         0.0797
     30 H          20.9331   -8.2679  -33.9273 H         1 546         0.0814
     31 H          22.6188  -14.3646  -37.5227 H         1 546         0.0656
     32 H          21.7137  -12.8787  -39.3178 H         1 546         0.0580
     33 H          19.2503   -9.3722  -37.8121 H         1 546         0.0583
     34 H          20.9175   -8.9170  -38.2411 H         1 546         0.0583
     35 H          19.6402   -8.8910  -39.4817 H         1 546         0.0583
     36 H          22.2699  -15.7228  -32.7984 H         1 546         0.0461
     37 H          23.7503  -14.7350  -32.7362 H         1 546         0.0461
     38 H          22.3958  -14.3795  -31.6361 H         1 546         0.0461
     39 H          20.6928  -13.4781  -30.5180 H         1 546         0.0379
     40 H          22.1762  -12.4944  -30.4635 H         1 546         0.0379
     41 H          20.6141  -11.7763  -29.9995 H         1 546         0.0379
@<TRIPOS>BOND
     1    4    1 1  
     2    2    8 ar 
     3   10    2 ar 
     4   20    3 1  
     5    3   21 1  
     6    4    6 ar 
     7   12    4 ar 
     8    5   13 2  
     9   14    5 1  
    10    6    8 ar 
    11    7   13 1  
    12   15    7 1  
    13    7   16 1  
    14   16    9 ar 
    15    9   20 ar 
    16   12   10 ar 
    17   11   17 1  
    18   22   11 2  
    19   13   12 1  
    20   15   14 2  
    21   14   24 1  
    22   15   22 1  
    23   16   17 ar 
    24   17   18 ar 
    25   18   19 ar 
    26   19   20 ar 
    27   22   23 1  
    28    1   25 1  
    29    1   26 1  
    30    1   27 1  
    31    6   28 1  
    32    8   29 1  
    33   10   30 1  
    34   18   31 1  
    35   19   32 1  
    36   21   33 1  
    37   21   34 1  
    38   21   35 1  
    39   23   36 1  
    40   23   37 1  
    41   23   38 1  
    42   24   39 1  
    43   24   40 1  
    44   24   41 1  
@<TRIPOS>SUBSTRUCTURE
     1 546         1

