### 
### Created by X-TOOL on Mon Sep 10 21:13:08 2018
### 

@<TRIPOS>MOLECULE
3snl_ligand
   41    44     1     0     0
SMALL
GAST_HUCK


@<TRIPOS>ATOM
      1 C1         14.8990  -40.8760  -20.2600 C.3       1 548        -0.0223
      2 F1         14.1700  -37.4510  -23.9710 F         1 548        -0.2459
      3 N1         11.4050  -40.3000  -21.5770 N.ar      1 548        -0.3047
      4 CL1        19.0790  -35.1640  -20.9710 Cl        1 548        -0.0668
      5 C2         13.5440  -40.2590  -20.4340 C.ar      1 548        -0.0029
      6 F2         15.9920  -36.6960  -24.8820 F         1 548        -0.2459
      7 N2         13.7460  -38.5910  -17.4100 N.2       1 548        -0.2888
      8 C3         12.6450  -40.7900  -21.3530 C.ar      1 548         0.0139
      9 F3         15.8260  -38.8030  -24.3740 F         1 548        -0.2459
     10 N3         15.1220  -37.7410  -18.9430 N.pl3     1 548        -0.1801
     11 C4         11.0310  -39.2260  -20.8530 C.ar      1 548         0.0051
     12 N4         17.4170  -36.1670  -18.6740 N.2       1 548        -0.2792
     13 C5         11.8420  -38.6180  -19.9130 C.ar      1 548        -0.0265
     14 C6         13.1210  -39.1410  -19.6980 C.ar      1 548         0.0541
     15 C7         13.9820  -38.5020  -18.7070 C.2       1 548         0.1692
     16 C8         14.7330  -37.8860  -16.7760 C.2       1 548         0.0412
     17 C9         15.6000  -37.3480  -17.7050 C.2       1 548         0.1485
     18 C10        15.7950  -37.3480  -20.1300 C.ar      1 548         0.1432
     19 C11        15.3710  -37.7060  -21.4160 C.ar      1 548        -0.0049
     20 C12        16.0840  -37.2840  -22.5520 C.ar      1 548         0.0202
     21 C13        17.2290  -36.4980  -22.3800 C.ar      1 548        -0.0322
     22 C14        17.6540  -36.1390  -21.0970 C.ar      1 548         0.0784
     23 C15        16.9500  -36.5540  -19.9530 C.ar      1 548         0.0992
     24 C16        16.7820  -36.5400  -17.6080 C.2       1 548         0.0726
     25 C17        17.3130  -36.1060  -16.2700 C.3       1 548         0.0006
     26 C18        15.5270  -37.5510  -23.9310 C.3       1 548         0.3486
     27 C19        14.7300  -37.8070  -15.2970 C.3       1 548        -0.0207
     28 H1         15.0011  -41.7344  -20.9403 H         1 548         0.0418
     29 H2         15.0163  -41.2160  -19.2205 H         1 548         0.0418
     30 H3         15.6739  -40.1304  -20.4916 H         1 548         0.0418
     31 H4         12.9594  -41.6538  -21.9276 H         1 548         0.0761
     32 H5         10.0406  -38.8170  -21.0169 H         1 548         0.0765
     33 H6         11.4946  -37.7558  -19.3554 H         1 548         0.0712
     34 H7         14.4828  -38.3155  -21.5369 H         1 548         0.0754
     35 H8         17.7896  -36.1656  -23.2462 H         1 548         0.0775
     36 H9         16.6663  -36.5017  -15.4730 H         1 548         0.0492
     37 H10        17.3264  -35.0072  -16.2196 H         1 548         0.0492
     38 H11        18.3347  -36.4916  -16.1384 H         1 548         0.0492
     39 H12        15.5876  -37.2061  -14.9602 H         1 548         0.0407
     40 H13        14.8042  -38.8203  -14.8755 H         1 548         0.0407
     41 H14        13.7961  -37.3358  -14.9568 H         1 548         0.0407
@<TRIPOS>BOND
     1    5    1 1  
     2   26    2 1  
     3    8    3 ar 
     4   11    3 ar 
     5   22    4 1  
     6    5    8 ar 
     7   14    5 ar 
     8   26    6 1  
     9   15    7 2  
    10   16    7 1  
    11   26    9 1  
    12   10   15 1  
    13   10   17 1  
    14   18   10 1  
    15   13   11 ar 
    16   23   12 1  
    17   12   24 2  
    18   14   13 ar 
    19   15   14 1  
    20   17   16 2  
    21   16   27 1  
    22   17   24 1  
    23   19   18 ar 
    24   18   23 ar 
    25   20   19 ar 
    26   21   20 ar 
    27   20   26 1  
    28   21   22 ar 
    29   22   23 ar 
    30   24   25 1  
    31    1   28 1  
    32    1   29 1  
    33    1   30 1  
    34    8   31 1  
    35   11   32 1  
    36   13   33 1  
    37   19   34 1  
    38   21   35 1  
    39   25   36 1  
    40   25   37 1  
    41   25   38 1  
    42   27   39 1  
    43   27   40 1  
    44   27   41 1  
@<TRIPOS>SUBSTRUCTURE
     1 548         1

