### 
### Created by X-TOOL on Mon Sep 10 21:13:07 2018
### 

@<TRIPOS>MOLECULE
3so9_ligand
   75    78     1     0     0
SMALL
GAST_HUCK


@<TRIPOS>ATOM
      1 N1         15.9970   -8.6550  -16.3070 N.pl3     1 017        -0.3369
      2 C2         15.5710   -8.8720  -15.0410 C.ar      1 017         0.0353
      3 C3         16.0760   -9.9620  -14.3290 C.ar      1 017        -0.0429
      4 C4         15.6590  -10.1860  -13.0230 C.ar      1 017        -0.0471
      5 C5         14.7860   -9.2880  -12.3990 C.ar      1 017         0.0949
      6 C6         14.2210   -8.2340  -13.1410 C.ar      1 017        -0.0471
      7 C7         14.6500   -7.9980  -14.4440 C.ar      1 017        -0.0429
      8 S8         14.2530   -9.6630  -10.9430 S.o2      1 017         0.0648
      9 O9         14.6520  -11.0040  -10.6670 O.2       1 017        -0.1518
     10 O10        12.8250   -9.6020  -10.9810 O.2       1 017        -0.1518
     11 N11        14.7630   -8.8060   -9.7910 N.am      1 017        -0.2327
     12 C12        15.5650   -9.4750   -8.7700 C.3       1 017         0.0319
     13 C13        16.3140   -8.3820   -8.0130 C.3       1 017        -0.0296
     14 C14        17.7120   -8.1400   -8.5910 C.3       1 017        -0.0612
     15 C15        16.3590   -8.6990   -6.5220 C.3       1 017        -0.0612
     16 C16        14.4670   -7.3740   -9.6990 C.3       1 017         0.0578
     17 C17        13.4520   -7.0740   -8.5770 C.3       1 017         0.0967
     18 O18        12.9560   -5.7420   -8.8220 O.3       1 017        -0.3877
     19 C19        12.2250   -7.9810   -8.4910 C.3       1 017         0.0807
     20 N20        11.6240   -7.9130   -7.1620 N.am      1 017        -0.2550
     21 C21        11.9570   -8.6660   -6.1180 C.2       1 017         0.3203
     22 O22        11.8420   -9.8810   -6.0760 O.2       1 017        -0.3775
     23 O23        12.4610   -7.9310   -4.9770 O.3       1 017        -0.2578
     24 C24        12.0940   -8.4170   -3.6880 C.3       1 017         0.1189
     25 C25        12.4380   -7.3400   -2.6560 C.3       1 017         0.0815
     26 O26        11.2870   -7.1770   -1.8110 O.3       1 017        -0.3480
     27 C27        10.1600   -7.8750   -2.3190 C.3       1 017         0.1648
     28 O28         9.2120   -6.9140   -2.7690 O.3       1 017        -0.3509
     29 C29         8.8050   -7.1660   -4.1200 C.3       1 017         0.0512
     30 C30         9.7920   -8.1700   -4.6960 C.3       1 017        -0.0191
     31 C31        10.6100   -8.6740   -3.5260 C.3       1 017         0.0449
     32 C32        11.1480   -7.5010   -9.4690 C.3       1 017         0.0064
     33 C33         8.8070   -6.9960   -8.6780 C.ar      1 017        -0.0603
     34 C34         7.5570   -7.4120   -8.2260 C.ar      1 017        -0.0686
     35 C35         7.2830   -8.7670   -8.0570 C.ar      1 017        -0.0687
     36 C36         8.2640   -9.7080   -8.3440 C.ar      1 017        -0.0686
     37 C37         9.5110   -9.2870   -8.7980 C.ar      1 017        -0.0603
     38 C38         9.7880   -7.9360   -8.9710 C.ar      1 017        -0.0408
     39 H          16.6792   -9.2841  -16.7304 H         1 017         0.1719
     40 H          15.6359   -7.8624  -16.8378 H         1 017         0.1719
     41 H          16.7950  -10.6348  -14.7965 H         1 017         0.0515
     42 H          16.0129  -11.0640  -12.4827 H         1 017         0.0602
     43 H          13.4500   -7.6045  -12.6968 H         1 017         0.0602
     44 H          14.2723   -7.1385  -14.9978 H         1 017         0.0515
     45 H          16.2618  -10.1796   -9.2241 H         1 017         0.0480
     46 H          14.9318  -10.0504   -8.0947 H         1 017         0.0480
     47 H          15.7646   -7.4492   -8.1401 H         1 017         0.0311
     48 H          18.2941   -9.0594   -8.5277 H         1 017         0.0233
     49 H          17.6248   -7.8347   -9.6337 H         1 017         0.0233
     50 H          18.2083   -7.3543   -8.0213 H         1 017         0.0233
     51 H          15.3421   -8.7651   -6.1351 H         1 017         0.0233
     52 H          16.8698   -9.6497   -6.3692 H         1 017         0.0233
     53 H          16.8972   -7.9080   -5.9997 H         1 017         0.0233
     54 H          14.0377   -7.0498  -10.6470 H         1 017         0.0504
     55 H          15.3934   -6.8449   -9.4754 H         1 017         0.0504
     56 H          13.9944   -7.2244   -7.6436 H         1 017         0.0634
     57 H          12.5350   -5.7121   -9.6842 H         1 017         0.2100
     58 H          12.5562   -8.9939   -8.7199 H         1 017         0.0604
     59 H          10.8826   -7.2266   -7.0220 H         1 017         0.1873
     60 H          12.6289   -9.3575   -3.5557 H         1 017         0.0675
     61 H          12.6872   -6.4009   -3.1501 H         1 017         0.0590
     62 H          13.3068   -7.6358   -2.0679 H         1 017         0.0590
     63 H           9.7303   -8.5229   -1.5550 H         1 017         0.0913
     64 H           8.8043   -6.2449   -4.7029 H         1 017         0.0561
     65 H           7.7889   -7.5593   -4.1518 H         1 017         0.0561
     66 H          10.4280   -7.7080   -5.4511 H         1 017         0.0293
     67 H           9.2743   -8.9885   -5.1960 H         1 017         0.0293
     68 H          10.4610   -9.7502   -3.4387 H         1 017         0.0380
     69 H          11.3309   -7.9332  -10.4528 H         1 017         0.0449
     70 H          11.1791   -6.4138   -9.5400 H         1 017         0.0449
     71 H           9.0159   -5.9334   -8.8019 H         1 017         0.0557
     72 H           6.7881   -6.6722   -8.0031 H         1 017         0.0599
     73 H           6.3038   -9.0876   -7.7013 H         1 017         0.0559
     74 H           8.0584  -10.7706   -8.2144 H         1 017         0.0599
     75 H          10.2801  -10.0266   -9.0207 H         1 017         0.0557
@<TRIPOS>BOND
     1    2    1 1  
     2    3    2 ar 
     3    7    2 ar 
     4    4    3 ar 
     5    5    4 ar 
     6    5    6 ar 
     7    8    5 1  
     8    6    7 ar 
     9    8    9 2  
    10    8   10 2  
    11   11    8 am 
    12   11   12 1  
    13   16   11 1  
    14   12   13 1  
    15   13   14 1  
    16   13   15 1  
    17   17   16 1  
    18   17   18 1  
    19   19   17 1  
    20   19   20 1  
    21   32   19 1  
    22   20   21 am 
    23   21   22 2  
    24   21   23 1  
    25   23   24 1  
    26   24   25 1  
    27   24   31 1  
    28   25   26 1  
    29   27   26 1  
    30   27   28 1  
    31   31   27 1  
    32   29   28 1  
    33   30   29 1  
    34   31   30 1  
    35   38   32 1  
    36   33   34 ar 
    37   33   38 ar 
    38   34   35 ar 
    39   35   36 ar 
    40   36   37 ar 
    41   37   38 ar 
    42    1   39 1  
    43    1   40 1  
    44    3   41 1  
    45    4   42 1  
    46    6   43 1  
    47    7   44 1  
    48   12   45 1  
    49   12   46 1  
    50   13   47 1  
    51   14   48 1  
    52   14   49 1  
    53   14   50 1  
    54   15   51 1  
    55   15   52 1  
    56   15   53 1  
    57   16   54 1  
    58   16   55 1  
    59   17   56 1  
    60   18   57 1  
    61   19   58 1  
    62   20   59 1  
    63   24   60 1  
    64   25   61 1  
    65   25   62 1  
    66   27   63 1  
    67   29   64 1  
    68   29   65 1  
    69   30   66 1  
    70   30   67 1  
    71   31   68 1  
    72   32   69 1  
    73   32   70 1  
    74   33   71 1  
    75   34   72 1  
    76   35   73 1  
    77   36   74 1  
    78   37   75 1  
@<TRIPOS>SUBSTRUCTURE
     1 017         1

