### 
### Created by X-TOOL on Mon Sep 10 21:13:06 2018
### 

@<TRIPOS>MOLECULE
3spk_ligand
   75    78     1     0     0
SMALL
GAST_HUCK


@<TRIPOS>ATOM
      1 O1         -7.7450   16.0400   -0.7950 O.3       1 TPV        -0.2654
      2 C2         -8.5840   15.3980    0.1920 C.2       1 TPV         0.2583
      3 C3         -9.6250   16.1940    0.8240 C.3       1 TPV         0.1443
      4 C4         -9.8320   17.4510    0.3960 C.2       1 TPV         0.1338
      5 C5         -8.8550   18.1480   -0.5180 C.3       1 TPV         0.0577
      6 C6         -8.2150   17.1830   -1.5000 C.3       1 TPV         0.1157
      7 O7         -8.4010   14.2180    0.4830 O.2       1 TPV        -0.3663
      8 O8        -10.8520   18.1660    0.8210 O.2       1 TPV        -0.3875
      9 C9         -9.2520   16.7470   -2.5300 C.3       1 TPV        -0.0172
     10 C10        -8.5950   16.0650   -3.7180 C.3       1 TPV        -0.0528
     11 C11        -8.9820   16.7720   -5.0000 C.3       1 TPV        -0.0652
     12 C12        -7.0160   17.8680   -2.1410 C.3       1 TPV        -0.0073
     13 C13        -5.9150   18.1110   -1.1130 C.3       1 TPV        -0.0161
     14 C14        -4.7670   18.8620   -1.7660 C.ar      1 TPV        -0.0429
     15 C15        -3.5820   18.2030   -2.0860 C.ar      1 TPV        -0.0603
     16 C16        -2.5470   18.8770   -2.7330 C.ar      1 TPV        -0.0686
     17 C17        -2.6860   20.2260   -3.0350 C.ar      1 TPV        -0.0687
     18 C18        -3.8680   20.8900   -2.7150 C.ar      1 TPV        -0.0686
     19 C19        -4.9110   20.2070   -2.1000 C.ar      1 TPV        -0.0603
     20 C20       -10.4270   15.5510    1.9240 C.3       1 TPV         0.0252
     21 C21       -11.9310   15.7580    1.7690 C.3       1 TPV        -0.0390
     22 C22       -12.4500   15.1860    0.4620 C.3       1 TPV        -0.0629
     23 C23        -9.9650   15.9060    3.2940 C.ar      1 TPV        -0.0513
     24 C24        -9.1460   17.0030    3.5170 C.ar      1 TPV        -0.0770
     25 C25        -8.6860   17.2700    4.8020 C.ar      1 TPV        -0.0842
     26 C26        -9.0210   16.4410    5.8710 C.ar      1 TPV        -0.0524
     27 C27        -9.8600   15.3460    5.6740 C.ar      1 TPV         0.0561
     28 N28       -10.1480   14.4970    6.7170 N.am      1 TPV        -0.1845
     29 C29       -10.2510   15.0550    4.3660 C.ar      1 TPV        -0.0443
     30 S30       -11.4570   14.7530    7.6290 S.o2      1 TPV         0.1159
     31 O31       -11.4470   13.8010    8.7120 O.2       1 TPV        -0.1395
     32 O32       -11.4130   16.1270    8.1070 O.2       1 TPV        -0.1395
     33 C33       -12.7300   14.5650    6.6600 C.ar      1 TPV         0.2140
     34 N34       -13.3940   15.6570    6.1900 N.ar      1 TPV        -0.2350
     35 C35       -14.3400   15.5150    5.2350 C.ar      1 TPV         0.0449
     36 C36       -14.7430   14.2590    4.7710 C.ar      1 TPV         0.0774
     37 C37       -14.1020   13.1370    5.2820 C.ar      1 TPV        -0.0118
     38 C38       -13.1300   13.2870    6.2640 C.ar      1 TPV         0.0213
     39 C39       -15.7560   14.1600    3.6420 C.3       1 TPV         0.3861
     40 F40       -16.6670   15.1080    3.7300 F         1 TPV        -0.2154
     41 F41       -16.3570   12.9800    3.6330 F         1 TPV        -0.2154
     42 F42       -15.1600   14.2950    2.4670 F         1 TPV        -0.2154
     43 H1         -8.9082   16.5713    1.5682 H         1 TPV         0.0807
     44 H2         -8.0654   18.6114    0.0917 H         1 TPV         0.0528
     45 H3         -9.3885   18.9277   -1.0814 H         1 TPV         0.0528
     46 H4         -9.8008   17.6324   -2.8833 H         1 TPV         0.0298
     47 H5         -9.9543   16.0449   -2.0568 H         1 TPV         0.0298
     48 H6         -8.9263   15.0172   -3.7656 H         1 TPV         0.0264
     49 H7         -7.5020   16.0990   -3.5990 H         1 TPV         0.0264
     50 H8         -8.5020   16.2716   -5.8539 H         1 TPV         0.0230
     51 H9         -8.6504   17.8199   -4.9554 H         1 TPV         0.0230
     52 H10       -10.0747   16.7381   -5.1220 H         1 TPV         0.0230
     53 H11        -7.3349   18.8328   -2.5622 H         1 TPV         0.0320
     54 H12        -6.6232   17.2286   -2.9453 H         1 TPV         0.0320
     55 H13        -5.5511   17.1459   -0.7308 H         1 TPV         0.0427
     56 H14        -6.3163   18.7073   -0.2803 H         1 TPV         0.0427
     57 H15        -3.4635   17.1564   -1.8296 H         1 TPV         0.0557
     58 H16        -1.6376   18.3506   -2.9993 H         1 TPV         0.0599
     59 H17        -1.8764   20.7606   -3.5186 H         1 TPV         0.0559
     60 H18        -3.9750   21.9436   -2.9465 H         1 TPV         0.0599
     61 H19        -5.8389   20.7223   -1.8797 H         1 TPV         0.0557
     62 H20       -10.2569   14.4692    1.8199 H         1 TPV         0.0511
     63 H21       -12.1460   16.8364    1.7953 H         1 TPV         0.0290
     64 H22       -12.4462   15.2609    2.6041 H         1 TPV         0.0290
     65 H23       -13.5344   15.3567    0.3920 H         1 TPV         0.0231
     66 H24       -12.2460   14.1056    0.4279 H         1 TPV         0.0231
     67 H25       -11.9458   15.6812   -0.3809 H         1 TPV         0.0231
     68 H26        -8.8657   17.6494    2.6932 H         1 TPV         0.0415
     69 H27        -8.0574   18.1360    4.9747 H         1 TPV         0.0556
     70 H28        -8.6274   16.6488    6.8594 H         1 TPV         0.0427
     71 H29        -9.5473   13.7214    6.9109 H         1 TPV         0.2165
     72 H30       -10.7953   14.1373    4.1746 H         1 TPV         0.0416
     73 H31       -14.8005   16.4023    4.8159 H         1 TPV         0.1070
     74 H32       -14.3589   12.1494    4.9164 H         1 TPV         0.0964
     75 H33       -12.6826   12.4124    6.7223 H         1 TPV         0.0802
@<TRIPOS>BOND
     1    1    2 1  
     2    1    6 1  
     3    2    3 1  
     4    2    7 2  
     5    3    4 1  
     6    3   20 1  
     7    4    5 1  
     8    4    8 2  
     9    5    6 1  
    10    6    9 1  
    11    6   12 1  
    12    9   10 1  
    13   10   11 1  
    14   12   13 1  
    15   13   14 1  
    16   14   15 ar 
    17   14   19 ar 
    18   15   16 ar 
    19   16   17 ar 
    20   17   18 ar 
    21   18   19 ar 
    22   20   21 1  
    23   20   23 1  
    24   21   22 1  
    25   23   24 ar 
    26   23   29 ar 
    27   24   25 ar 
    28   25   26 ar 
    29   26   27 ar 
    30   27   28 1  
    31   27   29 ar 
    32   28   30 am 
    33   30   31 2  
    34   30   32 2  
    35   30   33 1  
    36   33   34 ar 
    37   33   38 ar 
    38   34   35 ar 
    39   35   36 ar 
    40   36   37 ar 
    41   36   39 1  
    42   37   38 ar 
    43   39   40 1  
    44   39   41 1  
    45   39   42 1  
    46    3   43 1  
    47    5   44 1  
    48    5   45 1  
    49    9   46 1  
    50    9   47 1  
    51   10   48 1  
    52   10   49 1  
    53   11   50 1  
    54   11   51 1  
    55   11   52 1  
    56   12   53 1  
    57   12   54 1  
    58   13   55 1  
    59   13   56 1  
    60   15   57 1  
    61   16   58 1  
    62   17   59 1  
    63   18   60 1  
    64   19   61 1  
    65   20   62 1  
    66   21   63 1  
    67   21   64 1  
    68   22   65 1  
    69   22   66 1  
    70   22   67 1  
    71   24   68 1  
    72   25   69 1  
    73   26   70 1  
    74   28   71 1  
    75   29   72 1  
    76   35   73 1  
    77   37   74 1  
    78   38   75 1  
@<TRIPOS>SUBSTRUCTURE
     1 TPV         1

