### 
### Created by X-TOOL on Mon Sep 10 21:13:10 2018
### 

@<TRIPOS>MOLECULE
3sqq_ligand
   42    44     1     0     0
SMALL
GAST_HUCK


@<TRIPOS>ATOM
      1 N01       -95.7030   10.6110  -50.3950 N.2       1 99Z        -0.2716
      2 N02       -97.0260   11.1690  -48.5350 N.pl3     1 99Z        -0.2327
      3 N03       -94.0870    9.7070  -52.0970 N.pl3     1 99Z        -0.3318
      4 N04       -99.9650    9.3320  -42.8290 N.am      1 99Z        -0.2621
      5 C05       -94.1410    8.9760  -49.7020 C.2       1 99Z         0.0909
      6 C06       -94.5990    9.7570  -50.8010 C.2       1 99Z         0.0843
      7 C07       -95.9800   10.4200  -49.0610 C.2       1 99Z         0.2036
      8 C08       -97.8340   10.8440  -47.4320 C.ar      1 99Z         0.0700
      9 C09       -93.0200    7.9930  -49.9040 C.2       1 99Z         0.1253
     10 C10       -92.6050    7.1520  -48.7390 C.ar      1 99Z         0.0246
     11 C11       -91.2760    7.1740  -48.2250 C.ar      1 99Z        -0.0285
     12 C12       -90.9940    6.3470  -47.1150 C.ar      1 99Z        -0.0550
     13 C13       -91.9840    5.5300  -46.5360 C.ar      1 99Z        -0.0644
     14 C14       -93.3010    5.5000  -47.0460 C.ar      1 99Z        -0.0634
     15 C15       -93.6160    6.3230  -48.1630 C.ar      1 99Z        -0.0515
     16 C16       -97.6700    9.6530  -46.6900 C.ar      1 99Z        -0.0354
     17 C17       -98.5400    9.4330  -45.6220 C.ar      1 99Z        -0.0445
     18 C18       -99.5230   10.3940  -45.3440 C.ar      1 99Z         0.0965
     19 C19       -99.6730   11.5760  -46.0820 C.ar      1 99Z        -0.0445
     20 C20       -98.8160   11.8100  -47.1420 C.ar      1 99Z        -0.0354
     21 C21       -90.1750    8.0560  -48.8280 C.3       1 99Z        -0.0277
     22 O22       -92.4920    7.8800  -51.0250 O.2       1 99Z        -0.4061
     23 O23      -100.9730   11.3310  -43.2960 O.2       1 99Z        -0.1519
     24 O24      -101.4580    9.0060  -44.4850 O.2       1 99Z        -0.1519
     25 S25       -94.9840    9.3050  -48.3360 S.3       1 99Z         0.0096
     26 S26      -100.6370   10.1240  -44.0380 S.o2      1 99Z         0.0609
     27 H1        -97.2319   12.0616  -49.0060 H         1 99Z         0.2243
     28 H2        -93.3016    9.0778  -52.3165 H         1 99Z         0.1745
     29 H3        -94.4942   10.2993  -52.8348 H         1 99Z         0.1745
     30 H4       -100.5022    9.1134  -42.0144 H         1 99Z         0.1633
     31 H5        -99.0061    9.0537  -42.8851 H         1 99Z         0.1633
     32 H6        -89.9928    6.3412  -46.6995 H         1 99Z         0.0568
     33 H7        -91.7305    4.9120  -45.6822 H         1 99Z         0.0633
     34 H8        -94.0549    4.8640  -46.5963 H         1 99Z         0.0571
     35 H9        -94.6186    6.3211  -48.5752 H         1 99Z         0.0647
     36 H10       -96.8965    8.9364  -46.9414 H         1 99Z         0.0540
     37 H11       -98.4579    8.5363  -45.0184 H         1 99Z         0.0607
     38 H12      -100.4454   12.2926  -45.8271 H         1 99Z         0.0607
     39 H13       -98.8984   12.7141  -47.7343 H         1 99Z         0.0540
     40 H14       -90.5834    8.6227  -49.6777 H         1 99Z         0.0404
     41 H15       -89.3459    7.4218  -49.1749 H         1 99Z         0.0404
     42 H16       -89.8063    8.7560  -48.0638 H         1 99Z         0.0404
@<TRIPOS>BOND
     1    1    6 1  
     2    7    1 2  
     3    2    7 1  
     4    8    2 1  
     5    6    3 1  
     6   26    4 am 
     7    5    6 2  
     8    5    9 1  
     9   25    5 1  
    10    7   25 1  
    11   16    8 ar 
    12    8   20 ar 
    13    9   10 1  
    14    9   22 2  
    15   10   11 ar 
    16   10   15 ar 
    17   11   12 ar 
    18   11   21 1  
    19   12   13 ar 
    20   14   13 ar 
    21   15   14 ar 
    22   17   16 ar 
    23   18   17 ar 
    24   18   19 ar 
    25   18   26 1  
    26   19   20 ar 
    27   26   23 2  
    28   26   24 2  
    29    2   27 1  
    30    3   28 1  
    31    3   29 1  
    32    4   30 1  
    33    4   31 1  
    34   12   32 1  
    35   13   33 1  
    36   14   34 1  
    37   15   35 1  
    38   16   36 1  
    39   17   37 1  
    40   19   38 1  
    41   20   39 1  
    42   21   40 1  
    43   21   41 1  
    44   21   42 1  
@<TRIPOS>SUBSTRUCTURE
     1 99Z         1

