### 
### Created by X-TOOL on Mon Sep 10 21:13:08 2018
### 

@<TRIPOS>MOLECULE
3sr4_ligand
   49    51     1     0     0
SMALL
GAST_HUCK


@<TRIPOS>ATOM
      1 C          41.9410   53.5070    0.9770 C.2       1 TT8         0.0844
      2 N          41.8210   51.1390    1.6040 N.4       1 TT8         0.2327
      3 O          42.6880   53.1120    0.0640 O.co2     1 TT8        -0.5643
      4 C1         47.5070   43.5170    9.6100 C.3       1 TT8         0.0184
      5 N1         43.8450   43.6580    8.6140 N.ar      1 TT8        -0.2697
      6 C2         42.8050   44.4990    8.1900 C.ar      1 TT8         0.0533
      7 N3         43.0890   45.8580    8.0330 N.ar      1 TT8        -0.2714
      8 C4         44.3460   46.3640    8.2820 C.ar      1 TT8         0.1613
      9 C5         45.3930   45.5200    8.7080 C.ar      1 TT8         0.1047
     10 C6         45.1330   44.1380    8.8760 C.ar      1 TT8         0.1321
     11 N6         46.0760   43.2570    9.2760 N.pl3     1 TT8        -0.3042
     12 N7         46.4920   46.2840    8.8670 N.2       1 TT8        -0.2957
     13 C8         46.1950   47.5650    8.5630 C.2       1 TT8         0.1123
     14 N9         44.8630   47.6280    8.1970 N.pl3     1 TT8        -0.1919
     15 CA         41.5150   52.5300    2.0760 C.3       1 TT8         0.0291
     16 CB         42.2020   52.8070    3.4450 C.3       1 TT8         0.0114
     17 SD         44.5390   53.0040    5.0270 S.3       1 TT8        -0.1578
     18 CG         43.7410   52.6700    3.4400 C.3       1 TT8         0.0005
     19 C1'        44.0960   48.8200    7.7710 C.3       1 TT8         0.2009
     20 C2'        44.2880   50.0150    8.6790 C.3       1 TT8         0.1385
     21 O2'        43.4780   49.9340    9.8240 O.3       1 TT8        -0.3836
     22 C3'        43.9240   51.1840    7.7670 C.3       1 TT8         0.1132
     23 O3'        42.6310   51.7140    7.9980 O.3       1 TT8        -0.3864
     24 C4'        44.0840   50.6210    6.3560 C.3       1 TT8         0.0995
     25 O4'        44.5190   49.2700    6.4920 O.3       1 TT8        -0.3383
     26 C5'        45.1310   51.3730    5.5460 C.3       1 TT8         0.0226
     27 OXT        41.5690   54.6990    0.9840 O.co2     1 TT8        -0.5643
     28 H1         41.5485   50.4761    2.3128 H         1 TT8         0.2010
     29 H2         42.8097   51.0541    1.4270 H         1 TT8         0.2010
     30 H3         41.3104   50.9522    0.7552 H         1 TT8         0.2010
     31 H4         47.9931   42.5737    9.8998 H         1 TT8         0.0489
     32 H5         47.5648   44.2309   10.4449 H         1 TT8         0.0489
     33 H6         48.0180   43.9380    8.7315 H         1 TT8         0.0489
     34 H7         41.8140   44.1074    7.9908 H         1 TT8         0.0996
     35 H8         45.7669   42.2782    9.3616 H         1 TT8         0.1852
     36 H9         46.8864   48.4056    8.5997 H         1 TT8         0.1349
     37 H10        40.4286   52.6250    2.2201 H         1 TT8         0.1024
     38 H11        41.7980   52.0955    4.1802 H         1 TT8         0.0347
     39 H12        41.9513   53.8332    3.7517 H         1 TT8         0.0347
     40 H13        44.1447   53.3759    2.6992 H         1 TT8         0.0379
     41 H14        43.9917   51.6415    3.1411 H         1 TT8         0.0379
     42 H15        43.0301   48.5502    7.7404 H         1 TT8         0.0996
     43 H16        45.3375   50.0932    8.9989 H         1 TT8         0.0676
     44 H17        42.5652   49.9000    9.5630 H         1 TT8         0.2101
     45 H18        44.6472   51.9987    7.9196 H         1 TT8         0.0647
     46 H19        41.9818   51.0349    7.8570 H         1 TT8         0.2100
     47 H20        43.1181   50.6627    5.8314 H         1 TT8         0.0632
     48 H21        46.0329   51.5015    6.1625 H         1 TT8         0.0402
     49 H22        45.3794   50.7834    4.6512 H         1 TT8         0.0402
@<TRIPOS>BOND
     1    1    3 ar 
     2   15    1 1  
     3    1   27 ar 
     4   15    2 1  
     5   11    4 1  
     6    6    5 ar 
     7   10    5 ar 
     8    7    6 ar 
     9    8    7 ar 
    10    8    9 ar 
    11   14    8 1  
    12    9   10 ar 
    13   12    9 1  
    14   10   11 1  
    15   13   12 2  
    16   14   13 1  
    17   19   14 1  
    18   16   15 1  
    19   18   16 1  
    20   17   18 1  
    21   26   17 1  
    22   19   20 1  
    23   25   19 1  
    24   20   21 1  
    25   22   20 1  
    26   22   23 1  
    27   24   22 1  
    28   24   25 1  
    29   24   26 1  
    30    2   28 1  
    31    2   29 1  
    32    2   30 1  
    33    4   31 1  
    34    4   32 1  
    35    4   33 1  
    36    6   34 1  
    37   11   35 1  
    38   13   36 1  
    39   15   37 1  
    40   16   38 1  
    41   16   39 1  
    42   18   40 1  
    43   18   41 1  
    44   19   42 1  
    45   20   43 1  
    46   21   44 1  
    47   22   45 1  
    48   23   46 1  
    49   24   47 1  
    50   26   48 1  
    51   26   49 1  
@<TRIPOS>SUBSTRUCTURE
     1 TT8         1

