### 
### Created by X-TOOL on Mon Sep 10 21:13:06 2018
### 

@<TRIPOS>MOLECULE
3srb_ligand
   25    26     1     0     0
SMALL
GAST_HUCK


@<TRIPOS>ATOM
      1 C1         34.9610   46.4870   60.1070 C.ar      1 28S         0.0200
      2 N1         37.0600   48.3210   56.1930 N.ar      1 28S        -0.2528
      3 BR1        34.0400   46.7350   61.7510 Br        1 28S        -0.0490
      4 C2         35.3660   45.2090   59.7050 C.ar      1 28S        -0.0470
      5 N2         37.1340   46.0150   56.5930 N.ar      1 28S        -0.2924
      6 C3         36.0860   45.0470   58.5120 C.ar      1 28S        -0.0388
      7 N3         35.9420   49.7950   57.6430 N.pl3     1 28S        -0.2795
      8 C4         36.4080   46.1630   57.7320 C.ar      1 28S         0.0462
      9 C5         36.0040   47.4400   58.1300 C.ar      1 28S         0.0583
     10 C6         35.2760   47.5950   59.3150 C.ar      1 28S        -0.0297
     11 C7         36.3310   48.5360   57.3180 C.ar      1 28S         0.1475
     12 C8         37.4340   47.0800   55.8330 C.ar      1 28S         0.0614
     13 C9         36.0790   50.8980   56.6970 C.3       1 28S         0.0612
     14 C10        35.2440   52.0950   57.0960 C.2       1 28S        -0.0662
     15 C11        34.6960   52.8660   56.1770 C.2       1 28S        -0.1155
     16 H1         35.1237   44.3459   60.3144 H         1 28S         0.0691
     17 H2         36.3929   44.0571   58.1944 H         1 28S         0.0629
     18 H3         35.5425   49.9755   58.5750 H         1 28S         0.1948
     19 H4         34.9533   48.5834   59.6216 H         1 28S         0.0724
     20 H5         37.9879   46.9374   54.9122 H         1 28S         0.1068
     21 H6         35.7559   50.5553   55.7029 H         1 28S         0.0714
     22 H7         37.1357   51.2005   56.6550 H         1 28S         0.0714
     23 H8         35.0943   52.3217   58.1506 H         1 28S         0.0693
     24 H9         34.0966   53.7254   56.4740 H         1 28S         0.0290
     25 H10        34.8429   52.6433   55.1212 H         1 28S         0.0290
@<TRIPOS>BOND
     1    1    3 1  
     2    4    1 ar 
     3    1   10 ar 
     4    2   11 ar 
     5   12    2 ar 
     6    6    4 ar 
     7    8    5 ar 
     8    5   12 ar 
     9    6    8 ar 
    10   11    7 1  
    11    7   13 1  
    12    8    9 ar 
    13    9   10 ar 
    14    9   11 ar 
    15   13   14 1  
    16   14   15 2  
    17    4   16 1  
    18    6   17 1  
    19    7   18 1  
    20   10   19 1  
    21   12   20 1  
    22   13   21 1  
    23   13   22 1  
    24   14   23 1  
    25   15   24 1  
    26   15   25 1  
@<TRIPOS>SUBSTRUCTURE
     1 28S         1

