### 
### Created by X-TOOL on Mon Sep 10 21:13:06 2018
### 

@<TRIPOS>MOLECULE
3src_ligand
   21    23     1     0     0
SMALL
GAST_HUCK


@<TRIPOS>ATOM
      1 C4        -23.2660  -34.2990    9.0950 C.ar      1 28N         0.0140
      2 C5        -23.5580  -35.2390   10.0770 C.ar      1 28N         0.1837
      3 C7        -23.5810  -37.6090   10.3980 C.3       1 28N         0.2035
      4 C8        -24.3660  -37.2760   11.6400 C.2       1 28N         0.2679
      5 C15       -25.3240  -33.8990   10.8740 C.ar      1 28N         0.0044
      6 O12       -25.9690  -34.9290   13.5960 O.2       1 28N        -0.3292
      7 C11       -25.4260  -35.9640   13.0690 C.2       1 28N         0.3833
      8 O10       -25.4160  -37.2080   13.6120 O.3       1 28N        -0.0925
      9 N9        -24.7160  -38.0770   12.6910 N.pl3     1 28N        -0.0788
     10 N13       -24.7990  -36.0370   11.9040 N.2       1 28N        -0.1564
     11 O6        -22.8340  -36.4050   10.1550 O.3       1 28N        -0.2426
     12 C14       -24.5780  -35.0690   11.0080 C.ar      1 28N         0.1455
     13 C2        -25.0490  -32.9470    9.8990 C.ar      1 28N         0.0396
     14 BR1       -26.1090  -31.3950    9.7900 Br        1 28N        -0.0395
     15 C3        -24.0180  -33.1400    8.9960 C.ar      1 28N        -0.0260
     16 H1        -22.4481  -34.4736    8.4054 H         1 28N         0.0647
     17 H2        -24.2511  -37.8353    9.5555 H         1 28N         0.1079
     18 H3        -22.9094  -38.4626   10.5718 H         1 28N         0.1079
     19 H4        -26.1490  -33.7251   11.5553 H         1 28N         0.0779
     20 H5        -24.5230  -39.0825   12.8031 H         1 28N         0.2775
     21 H6        -23.8044  -32.4027    8.2306 H         1 28N         0.0871
@<TRIPOS>BOND
     1    2    1 ar 
     2    1   15 ar 
     3   11    2 1  
     4    2   12 ar 
     5    4    3 1  
     6    3   11 1  
     7    4    9 1  
     8   10    4 2  
     9   12    5 ar 
    10    5   13 ar 
    11    7    6 2  
    12    7    8 1  
    13    7   10 1  
    14    8    9 1  
    15   10   12 1  
    16   13   14 1  
    17   13   15 ar 
    18    1   16 1  
    19    3   17 1  
    20    3   18 1  
    21    5   19 1  
    22    9   20 1  
    23   15   21 1  
@<TRIPOS>SUBSTRUCTURE
     1 28N         1

