### 
### Created by X-TOOL on Mon Sep 10 21:13:09 2018
### 

@<TRIPOS>MOLECULE
3srg_ligand
   18    19     1     0     0
SMALL
GAST_HUCK


@<TRIPOS>ATOM
      1 O1         -5.2940  -23.4870   29.3260 O.2       1 OCH        -0.4039
      2 N2         -6.8670  -21.9580   28.7200 N.am      1 OCH        -0.2286
      3 C3         -7.7100  -20.9320   28.9720 C.ar      1 OCH         0.0891
      4 C4         -8.4900  -20.3990   27.9500 C.ar      1 OCH        -0.0320
      5 C5         -9.3660  -19.3280   28.2060 C.ar      1 OCH        -0.0698
      6 C6         -9.4950  -18.8220   29.5090 C.ar      1 OCH        -0.0709
      7 C7         -8.7250  -19.3730   30.5430 C.ar      1 OCH        -0.0599
      8 C8         -7.8190  -20.4190   30.2880 C.ar      1 OCH         0.0121
      9 C9         -7.0170  -20.9890   31.3150 C.2       1 OCH        -0.0450
     10 C10        -6.1650  -22.0720   31.0040 C.2       1 OCH         0.0071
     11 C1         -6.1180  -22.5180   29.6840 C.2       1 OCH         0.2062
     12 H1         -6.7989  -22.3111   27.7869 H         1 OCH         0.2374
     13 H2         -8.4222  -20.8117   26.9499 H         1 OCH         0.0527
     14 H3         -9.9415  -18.8935   27.3966 H         1 OCH         0.0611
     15 H4        -10.1848  -18.0113   29.7142 H         1 OCH         0.0516
     16 H5         -8.8289  -18.9885   31.5512 H         1 OCH         0.0613
     17 H6         -7.0592  -20.5951   32.3294 H         1 OCH         0.0722
     18 H7         -5.5604  -22.5463   31.7756 H         1 OCH         0.0592
@<TRIPOS>BOND
     1   11    1 2  
     2    2    3 1  
     3    2   11 am 
     4    3    4 ar 
     5    3    8 ar 
     6    4    5 ar 
     7    5    6 ar 
     8    6    7 ar 
     9    7    8 ar 
    10    8    9 1  
    11    9   10 2  
    12   10   11 1  
    13    2   12 1  
    14    4   13 1  
    15    5   14 1  
    16    6   15 1  
    17    7   16 1  
    18    9   17 1  
    19   10   18 1  
@<TRIPOS>SUBSTRUCTURE
     1 OCH         1

