### 
### Created by X-TOOL on Mon Sep 10 21:13:06 2018
### 

@<TRIPOS>MOLECULE
3srv_ligand
   48    50     1     0     0
SMALL
GAST_HUCK


@<TRIPOS>ATOM
      1 C1          4.8430    0.2070  -30.6880 C.3       1 S19        -0.0363
      2 C2          3.3970    0.1540  -30.2790 C.ar      1 S19        -0.0568
      3 C3          2.5310    1.0880  -30.7940 C.ar      1 S19        -0.0693
      4 C4          1.2010    1.0520  -30.4280 C.ar      1 S19        -0.0440
      5 C5          0.6930    0.1020  -29.5660 C.ar      1 S19         0.0590
      6 N6         -0.6960    0.1850  -29.2900 N.pl3     1 S19        -0.2559
      7 C7         -1.4430   -0.5240  -28.3420 C.ar      1 S19         0.1523
      8 N8         -0.9250   -1.5090  -27.5990 N.ar      1 S19        -0.2324
      9 C9         -1.6980   -2.1410  -26.7120 C.ar      1 S19         0.1796
     10 N10        -1.0960   -3.1310  -26.0010 N.pl3     1 S19        -0.2811
     11 C11         0.3150   -3.4290  -25.9960 C.3       1 S19         0.0892
     12 C12         0.5380   -4.8960  -25.6640 C.3       1 S19        -0.0005
     13 C13         2.0160   -5.1280  -25.7400 C.3       1 S19         0.0503
     14 O14         2.6610   -4.3960  -24.7270 O.3       1 S19        -0.3741
     15 C15         2.5690   -2.9760  -24.9730 C.3       1 S19         0.0924
     16 C16         1.1170   -2.5310  -25.0570 C.3       1 S19         0.0235
     17 N17         0.5730   -2.5640  -23.7160 N.4       1 S19         0.2241
     18 N18        -2.9850   -1.8560  -26.5120 N.ar      1 S19        -0.2653
     19 C19        -3.5100   -0.8760  -27.2630 C.ar      1 S19         0.0210
     20 C20        -2.8130   -0.1580  -28.2110 C.ar      1 S19         0.1074
     21 C21        -3.4040    0.9270  -29.0160 C.2       1 S19         0.1992
     22 N22        -4.7600    1.0480  -28.9520 N.am      1 S19        -0.3023
     23 O23        -2.6970    1.6670  -29.6880 O.2       1 S19        -0.3928
     24 C24         1.5700   -0.8380  -29.0600 C.ar      1 S19        -0.0440
     25 C25         2.9170   -0.8040  -29.4130 C.ar      1 S19        -0.0693
     26 H1          4.9976    1.0478  -31.3802 H         1 S19         0.0370
     27 H2          5.1177   -0.7340  -31.1870 H         1 S19         0.0370
     28 H3          5.4715    0.3461  -29.7960 H         1 S19         0.0370
     29 H4          2.8891    1.8460  -31.4813 H         1 S19         0.0530
     30 H5          0.5289    1.7995  -30.8337 H         1 S19         0.0523
     31 H6         -1.2256    0.8567  -29.8638 H         1 S19         0.2165
     32 H7         -1.7019   -3.7211  -25.4132 H         1 S19         0.1882
     33 H8          0.6912   -3.2532  -27.0146 H         1 S19         0.0620
     34 H9          0.0151   -5.5343  -26.3914 H         1 S19         0.0312
     35 H10         0.1701   -5.1169  -24.6512 H         1 S19         0.0312
     36 H11         2.3880   -4.8003  -26.7219 H         1 S19         0.0560
     37 H12         2.2257   -6.1996  -25.6074 H         1 S19         0.0560
     38 H13         3.0726   -2.7419  -25.9225 H         1 S19         0.0617
     39 H14         3.0640   -2.4358  -24.1525 H         1 S19         0.0617
     40 H15         1.0760   -1.5006  -25.4397 H         1 S19         0.0896
     41 H16        -0.3919   -2.2733  -23.7376 H         1 S19         0.1998
     42 H17         1.0988   -1.9397  -23.1246 H         1 S19         0.1998
     43 H18         0.6332   -3.5020  -23.3520 H         1 S19         0.1998
     44 H19        -4.5555   -0.6317  -27.1138 H         1 S19         0.0905
     45 H20        -5.2233    1.7639  -29.4744 H         1 S19         0.1802
     46 H21        -5.2916    0.4209  -28.3827 H         1 S19         0.1802
     47 H22         1.2082   -1.6054  -28.3853 H         1 S19         0.0523
     48 H23         3.5966   -1.5411  -29.0009 H         1 S19         0.0530
@<TRIPOS>BOND
     1    1    2 1  
     2    2    3 ar 
     3    2   25 ar 
     4    3    4 ar 
     5    4    5 ar 
     6    5    6 1  
     7    5   24 ar 
     8    6    7 1  
     9    7    8 ar 
    10    7   20 ar 
    11    8    9 ar 
    12    9   10 1  
    13    9   18 ar 
    14   10   11 1  
    15   11   12 1  
    16   11   16 1  
    17   12   13 1  
    18   13   14 1  
    19   14   15 1  
    20   15   16 1  
    21   16   17 1  
    22   18   19 ar 
    23   19   20 ar 
    24   20   21 1  
    25   21   22 am 
    26   21   23 2  
    27   24   25 ar 
    28    1   26 1  
    29    1   27 1  
    30    1   28 1  
    31    3   29 1  
    32    4   30 1  
    33    6   31 1  
    34   10   32 1  
    35   11   33 1  
    36   12   34 1  
    37   12   35 1  
    38   13   36 1  
    39   13   37 1  
    40   15   38 1  
    41   15   39 1  
    42   16   40 1  
    43   17   41 1  
    44   17   42 1  
    45   17   43 1  
    46   19   44 1  
    47   22   45 1  
    48   22   46 1  
    49   24   47 1  
    50   25   48 1  
@<TRIPOS>SUBSTRUCTURE
     1 S19         1

