### 
### Created by X-TOOL on Mon Sep 10 21:13:05 2018
### 

@<TRIPOS>MOLECULE
3st5_ligand
   80    83     1     0     0
SMALL
GAST_HUCK


@<TRIPOS>ATOM
      1 C21        14.4150   20.9620   18.1820 C.2       1 G89         0.3202
      2 O22        15.5330   20.4550   18.0540 O.2       1 G89        -0.3775
      3 O23        13.4320   20.2870   18.8270 O.3       1 G89        -0.2605
      4 C24        13.7380   18.9240   19.1370 C.3       1 G89         0.0909
      5 C25        12.6040   18.3670   20.0140 C.3       1 G89         0.0044
      6 C26        11.5310   17.9550   19.0080 C.3       1 G89         0.0668
      7 O27        10.8600   19.1430   18.6130 O.3       1 G89        -0.3735
      8 C28        10.9240   19.3400   17.2130 C.3       1 G89         0.0743
      9 C29        11.5020   18.0550   16.5970 C.3       1 G89         0.0837
     10 C30        12.2780   17.4740   17.7750 C.3       1 G89         0.0162
     11 C31        13.6880   18.0360   17.8950 C.3       1 G89        -0.0146
     12 O41        10.3420   17.2900   16.2010 O.3       1 G89        -0.3892
     13 N11        17.7750   24.3590   17.4450 N.am      1 G89        -0.2325
     14 C12        18.7320   24.7000   18.4920 C.3       1 G89         0.0319
     15 C13        18.3590   24.0590   19.8340 C.3       1 G89        -0.0296
     16 C14        18.3990   22.5230   19.7450 C.3       1 G89        -0.0612
     17 C15        19.3430   24.4580   20.9400 C.3       1 G89        -0.0612
     18 C16        16.5180   25.0850   17.4030 C.3       1 G89         0.0578
     19 C17        15.3770   24.2200   17.9180 C.3       1 G89         0.0967
     20 O18        14.2280   24.9750   18.2860 O.3       1 G89        -0.3877
     21 C19        15.0010   23.0740   16.9860 C.3       1 G89         0.0807
     22 N20        14.1020   22.1690   17.7300 N.am      1 G89        -0.2550
     23 C32        14.2510   23.5320   15.7290 C.3       1 G89         0.0064
     24 C33        12.6510   21.8760   14.6830 C.ar      1 G89        -0.0603
     25 C34        12.3800   20.7480   13.9430 C.ar      1 G89        -0.0686
     26 C35        13.3830   20.1090   13.2160 C.ar      1 G89        -0.0687
     27 C36        14.6790   20.5870   13.3630 C.ar      1 G89        -0.0686
     28 C37        14.9680   21.6900   14.1540 C.ar      1 G89        -0.0603
     29 C38        13.9510   22.3330   14.8340 C.ar      1 G89        -0.0408
     30 S8         18.4630   24.1540   15.9720 S.o2      1 G89         0.0657
     31 O9         17.3650   24.0040   14.9650 O.2       1 G89        -0.1515
     32 O10        19.3810   22.9740   16.0730 O.2       1 G89        -0.1515
     33 C5         19.4330   25.5380   15.5260 C.ar      1 G89         0.0971
     34 C6         18.8380   26.6510   14.9570 C.ar      1 G89        -0.0440
     35 C4         20.7910   25.5450   15.8140 C.ar      1 G89        -0.0440
     36 C7         19.5700   27.7860   14.6250 C.ar      1 G89        -0.0313
     37 C3         21.5280   26.6990   15.5300 C.ar      1 G89        -0.0313
     38 C2         20.9330   27.8080   14.9370 C.ar      1 G89         0.0908
     39 O39        21.5970   28.9600   14.6630 O.3       1 G89        -0.3212
     40 C40        22.9720   28.8560   14.9670 C.3       1 G89         0.0594
     41 H1         14.7160   18.8566   19.6359 H         1 G89         0.0648
     42 H2         12.2230   19.1393   20.6984 H         1 G89         0.0319
     43 H3         12.9490   17.4994   20.5956 H         1 G89         0.0319
     44 H4         10.8440   17.1967   19.4116 H         1 G89         0.0600
     45 H5         11.5769   20.1947   16.9825 H         1 G89         0.0586
     46 H6          9.9170   19.5294   16.8130 H         1 G89         0.0586
     47 H7         12.1607   18.2390   15.7354 H         1 G89         0.0620
     48 H8         12.3083   16.3762   17.7134 H         1 G89         0.0352
     49 H9         14.4107   17.2128   17.9953 H         1 G89         0.0298
     50 H10        13.9304   18.6299   17.0014 H         1 G89         0.0298
     51 H11        10.6124   16.4152   15.9475 H         1 G89         0.2099
     52 H12        18.7531   25.7931   18.6131 H         1 G89         0.0480
     53 H13        19.7291   24.3449   18.1926 H         1 G89         0.0480
     54 H14        17.3454   24.3859   20.1091 H         1 G89         0.0311
     55 H15        18.1277   22.0921   20.7200 H         1 G89         0.0233
     56 H16        19.4132   22.1979   19.4699 H         1 G89         0.0233
     57 H17        17.6847   22.1812   18.9815 H         1 G89         0.0233
     58 H18        19.3525   25.5530   21.0448 H         1 G89         0.0233
     59 H19        20.3517   24.1061   20.6779 H         1 G89         0.0233
     60 H20        19.0308   24.0014   21.8908 H         1 G89         0.0233
     61 H21        16.3065   25.3801   16.3647 H         1 G89         0.0504
     62 H22        16.6000   25.9847   18.0305 H         1 G89         0.0504
     63 H23        15.7494   23.7534   18.8419 H         1 G89         0.0634
     64 H24        13.9092   25.4533   17.5296 H         1 G89         0.2100
     65 H25        15.9151   22.5410   16.6855 H         1 G89         0.0604
     66 H26        13.1739   22.4955   17.9091 H         1 G89         0.1873
     67 H27        14.8720   24.2525   15.1765 H         1 G89         0.0449
     68 H28        13.3061   24.0122   16.0233 H         1 G89         0.0449
     69 H29        11.8368   22.4146   15.1543 H         1 G89         0.0557
     70 H30        11.3717   20.3505   13.9252 H         1 G89         0.0599
     71 H31        13.1608   19.2731   12.5625 H         1 G89         0.0559
     72 H32        15.4876   20.0841   12.8451 H         1 G89         0.0599
     73 H33        15.9883   22.0462   14.2383 H         1 G89         0.0557
     74 H34        17.7713   26.6375   14.7648 H         1 G89         0.0608
     75 H35        21.2695   24.6752   16.2494 H         1 G89         0.0608
     76 H36        19.0968   28.6307   14.1376 H         1 G89         0.0542
     77 H37        22.5831   26.7301   15.7766 H         1 G89         0.0542
     78 H38        23.4725   29.8068   14.7316 H         1 G89         0.0577
     79 H39        23.4196   28.0483   14.3693 H         1 G89         0.0577
     80 H40        23.0951   28.6320   16.0369 H         1 G89         0.0577
@<TRIPOS>BOND
     1    1    2 2  
     2    1    3 1  
     3   22    1 am 
     4    3    4 1  
     5    4    5 1  
     6    4   11 1  
     7    5    6 1  
     8    6    7 1  
     9   10    6 1  
    10    7    8 1  
    11    9    8 1  
    12   10    9 1  
    13    9   12 1  
    14   11   10 1  
    15   13   14 1  
    16   18   13 1  
    17   13   30 am 
    18   14   15 1  
    19   15   16 1  
    20   15   17 1  
    21   19   18 1  
    22   19   20 1  
    23   21   19 1  
    24   21   22 1  
    25   23   21 1  
    26   29   23 1  
    27   24   25 ar 
    28   24   29 ar 
    29   25   26 ar 
    30   26   27 ar 
    31   27   28 ar 
    32   28   29 ar 
    33   30   31 2  
    34   30   32 2  
    35   30   33 1  
    36   33   34 ar 
    37   33   35 ar 
    38   34   36 ar 
    39   35   37 ar 
    40   36   38 ar 
    41   37   38 ar 
    42   38   39 1  
    43   39   40 1  
    44    4   41 1  
    45    5   42 1  
    46    5   43 1  
    47    6   44 1  
    48    8   45 1  
    49    8   46 1  
    50    9   47 1  
    51   10   48 1  
    52   11   49 1  
    53   11   50 1  
    54   12   51 1  
    55   14   52 1  
    56   14   53 1  
    57   15   54 1  
    58   16   55 1  
    59   16   56 1  
    60   16   57 1  
    61   17   58 1  
    62   17   59 1  
    63   17   60 1  
    64   18   61 1  
    65   18   62 1  
    66   19   63 1  
    67   20   64 1  
    68   21   65 1  
    69   22   66 1  
    70   23   67 1  
    71   23   68 1  
    72   24   69 1  
    73   25   70 1  
    74   26   71 1  
    75   27   72 1  
    76   28   73 1  
    77   34   74 1  
    78   35   75 1  
    79   36   76 1  
    80   37   77 1  
    81   40   78 1  
    82   40   79 1  
    83   40   80 1  
@<TRIPOS>SUBSTRUCTURE
     1 G89         1

