### 
### Created by X-TOOL on Mon Sep 10 21:13:11 2018
### 

@<TRIPOS>MOLECULE
3st6_ligand
   22    22     1     0     0
SMALL
GAST_HUCK


@<TRIPOS>ATOM
      1 C8          0.0880  -37.9250   18.2760 C.2       1 RVE        -0.0784
      2 OA'         1.1610  -38.4350   20.9550 O.co2     1 RVE        -0.5553
      3 OB          1.2790  -38.2340   11.8820 O.co2     1 RVE        -0.5674
      4 OB'         2.9700  -37.5330   20.2950 O.co2     1 RVE        -0.5553
      5 OA          1.0000  -39.7890   13.3520 O.co2     1 RVE        -0.5674
      6 O2          1.4390  -39.2500   15.8570 O.2       1 RVE        -0.4028
      7 C5          2.5420  -35.5450   14.7230 C.2       1 RVE        -0.0427
      8 C4          2.6050  -35.9210   16.0500 C.2       1 RVE        -0.0024
      9 C6          2.1080  -36.4160   13.7670 C.2       1 RVE        -0.0436
     10 O3          2.3340  -37.5060   17.7310 O.3       1 RVE        -0.2695
     11 C'          1.8960  -38.0360   20.0910 C.2       1 RVE         0.0985
     12 C           1.2520  -38.6410   13.0360 C.2       1 RVE         0.0559
     13 C7          1.4220  -37.9620   18.5860 C.2       1 RVE         0.1245
     14 C3          2.2020  -37.1720   16.4460 C.3       1 RVE         0.1938
     15 C2          1.8050  -38.0590   15.4880 C.2       1 RVE         0.1620
     16 C1          1.7310  -37.6780   14.1250 C.2       1 RVE         0.0536
     17 H          -0.2380  -37.5183   17.3187 H         1 RVE         0.0272
     18 H          -0.6473  -38.3023   18.9867 H         1 RVE         0.0272
     19 H           2.8433  -34.5378   14.4351 H         1 RVE         0.0522
     20 H           2.9793  -35.2159   16.7922 H         1 RVE         0.0969
     21 H           2.0625  -36.1058   12.7230 H         1 RVE         0.0782
     22 H           1.1554  -37.2856   16.7286 H         1 RVE         0.1152
@<TRIPOS>BOND
     1   13    1 2  
     2   11    2 ar 
     3   12    3 ar 
     4   11    4 ar 
     5   12    5 ar 
     6   15    6 2  
     7    8    7 2  
     8    7    9 1  
     9   14    8 1  
    10    9   16 2  
    11   10   13 1  
    12   14   10 1  
    13   13   11 1  
    14   16   12 1  
    15   14   15 1  
    16   15   16 1  
    17    1   17 1  
    18    1   18 1  
    19    7   19 1  
    20    8   20 1  
    21    9   21 1  
    22   14   22 1  
@<TRIPOS>SUBSTRUCTURE
     1 RVE         1

