### 
### Created by X-TOOL on Mon Sep 10 21:13:06 2018
### 

@<TRIPOS>MOLECULE
3stj_ligand
   53    52     1     0     0
SMALL
GAST_HUCK


@<TRIPOS>ATOM
      1 N         -46.6580   88.8420  -25.3080 N.4       1 UNK         0.2377
      2 CA        -45.8130   89.8950  -24.7440 C.3       1 UNK         0.0621
      3 C         -44.3490   89.4210  -24.5050 C.2       1 UNK         0.2264
      4 O         -44.0950   88.2140  -24.3860 O.2       1 UNK        -0.3907
      5 CB        -46.4150   90.4040  -23.4390 C.3       1 UNK        -0.0040
      6 N         -43.3990   90.3890  -24.4260 N.am      1 UNK        -0.2613
      7 CA        -41.9730   90.1400  -24.2010 C.3       1 UNK         0.1283
      8 C         -41.6820   89.8110  -22.7420 C.2       1 UNK         0.2036
      9 O         -41.9910   90.6040  -21.8450 O.2       1 UNK        -0.3944
     10 CB        -41.1440   91.3460  -24.6280 C.3       1 UNK        -0.0244
     11 N         -41.0750   88.6430  -22.5130 N.am      1 UNK        -0.2640
     12 CA        -40.6890   88.2140  -21.1750 C.3       1 UNK         0.1282
     13 C         -39.2010   88.4730  -20.9600 C.2       1 UNK         0.2036
     14 O         -38.4300   88.4450  -21.9210 O.2       1 UNK        -0.3944
     15 CB        -41.0110   86.7360  -20.9800 C.3       1 UNK        -0.0244
     16 N         -38.8030   88.7400  -19.7070 N.am      1 UNK        -0.2640
     17 CA        -37.4040   88.9610  -19.3680 C.3       1 UNK         0.1282
     18 C         -36.6480   87.6200  -19.2770 C.2       1 UNK         0.2031
     19 O         -37.1810   86.6330  -18.7650 O.2       1 UNK        -0.3944
     20 CB        -37.2870   89.7280  -18.0600 C.3       1 UNK        -0.0244
     21 N         -35.4230   87.5900  -19.8140 N.am      1 UNK        -0.2698
     22 CA        -34.5170   86.4410  -19.8090 C.3       1 UNK         0.0916
     23 C         -33.1040   86.9180  -19.5140 C.2       1 UNK         0.0598
     24 O         -32.3120   86.1138  -18.9539 O.co2     1 UNK        -0.5666
     25 CB        -34.5600   85.6990  -21.1430 C.3       1 UNK        -0.0300
     26 H         -46.2471   88.5085  -26.1799 H         1 UNK         0.2015
     27 H         -46.7249   88.0698  -24.6450 H         1 UNK         0.2015
     28 H         -47.5891   89.2163  -25.4908 H         1 UNK         0.2015
     29 H         -45.7752   90.7031  -25.4745 H         1 UNK         0.1095
     30 H         -46.4129   89.6011  -22.7018 H         1 UNK         0.0310
     31 H         -45.8222   91.2404  -23.0688 H         1 UNK         0.0310
     32 H         -47.4388   90.7331  -23.6167 H         1 UNK         0.0310
     33 H         -43.7000   91.3579  -24.5308 H         1 UNK         0.1884
     34 H         -41.6968   89.2774  -24.8074 H         1 UNK         0.0797
     35 H         -41.4022   92.2019  -24.0044 H         1 UNK         0.0277
     36 H         -40.0847   91.1166  -24.5119 H         1 UNK         0.0277
     37 H         -41.3544   91.5787  -25.6719 H         1 UNK         0.0277
     38 H         -40.8746   88.0297  -23.3030 H         1 UNK         0.1883
     39 H         -41.2546   88.7859  -20.4394 H         1 UNK         0.0797
     40 H         -42.0817   86.5785  -21.1100 H         1 UNK         0.0277
     41 H         -40.4638   86.1462  -21.7153 H         1 UNK         0.0277
     42 H         -40.7168   86.4308  -19.9758 H         1 UNK         0.0277
     43 H         -39.5034   88.7899  -18.9672 H         1 UNK         0.1883
     44 H         -36.9502   89.5573  -20.1596 H         1 UNK         0.0797
     45 H         -37.7841   90.6928  -18.1604 H         1 UNK         0.0277
     46 H         -37.7592   89.1559  -17.2613 H         1 UNK         0.0277
     47 H         -36.2342   89.8831  -17.8241 H         1 UNK         0.0277
     48 H         -35.0918   88.4422  -20.2662 H         1 UNK         0.1875
     49 H         -34.8373   85.7450  -19.0337 H         1 UNK         0.0723
     50 O         -32.7357   88.0833  -19.8206 O.co2     1 UNK        -0.5666
     51 H         -35.5737   85.3429  -21.3267 H         1 UNK         0.0270
     52 H         -34.2606   86.3756  -21.9434 H         1 UNK         0.0270
     53 H         -33.8763   84.8508  -21.1077 H         1 UNK         0.0270
@<TRIPOS>BOND
     1    1    2 1  
     2    2    3 1  
     3    2    5 1  
     4    3    4 2  
     5    3    6 am 
     6    6    7 1  
     7    7    8 1  
     8    7   10 1  
     9    8    9 2  
    10    8   11 am 
    11   11   12 1  
    12   12   13 1  
    13   12   15 1  
    14   13   14 2  
    15   13   16 am 
    16   16   17 1  
    17   17   18 1  
    18   17   20 1  
    19   18   19 2  
    20   18   21 am 
    21   21   22 1  
    22   22   23 1  
    23   22   25 1  
    24   23   24 ar 
    25    1   26 1  
    26    1   27 1  
    27    1   28 1  
    28    2   29 1  
    29    5   30 1  
    30    5   31 1  
    31    5   32 1  
    32    6   33 1  
    33    7   34 1  
    34   10   35 1  
    35   10   36 1  
    36   10   37 1  
    37   11   38 1  
    38   12   39 1  
    39   15   40 1  
    40   15   41 1  
    41   15   42 1  
    42   16   43 1  
    43   17   44 1  
    44   20   45 1  
    45   20   46 1  
    46   20   47 1  
    47   21   48 1  
    48   22   49 1  
    49   23   50 ar 
    50   25   51 1  
    51   25   52 1  
    52   25   53 1  
@<TRIPOS>SUBSTRUCTURE
     1 UNK         1

