### 
### Created by X-TOOL on Mon Sep 10 21:13:06 2018
### 

@<TRIPOS>MOLECULE
3str_ligand
   77    81     1     0     0
SMALL
GAST_HUCK


@<TRIPOS>ATOM
      1 C01        27.2360  -12.8080    9.5350 C.3       1 3LI         0.0188
      2 N02        25.8260  -12.5320    9.5980 N.am      1 3LI        -0.2913
      3 C03        25.1710  -12.1040    8.4800 C.2       1 3LI         0.1966
      4 O04        25.6580  -11.9330    7.3720 O.2       1 3LI        -0.3913
      5 C05        23.7500  -11.8630    8.6930 C.ar      1 3LI         0.0675
      6 C06        22.8800  -12.9130    8.5250 C.ar      1 3LI        -0.0579
      7 C07        21.5410  -12.6890    8.7220 C.ar      1 3LI        -0.0741
      8 C08        21.1000  -11.4380    9.0820 C.ar      1 3LI        -0.0649
      9 C09        21.9870  -10.3980    9.2420 C.ar      1 3LI        -0.0145
     10 C10        21.4810   -9.0550    9.6330 C.3       1 3LI        -0.0321
     11 C11        23.3300  -10.6040    9.0440 C.ar      1 3LI         0.0910
     12 N12        24.2500   -9.5650    9.2130 N.pl3     1 3LI        -0.2399
     13 C13        24.3350   -8.4930    8.3220 C.ar      1 3LI         0.1914
     14 N14        25.2440   -7.5480    8.5800 N.ar      1 3LI        -0.2326
     15 C15        25.3030   -6.5330    7.7120 C.ar      1 3LI         0.1777
     16 N16        24.5100   -6.4590    6.6460 N.ar      1 3LI        -0.2358
     17 C17        23.6250   -7.4440    6.4620 C.ar      1 3LI         0.1747
     18 N18        23.5080   -8.4870    7.2810 N.ar      1 3LI        -0.2328
     19 N19        22.7870   -7.4030    5.3380 N.pl3     1 3LI        -0.2713
     20 C20        21.6050   -8.2240    5.4430 C.3       1 3LI         0.0552
     21 C21        21.0690   -8.4000    4.0390 C.3       1 3LI         0.0481
     22 N22        20.8710   -7.0920    3.4390 N.pl3     1 3LI        -0.3041
     23 C23        22.0690   -6.2810    3.3660 C.3       1 3LI         0.0481
     24 C24        22.5970   -6.0840    4.7740 C.3       1 3LI         0.0552
     25 C25        20.3020   -7.2590    2.1660 C.ar      1 3LI         0.0547
     26 C26        20.6040   -8.3610    1.4010 C.ar      1 3LI        -0.0436
     27 C27        20.0410   -8.5240    0.1570 C.ar      1 3LI        -0.0735
     28 C28        19.1620   -7.5890   -0.3340 C.ar      1 3LI        -0.0745
     29 C29        18.8490   -6.4880    0.4230 C.ar      1 3LI        -0.0597
     30 C30        19.4220   -6.3330    1.6620 C.ar      1 3LI         0.0565
     31 CL31       19.0160   -4.9490    2.5940 Cl        1 3LI        -0.0817
     32 N32        26.2500   -5.5100    7.9230 N.pl3     1 3LI        -0.2430
     33 C33        26.6120   -5.4410    9.3240 C.3       1 3LI         0.0841
     34 S34        26.3900   -3.7440    9.9060 S.3       1 3LI        -0.1306
     35 C35        26.3250   -3.1050    8.2140 C.3       1 3LI         0.0370
     36 C36        25.7640   -4.2440    7.3790 C.3       1 3LI         0.1451
     37 C37        26.2760   -4.0570    5.9830 C.2       1 3LI         0.2055
     38 O38        25.6570   -3.4030    5.1590 O.2       1 3LI        -0.3943
     39 N39        27.4800   -4.6640    5.7280 N.am      1 3LI        -0.2664
     40 C40        28.0630   -4.4310    4.4280 C.3       1 3LI         0.1217
     41 C41        29.3640   -3.7290    4.6520 C.2       1 3LI         0.2213
     42 O42        30.4300   -4.3200    4.7120 O.2       1 3LI        -0.3947
     43 N43        29.2430   -2.3720    4.7880 N.am      1 3LI        -0.1626
     44 O44        30.5010   -1.8280    5.1470 O.3       1 3LI        -0.2717
     45 H1         27.5892  -13.1393   10.5226 H         1 3LI         0.0483
     46 H2         27.7754  -11.8959    9.2398 H         1 3LI         0.0483
     47 H3         27.4219  -13.5999    8.7945 H         1 3LI         0.0483
     48 H4         25.3281  -12.6531   10.4567 H         1 3LI         0.1837
     49 H5         23.2429  -13.8949    8.2435 H         1 3LI         0.0581
     50 H6         20.8312  -13.4982    8.5938 H         1 3LI         0.0518
     51 H7         20.0413  -11.2686    9.2417 H         1 3LI         0.0560
     52 H8         20.3872   -9.0930    9.7428 H         1 3LI         0.0370
     53 H9         21.7463   -8.3228    8.8562 H         1 3LI         0.0370
     54 H10        21.9353   -8.7561   10.5892 H         1 3LI         0.0370
     55 H11        24.8868   -9.5910   10.0222 H         1 3LI         0.2213
     56 H12        20.8542   -7.7278    6.0755 H         1 3LI         0.0551
     57 H13        21.8606   -9.2023    5.8761 H         1 3LI         0.0551
     58 H14        20.1100   -8.9376    4.0754 H         1 3LI         0.0535
     59 H15        21.7894   -8.9753    3.4390 H         1 3LI         0.0535
     60 H16        21.8308   -5.3050    2.9182 H         1 3LI         0.0535
     61 H17        22.8265   -6.7908    2.7526 H         1 3LI         0.0535
     62 H18        23.5540   -5.5423    4.7471 H         1 3LI         0.0551
     63 H19        21.8710   -5.5164    5.3746 H         1 3LI         0.0551
     64 H20        21.2916   -9.1075    1.7817 H         1 3LI         0.0515
     65 H21        20.2918   -9.3941   -0.4389 H         1 3LI         0.0585
     66 H22        18.7181   -7.7204   -1.3142 H         1 3LI         0.0505
     67 H23        18.1546   -5.7459    0.0460 H         1 3LI         0.0588
     68 H24        27.6635   -5.7390    9.4484 H         1 3LI         0.0649
     69 H25        25.9680   -6.1174    9.9051 H         1 3LI         0.0649
     70 H26        27.3320   -2.8314    7.8661 H         1 3LI         0.0426
     71 H27        25.6664   -2.2257    8.1588 H         1 3LI         0.0426
     72 H28        24.6642   -4.2269    7.3893 H         1 3LI         0.0820
     73 H29        27.9316   -5.2398    6.4096 H         1 3LI         0.1881
     74 H30        27.3944   -3.8028    3.8212 H         1 3LI         0.0762
     75 H31        28.2339   -5.3881    3.9135 H         1 3LI         0.0762
     76 H32        28.4013   -1.8486    4.6552 H         1 3LI         0.2217
     77 H33        30.4218   -0.8861    5.2425 H         1 3LI         0.2490
@<TRIPOS>BOND
     1    1    2 1  
     2    2    3 am 
     3    3    4 2  
     4    3    5 1  
     5    5    6 ar 
     6    5   11 ar 
     7    6    7 ar 
     8    7    8 ar 
     9    8    9 ar 
    10    9   10 1  
    11    9   11 ar 
    12   11   12 1  
    13   12   13 1  
    14   13   14 ar 
    15   13   18 ar 
    16   14   15 ar 
    17   15   16 ar 
    18   15   32 1  
    19   16   17 ar 
    20   17   18 ar 
    21   17   19 1  
    22   19   20 1  
    23   19   24 1  
    24   20   21 1  
    25   21   22 1  
    26   22   23 1  
    27   22   25 1  
    28   23   24 1  
    29   25   26 ar 
    30   25   30 ar 
    31   26   27 ar 
    32   27   28 ar 
    33   28   29 ar 
    34   29   30 ar 
    35   30   31 1  
    36   32   33 1  
    37   32   36 1  
    38   33   34 1  
    39   34   35 1  
    40   35   36 1  
    41   36   37 1  
    42   37   38 2  
    43   37   39 am 
    44   39   40 1  
    45   40   41 1  
    46   41   42 2  
    47   41   43 am 
    48   43   44 1  
    49    1   45 1  
    50    1   46 1  
    51    1   47 1  
    52    2   48 1  
    53    6   49 1  
    54    7   50 1  
    55    8   51 1  
    56   10   52 1  
    57   10   53 1  
    58   10   54 1  
    59   12   55 1  
    60   20   56 1  
    61   20   57 1  
    62   21   58 1  
    63   21   59 1  
    64   23   60 1  
    65   23   61 1  
    66   24   62 1  
    67   24   63 1  
    68   26   64 1  
    69   27   65 1  
    70   28   66 1  
    71   29   67 1  
    72   33   68 1  
    73   33   69 1  
    74   35   70 1  
    75   35   71 1  
    76   36   72 1  
    77   39   73 1  
    78   40   74 1  
    79   40   75 1  
    80   43   76 1  
    81   44   77 1  
@<TRIPOS>SUBSTRUCTURE
     1 3LI         1

