### 
### Created by X-TOOL on Mon Sep 10 21:13:08 2018
### 

@<TRIPOS>MOLECULE
3su0_ligand
   95   100     1     0     0
SMALL
GAST_HUCK


@<TRIPOS>ATOM
      1 C1        -12.5030   -6.3010   17.1930 C.3       1 TSV        -0.0069
      2 F1        -15.4590  -15.0730   18.3660 F         1 TSV        -0.1836
      3 N1        -18.1840   -9.4280   14.7240 N.am      1 TSV        -0.2412
      4 O1        -19.2500  -10.8890   16.1840 O.3       1 TSV        -0.2580
      5 S1         -8.8460   -6.3000   13.8030 S.o2      1 TSV         0.0645
      6 C2        -12.1450   -6.7890   15.7940 C.3       1 TSV         0.1453
      7 N2        -12.4210   -8.1780   15.5140 N.am      1 TSV        -0.2722
      8 O2        -17.9170  -11.6560   14.4490 O.2       1 TSV        -0.3774
      9 C3        -13.4200   -5.9580   16.0210 C.3       1 TSV         0.0105
     10 N3        -10.1410   -6.9470   14.4670 N.am      1 TSV        -0.1550
     11 O3        -15.5670   -8.4720   15.3330 O.2       1 TSV        -0.3942
     12 C4        -10.9280   -6.1470   15.1940 C.2       1 TSV         0.2463
     13 N4        -13.2500  -14.5970   14.7470 N.am      1 TSV        -0.2075
     14 O4         -7.9070   -5.7900   14.8000 O.2       1 TSV        -0.1503
     15 C5        -13.4810   -4.4990   15.6360 C.2       1 TSV        -0.0942
     16 N5        -14.9210   -9.9330   13.7790 N.am      1 TSV        -0.2469
     17 O5        -12.3420  -13.9500   12.8390 O.2       1 TSV        -0.3166
     18 C6        -18.4980  -13.0390   16.9990 C.3       1 TSV        -0.0320
     19 O6         -9.2460   -5.2800   12.8230 O.2       1 TSV        -0.1503
     20 C7        -20.5850  -11.9420   17.8370 C.3       1 TSV        -0.0320
     21 O7        -13.1360   -7.7580   13.4200 O.2       1 TSV        -0.3947
     22 C8        -20.4910  -12.8340   15.4940 C.3       1 TSV        -0.0320
     23 O8        -14.0710  -12.7110   13.7440 O.3       1 TSV        -0.2338
     24 C9        -19.6960  -12.1740   16.6220 C.3       1 TSV         0.0905
     25 O9        -10.6660   -4.9660   15.4030 O.2       1 TSV        -0.3402
     26 C10       -14.4280   -4.0260   14.8000 C.2       1 TSV        -0.0985
     27 C11       -12.9970   -8.5310   14.3630 C.2       1 TSV         0.2014
     28 C12       -12.5350  -15.8720   14.8210 C.2       1 TSV         0.0391
     29 C13       -15.5010   -4.9020   14.1650 C.3       1 TSV        -0.0365
     30 C14       -13.4050  -18.0570   17.7950 C.ar      1 TSV        -0.0639
     31 C15       -13.5400   -9.9230   14.2870 C.3       1 TSV         0.1363
     32 C16       -12.7730  -17.6960   16.6090 C.ar      1 TSV        -0.0660
     33 C17       -14.3200  -17.1890   18.4040 C.ar      1 TSV        -0.0284
     34 C18       -15.3800   -4.8860   12.6370 C.3       1 TSV        -0.0464
     35 C19       -16.5300   -5.6460   11.9650 C.3       1 TSV        -0.0513
     36 C20       -18.3950  -10.6940   15.0440 C.2       1 TSV         0.3223
     37 C21       -14.5980  -15.9460   17.8250 C.ar      1 TSV         0.1323
     38 C22       -16.4500   -7.1570   12.2070 C.3       1 TSV        -0.0487
     39 C23        -8.1200   -7.5520   12.9370 C.3       1 TSV         0.1004
     40 C24       -13.0850  -16.4590   16.0700 C.ar      1 TSV        -0.0325
     41 C25       -17.4720   -7.6100   13.2580 C.3       1 TSV        -0.0124
     42 C26       -13.9600  -15.6210   16.6620 C.ar      1 TSV         0.0028
     43 C27       -12.7990  -10.7600   13.2580 C.3       1 TSV         0.0206
     44 C28       -17.2140   -9.0440   13.7220 C.3       1 TSV         0.1330
     45 C29        -6.6750   -7.3450   12.4910 C.3       1 TSV        -0.0268
     46 C30       -13.8470  -11.7150   12.7560 C.3       1 TSV         0.1158
     47 C31       -14.1240  -14.3470   15.8930 C.2       1 TSV         0.0402
     48 C32        -6.9850   -8.3160   13.6260 C.3       1 TSV        -0.0268
     49 C33       -15.8380   -9.1310   14.3320 C.2       1 TSV         0.2064
     50 C34       -15.1070  -10.8880   12.6770 C.3       1 TSV         0.0677
     51 C35       -13.1420  -13.7930   13.7410 C.2       1 TSV         0.4317
     52 H1        -11.9026   -5.5116   17.6688 H         1 TSV         0.0300
     53 H2        -12.8346   -7.0201   17.9565 H         1 TSV         0.0300
     54 H3        -18.7104   -8.7157   15.1883 H         1 TSV         0.1899
     55 H4        -12.1796   -8.8787   16.1854 H         1 TSV         0.1841
     56 H5        -14.4087   -6.4261   15.9054 H         1 TSV         0.0435
     57 H6        -10.3575   -7.9156   14.3447 H         1 TSV         0.2148
     58 H7        -12.7416   -3.8113   16.0437 H         1 TSV         0.0452
     59 H8        -18.8495  -14.0258   17.3348 H         1 TSV         0.0260
     60 H9        -17.9365  -12.5539   17.8110 H         1 TSV         0.0260
     61 H10       -17.8439  -13.1614   16.1231 H         1 TSV         0.0260
     62 H11       -20.9540  -12.9083   18.2112 H         1 TSV         0.0260
     63 H12       -21.4384  -11.3094   17.5515 H         1 TSV         0.0260
     64 H13       -20.0046  -11.4409   18.6257 H         1 TSV         0.0260
     65 H14       -20.8390  -13.8247   15.8217 H         1 TSV         0.0260
     66 H15       -19.8477  -12.9458   14.6087 H         1 TSV         0.0260
     67 H16       -21.3580  -12.2063   15.2404 H         1 TSV         0.0260
     68 H17       -14.4256   -2.9623   14.5666 H         1 TSV         0.0450
     69 H18       -11.7930  -16.2833   14.1382 H         1 TSV         0.0373
     70 H19       -16.4929   -4.5234   14.4525 H         1 TSV         0.0388
     71 H20       -15.3840   -5.9346   14.5255 H         1 TSV         0.0388
     72 H21       -13.1877  -19.0163   18.2505 H         1 TSV         0.0607
     73 H22       -13.4843  -10.3870   15.2828 H         1 TSV         0.0803
     74 H23       -12.0635  -18.3577   16.1254 H         1 TSV         0.0580
     75 H24       -14.8130  -17.4804   19.3244 H         1 TSV         0.0604
     76 H25       -14.4277   -5.3561   12.3506 H         1 TSV         0.0285
     77 H26       -15.3927   -3.8422   12.2900 H         1 TSV         0.0285
     78 H27       -16.4920   -5.4590   10.8817 H         1 TSV         0.0267
     79 H28       -17.4832   -5.2735   12.3682 H         1 TSV         0.0267
     80 H29       -15.4389   -7.4102   12.5585 H         1 TSV         0.0267
     81 H30       -16.6519   -7.6821   11.2618 H         1 TSV         0.0267
     82 H31        -8.8502   -8.0667   12.2952 H         1 TSV         0.0559
     83 H32       -18.4801   -7.5533   12.8216 H         1 TSV         0.0312
     84 H33       -17.4102   -6.9384   14.1270 H         1 TSV         0.0312
     85 H34       -11.9630  -11.3034   13.7225 H         1 TSV         0.0342
     86 H35       -12.4180  -10.1303   12.4405 H         1 TSV         0.0342
     87 H36       -17.2833   -9.7252   12.8611 H         1 TSV         0.0799
     88 H37        -6.1648   -6.3944   12.7054 H         1 TSV         0.0285
     89 H38        -6.3408   -7.7287   11.5158 H         1 TSV         0.0285
     90 H39       -13.5728  -12.1586   11.7875 H         1 TSV         0.0673
     91 H40       -14.7295  -13.4718   16.1241 H         1 TSV         0.0367
     92 H41        -6.8759   -9.3992   13.4687 H         1 TSV         0.0285
     93 H42        -6.6999   -8.0648   14.6583 H         1 TSV         0.0285
     94 H43       -15.1844  -10.3705   11.7095 H         1 TSV         0.0553
     95 H44       -16.0017  -11.5084   12.8336 H         1 TSV         0.0553
@<TRIPOS>BOND
     1    6    1 1  
     2    9    1 1  
     3   37    2 1  
     4    3   36 am 
     5   44    3 1  
     6    4   24 1  
     7   36    4 1  
     8   10    5 am 
     9    5   14 2  
    10    5   19 2  
    11    5   39 1  
    12    7    6 1  
    13    6    9 1  
    14    6   12 1  
    15   27    7 am 
    16   36    8 2  
    17    9   15 1  
    18   12   10 am 
    19   49   11 2  
    20   12   25 2  
    21   13   28 1  
    22   13   47 1  
    23   51   13 am 
    24   15   26 2  
    25   31   16 1  
    26   16   49 am 
    27   16   50 1  
    28   51   17 2  
    29   24   18 1  
    30   24   20 1  
    31   27   21 2  
    32   24   22 1  
    33   46   23 1  
    34   23   51 1  
    35   26   29 1  
    36   31   27 1  
    37   28   40 2  
    38   29   34 1  
    39   32   30 ar 
    40   33   30 ar 
    41   43   31 1  
    42   40   32 ar 
    43   37   33 ar 
    44   34   35 1  
    45   35   38 1  
    46   42   37 ar 
    47   38   41 1  
    48   39   45 1  
    49   39   48 1  
    50   42   40 ar 
    51   41   44 1  
    52   47   42 2  
    53   43   46 1  
    54   44   49 1  
    55   45   48 1  
    56   46   50 1  
    57    1   52 1  
    58    1   53 1  
    59    3   54 1  
    60    7   55 1  
    61    9   56 1  
    62   10   57 1  
    63   15   58 1  
    64   18   59 1  
    65   18   60 1  
    66   18   61 1  
    67   20   62 1  
    68   20   63 1  
    69   20   64 1  
    70   22   65 1  
    71   22   66 1  
    72   22   67 1  
    73   26   68 1  
    74   28   69 1  
    75   29   70 1  
    76   29   71 1  
    77   30   72 1  
    78   31   73 1  
    79   32   74 1  
    80   33   75 1  
    81   34   76 1  
    82   34   77 1  
    83   35   78 1  
    84   35   79 1  
    85   38   80 1  
    86   38   81 1  
    87   39   82 1  
    88   41   83 1  
    89   41   84 1  
    90   43   85 1  
    91   43   86 1  
    92   44   87 1  
    93   45   88 1  
    94   45   89 1  
    95   46   90 1  
    96   47   91 1  
    97   48   92 1  
    98   48   93 1  
    99   50   94 1  
   100   50   95 1  
@<TRIPOS>SUBSTRUCTURE
     1 TSV         1

