### 
### Created by X-TOOL on Mon Sep 10 21:13:08 2018
### 

@<TRIPOS>MOLECULE
3su2_ligand
   95   100     1     0     0
SMALL
GAST_HUCK


@<TRIPOS>ATOM
      1 C1        -12.5500   -6.1330   17.1140 C.3       1 TSV        -0.0069
      2 F1        -15.0240  -15.0310   18.1300 F         1 TSV        -0.1836
      3 N1        -18.1880   -9.2590   14.6250 N.am      1 TSV        -0.2412
      4 O1        -19.4590  -10.7010   15.9150 O.3       1 TSV        -0.2580
      5 S1         -8.9060   -6.0180   13.6980 S.o2      1 TSV         0.0645
      6 C2        -12.1720   -6.5750   15.7020 C.3       1 TSV         0.1453
      7 N2        -12.4470   -7.9540   15.3840 N.am      1 TSV        -0.2722
      8 O2        -18.0590  -11.4960   14.2330 O.2       1 TSV        -0.3774
      9 C3        -13.4600   -5.7630   15.9590 C.3       1 TSV         0.0105
     10 N3        -10.1680   -6.6840   14.3740 N.am      1 TSV        -0.1550
     11 O3        -15.5660   -8.3300   15.2530 O.2       1 TSV        -0.3942
     12 C4        -10.9510   -5.9240   15.1340 C.2       1 TSV         0.2463
     13 N4        -13.1280  -14.4440   14.2970 N.am      1 TSV        -0.2075
     14 O4         -7.9750   -5.5380   14.6780 O.2       1 TSV        -0.1503
     15 C5        -13.5290   -4.3120   15.5760 C.2       1 TSV        -0.0942
     16 N5        -14.9110   -9.7280   13.6550 N.am      1 TSV        -0.2469
     17 O5        -12.3530  -13.7190   12.3320 O.2       1 TSV        -0.3166
     18 C6        -18.9330  -12.9260   16.7200 C.3       1 TSV        -0.0320
     19 O6         -9.3340   -4.9840   12.7750 O.2       1 TSV        -0.1503
     20 C7        -20.9650  -11.6530   17.4680 C.3       1 TSV        -0.0320
     21 O7        -13.1770   -7.4780   13.3050 O.2       1 TSV        -0.3947
     22 C8        -20.8110  -12.5240   15.1210 C.3       1 TSV        -0.0320
     23 O8        -13.9710  -12.4930   13.4610 O.3       1 TSV        -0.2338
     24 C9        -20.0290  -11.9550   16.3010 C.3       1 TSV         0.0905
     25 O9        -10.7150   -4.7610   15.3620 O.2       1 TSV        -0.3402
     26 C10       -14.4580   -3.8240   14.7360 C.2       1 TSV        -0.0985
     27 C11       -13.0010   -8.2850   14.2250 C.2       1 TSV         0.2014
     28 C12       -12.4280  -15.7370   14.2690 C.2       1 TSV         0.0391
     29 C13       -15.5430   -4.6560   14.0820 C.3       1 TSV        -0.0365
     30 C14       -13.0480  -17.9870   17.2480 C.ar      1 TSV        -0.0639
     31 C15       -13.5100   -9.6910   14.1120 C.3       1 TSV         0.1363
     32 C16       -12.5260  -17.6030   16.0300 C.ar      1 TSV        -0.0660
     33 C17       -13.8960  -17.1420   17.9680 C.ar      1 TSV        -0.0284
     34 C18       -15.4290   -4.6610   12.5670 C.3       1 TSV        -0.0464
     35 C19       -16.5660   -5.4610   11.9050 C.3       1 TSV        -0.0513
     36 C20       -18.5100  -10.5260   14.8460 C.2       1 TSV         0.3223
     37 C21       -14.2180  -15.8770   17.4560 C.ar      1 TSV         0.1323
     38 C22       -16.4690   -6.9710   12.1440 C.3       1 TSV        -0.0487
     39 C23        -8.2260   -7.2280   12.7730 C.3       1 TSV         0.1004
     40 C24       -12.8670  -16.3420   15.5480 C.ar      1 TSV        -0.0325
     41 C25       -17.4720   -7.4440   13.1990 C.3       1 TSV        -0.0124
     42 C26       -13.6900  -15.5200   16.2470 C.ar      1 TSV         0.0028
     43 C27       -12.7900  -10.4650   13.0260 C.3       1 TSV         0.0206
     44 C28       -17.2090   -8.8750   13.6440 C.3       1 TSV         0.1330
     45 C29        -6.7950   -6.9930   12.3000 C.3       1 TSV        -0.0268
     46 C30       -13.8100  -11.4430   12.5210 C.3       1 TSV         0.1158
     47 C31       -13.9060  -14.2250   15.5170 C.2       1 TSV         0.0402
     48 C32        -7.0630   -8.0170   13.3810 C.3       1 TSV        -0.0268
     49 C33       -15.8260   -8.9670   14.2490 C.2       1 TSV         0.2064
     50 C34       -15.0990  -10.6680   12.5280 C.3       1 TSV         0.0677
     51 C35       -13.0810  -13.6040   13.3130 C.2       1 TSV         0.4317
     52 H1        -11.9619   -5.3526   17.6190 H         1 TSV         0.0300
     53 H2        -12.8783   -6.8799   17.8518 H         1 TSV         0.0300
     54 H3        -18.6417   -8.5455   15.1590 H         1 TSV         0.1899
     55 H4        -12.2176   -8.6690   16.0445 H         1 TSV         0.1841
     56 H5        -14.4455   -6.2361   15.8370 H         1 TSV         0.0435
     57 H6        -10.3732   -7.6527   14.2342 H         1 TSV         0.2148
     58 H7        -12.7951   -3.6263   15.9968 H         1 TSV         0.0452
     59 H8        -19.3852  -13.8847   17.0138 H         1 TSV         0.0260
     60 H9        -18.3773  -12.5065   17.5716 H         1 TSV         0.0260
     61 H10       -18.2449  -13.0882   15.8772 H         1 TSV         0.0260
     62 H11       -21.4364  -12.5859   17.8108 H         1 TSV         0.0260
     63 H12       -21.7431  -10.9477   17.1409 H         1 TSV         0.0260
     64 H13       -20.3901  -11.2079   18.2935 H         1 TSV         0.0260
     65 H14       -21.2544  -13.4894   15.4063 H         1 TSV         0.0260
     66 H15       -20.1325  -12.6701   14.2677 H         1 TSV         0.0260
     67 H16       -21.6100  -11.8228   14.8383 H         1 TSV         0.0260
     68 H17       -14.4291   -2.7591   14.5101 H         1 TSV         0.0450
     69 H18       -11.7624  -16.1428   13.5086 H         1 TSV         0.0373
     70 H19       -16.5232   -4.2427   14.3619 H         1 TSV         0.0388
     71 H20       -15.4637   -5.6908   14.4464 H         1 TSV         0.0388
     72 H21       -12.7960  -18.9604   17.6530 H         1 TSV         0.0607
     73 H22       -13.4022  -10.1910   15.0858 H         1 TSV         0.0803
     74 H23       -11.8729  -18.2604   15.4676 H         1 TSV         0.0580
     75 H24       -14.3038  -17.4633   18.9196 H         1 TSV         0.0604
     76 H25       -14.4664   -5.1124   12.2849 H         1 TSV         0.0285
     77 H26       -15.4675   -3.6231   12.2046 H         1 TSV         0.0285
     78 H27       -16.5358   -5.2773   10.8209 H         1 TSV         0.0267
     79 H28       -17.5245   -5.1050   12.3107 H         1 TSV         0.0267
     80 H29       -15.4518   -7.2130   12.4857 H         1 TSV         0.0267
     81 H30       -16.6726   -7.4952   11.1986 H         1 TSV         0.0267
     82 H31        -8.9771   -7.7141   12.1331 H         1 TSV         0.0559
     83 H32       -18.4854   -7.3858   12.7751 H         1 TSV         0.0312
     84 H33       -17.4025   -6.7825   14.0751 H         1 TSV         0.0312
     85 H34       -11.9169  -10.9921   13.4381 H         1 TSV         0.0342
     86 H35       -12.4646   -9.7916   12.2194 H         1 TSV         0.0342
     87 H36       -17.2756   -9.5476   12.7762 H         1 TSV         0.0799
     88 H37        -6.2820   -6.0527   12.5503 H         1 TSV         0.0285
     89 H38        -6.4879   -7.3224   11.2964 H         1 TSV         0.0285
     90 H39       -13.5523  -11.8290   11.5237 H         1 TSV         0.0673
     91 H40       -14.4874  -13.3542   15.8163 H         1 TSV         0.0367
     92 H41        -6.9522   -9.0892   13.1619 H         1 TSV         0.0285
     93 H42        -6.7463   -7.8195   14.4157 H         1 TSV         0.0285
     94 H43       -15.2412  -10.1273   11.5807 H         1 TSV         0.0553
     95 H44       -15.9588  -11.3310   12.7044 H         1 TSV         0.0553
@<TRIPOS>BOND
     1    6    1 1  
     2    9    1 1  
     3   37    2 1  
     4    3   36 am 
     5   44    3 1  
     6    4   24 1  
     7   36    4 1  
     8   10    5 am 
     9    5   14 2  
    10    5   19 2  
    11    5   39 1  
    12    7    6 1  
    13    6    9 1  
    14    6   12 1  
    15   27    7 am 
    16   36    8 2  
    17    9   15 1  
    18   12   10 am 
    19   49   11 2  
    20   12   25 2  
    21   13   28 1  
    22   13   47 1  
    23   51   13 am 
    24   15   26 2  
    25   31   16 1  
    26   16   49 am 
    27   16   50 1  
    28   51   17 2  
    29   24   18 1  
    30   24   20 1  
    31   27   21 2  
    32   24   22 1  
    33   46   23 1  
    34   23   51 1  
    35   26   29 1  
    36   31   27 1  
    37   28   40 2  
    38   29   34 1  
    39   32   30 ar 
    40   33   30 ar 
    41   43   31 1  
    42   40   32 ar 
    43   37   33 ar 
    44   34   35 1  
    45   35   38 1  
    46   42   37 ar 
    47   38   41 1  
    48   39   45 1  
    49   39   48 1  
    50   42   40 ar 
    51   41   44 1  
    52   47   42 2  
    53   43   46 1  
    54   44   49 1  
    55   45   48 1  
    56   46   50 1  
    57    1   52 1  
    58    1   53 1  
    59    3   54 1  
    60    7   55 1  
    61    9   56 1  
    62   10   57 1  
    63   15   58 1  
    64   18   59 1  
    65   18   60 1  
    66   18   61 1  
    67   20   62 1  
    68   20   63 1  
    69   20   64 1  
    70   22   65 1  
    71   22   66 1  
    72   22   67 1  
    73   26   68 1  
    74   28   69 1  
    75   29   70 1  
    76   29   71 1  
    77   30   72 1  
    78   31   73 1  
    79   32   74 1  
    80   33   75 1  
    81   34   76 1  
    82   34   77 1  
    83   35   78 1  
    84   35   79 1  
    85   38   80 1  
    86   38   81 1  
    87   39   82 1  
    88   41   83 1  
    89   41   84 1  
    90   43   85 1  
    91   43   86 1  
    92   44   87 1  
    93   45   88 1  
    94   45   89 1  
    95   46   90 1  
    96   47   91 1  
    97   48   92 1  
    98   48   93 1  
    99   50   94 1  
   100   50   95 1  
@<TRIPOS>SUBSTRUCTURE
     1 TSV         1

