### 
### Created by X-TOOL on Mon Sep 10 21:13:08 2018
### 

@<TRIPOS>MOLECULE
3su3_ligand
  106   111     1     0     0
SMALL
GAST_HUCK


@<TRIPOS>ATOM
      1 C         -13.2190   -8.3130   14.3380 C.2       1 SU3         0.2013
      2 N         -15.0790   -9.7590   13.7600 N.am      1 SU3        -0.2469
      3 O         -13.3390   -7.5650   13.3610 O.2       1 SU3        -0.3947
      4 CA        -13.7070   -9.7720   14.3220 C.3       1 SU3         0.1363
      5 CB        -12.9280  -10.6360   13.3500 C.3       1 SU3         0.0206
      6 CG        -13.9840  -11.6500   12.8710 C.3       1 SU3         0.1158
      7 CAF       -16.0620   -9.0130   14.2580 C.2       1 SU3         0.2070
      8 OAG       -15.8160   -8.2300   15.1840 O.2       1 SU3        -0.3942
      9 CAH       -17.4310   -9.0000   13.5910 C.3       1 SU3         0.1378
     10 NAI       -18.4000   -9.2590   14.6430 N.am      1 SU3        -0.2407
     11 CAJ       -18.9750  -10.4380   14.7670 C.2       1 SU3         0.3218
     12 OAK       -19.8220  -10.5200   15.8160 O.3       1 SU3        -0.2633
     13 CAL       -17.7390   -7.6800   12.8350 C.3       1 SU3         0.0025
     14 OAM       -18.8040  -11.3830   13.9980 O.2       1 SU3        -0.3774
     15 CAO       -13.5000  -13.6400   14.0880 C.2       1 SU3         0.4317
     16 OAP       -12.5560  -13.8710   13.3280 O.2       1 SU3        -0.3166
     17 NAQ       -13.7400  -14.4130   15.1000 N.am      1 SU3        -0.2080
     18 CAR       -13.5890   -4.2510   15.7440 C.3       1 SU3        -0.0516
     19 CAS       -14.1100   -4.0390   14.3250 C.3       1 SU3        -0.0651
     20 CAT       -19.0700   -7.8420   12.0710 C.3       1 SU3        -0.0558
     21 NAV       -12.5750   -7.9490   15.4400 N.am      1 SU3        -0.2737
     22 CAX       -12.2610   -6.5640   15.7520 C.3       1 SU3         0.1374
     23 CAY       -11.0250   -5.9310   15.1330 C.2       1 SU3         0.2444
     24 CAZ       -13.5350   -5.7320   16.1000 C.3       1 SU3        -0.0066
     25 CBA       -12.5770   -6.1350   17.1940 C.3       1 SU3        -0.0152
     26 CBB       -13.0680  -15.6580   15.4860 C.2       1 SU3         0.0383
     27 CBC       -13.7280  -16.0780   16.7650 C.ar      1 SU3        -0.0374
     28 CBD       -14.7170  -15.1550   17.0970 C.ar      1 SU3        -0.0293
     29 CBE       -14.8080  -14.0710   16.0480 C.2       1 SU3         0.0366
     30 CBF       -13.4780  -17.1660   17.5880 C.ar      1 SU3        -0.0689
     31 CBG       -14.2250  -17.3170   18.7390 C.ar      1 SU3        -0.0688
     32 CBH       -15.2190  -16.3950   19.0610 C.ar      1 SU3        -0.0606
     33 CBI       -15.4890  -15.2870   18.2460 C.ar      1 SU3        -0.0432
     34 CBJ       -16.5500  -14.2330   18.6400 C.3       1 SU3        -0.0194
     35 NBK       -10.2820   -6.7090   14.3950 N.am      1 SU3        -0.1552
     36 OBL       -10.7840   -4.7530   15.3860 O.2       1 SU3        -0.3404
     37 SBM        -9.0150   -6.0210   13.7240 S.o2      1 SU3         0.0645
     38 CBN        -8.2750   -7.3320   12.7560 C.3       1 SU3         0.1004
     39 OBO        -9.4100   -4.9620   12.7680 O.2       1 SU3        -0.1503
     40 OBP        -8.0200   -5.5670   14.6980 O.2       1 SU3        -0.1503
     41 CBQ        -6.8370   -7.0640   12.2970 C.3       1 SU3        -0.0268
     42 CBR        -7.1230   -8.0160   13.4560 C.3       1 SU3        -0.0268
     43 CBS       -17.9710  -14.6730   18.8470 C.3       1 SU3        -0.0433
     44 CBT       -18.8060  -13.3900   18.9040 C.3       1 SU3        -0.0507
     45 CBU       -19.0990  -12.8450   17.5000 C.3       1 SU3        -0.0453
     46 CBV       -20.4820  -12.2120   17.3980 C.3       1 SU3        -0.0072
     47 CBW       -20.6070  -11.7050   15.9920 C.3       1 SU3         0.0824
     48 CBX       -21.5870  -13.2630   17.5820 C.3       1 SU3        -0.0574
     49 CBY       -20.6460  -11.0700   18.4220 C.3       1 SU3        -0.0574
     50 CBZ       -17.8570   -6.4700   13.7530 C.3       1 SU3        -0.0558
     51 CCA       -16.6270   -7.4330   11.8020 C.3       1 SU3        -0.0558
     52 CD1       -15.2130  -10.7720   12.6760 C.3       1 SU3         0.0677
     53 OD2       -14.2840  -12.5550   13.9460 O.3       1 SU3        -0.2338
     54 H1        -13.6779  -10.1965   15.3363 H         1 SU3         0.0803
     55 H2        -12.0917  -11.1432   13.8534 H         1 SU3         0.0342
     56 H3        -12.5428  -10.0389   12.5103 H         1 SU3         0.0342
     57 H4        -13.6810  -12.1830   11.9577 H         1 SU3         0.0673
     58 H5        -17.4721   -9.8190   12.8579 H         1 SU3         0.0805
     59 H6        -18.6346   -8.5287   15.2846 H         1 SU3         0.1899
     60 H7        -14.2566   -3.7369   16.4511 H         1 SU3         0.0265
     61 H8        -12.5769   -3.8271   15.8209 H         1 SU3         0.0265
     62 H9        -14.1362   -2.9624   14.1011 H         1 SU3         0.0230
     63 H10       -15.1245   -4.4558   14.2408 H         1 SU3         0.0230
     64 H11       -13.4448   -4.5460   13.6106 H         1 SU3         0.0230
     65 H12       -19.2984   -6.9113   11.5309 H         1 SU3         0.0237
     66 H13       -19.8783   -8.0596   12.7846 H         1 SU3         0.0237
     67 H14       -18.9821   -8.6705   11.3528 H         1 SU3         0.0237
     68 H15       -12.2930   -8.6594   16.0848 H         1 SU3         0.1839
     69 H16       -14.5344   -6.1846   16.0202 H         1 SU3         0.0312
     70 H17       -11.9561   -5.3706   17.6841 H         1 SU3         0.0279
     71 H18       -12.8805   -6.8905   17.9337 H         1 SU3         0.0279
     72 H19       -12.2634  -16.1674   14.9578 H         1 SU3         0.0373
     73 H20       -15.5024  -13.2332   16.0052 H         1 SU3         0.0361
     74 H21       -12.7089  -17.8857   17.3317 H         1 SU3         0.0557
     75 H22       -14.0372  -18.1581   19.3965 H         1 SU3         0.0599
     76 H23       -15.7987  -16.5384   19.9656 H         1 SU3         0.0557
     77 H24       -16.5604  -13.4731   17.8448 H         1 SU3         0.0426
     78 H25       -16.2143  -13.7739   19.5815 H         1 SU3         0.0426
     79 H26       -10.4956   -7.6765   14.2598 H         1 SU3         0.2148
     80 H27        -9.0045   -7.8708   12.1335 H         1 SU3         0.0559
     81 H28        -6.3696   -6.0867   12.4877 H         1 SU3         0.0285
     82 H29        -6.4824   -7.4583   11.3332 H         1 SU3         0.0285
     83 H30        -6.9680   -9.0975   13.3282 H         1 SU3         0.0285
     84 H31        -6.8551   -7.7259   14.4827 H         1 SU3         0.0285
     85 H32       -18.0646  -15.2321   19.7897 H         1 SU3         0.0287
     86 H33       -18.3007  -15.3067   18.0105 H         1 SU3         0.0287
     87 H34       -18.2530  -12.6290   19.4742 H         1 SU3         0.0267
     88 H35       -19.7589  -13.6062   19.4092 H         1 SU3         0.0267
     89 H36       -19.0361  -13.6737   16.7794 H         1 SU3         0.0271
     90 H37       -18.3437  -12.0849   17.2516 H         1 SU3         0.0271
     91 H38       -20.2549  -12.4797   15.2949 H         1 SU3         0.0617
     92 H39       -21.6621  -11.4751   15.7823 H         1 SU3         0.0617
     93 H40       -21.5399  -13.6696   18.6030 H         1 SU3         0.0236
     94 H41       -21.4433  -14.0770   16.8563 H         1 SU3         0.0236
     95 H42       -22.5690  -12.7951   17.4186 H         1 SU3         0.0236
     96 H43       -19.8471  -10.3283   18.2751 H         1 SU3         0.0236
     97 H44       -20.5833  -11.4794   19.4410 H         1 SU3         0.0236
     98 H45       -21.6245  -10.5879   18.2801 H         1 SU3         0.0236
     99 H46       -16.9163   -6.3374   14.3075 H         1 SU3         0.0237
    100 H47       -18.6821   -6.6276   14.4631 H         1 SU3         0.0237
    101 H48       -18.0576   -5.5713   13.1512 H         1 SU3         0.0237
    102 H49       -16.5417   -8.3067   11.1391 H         1 SU3         0.0237
    103 H50       -15.6714   -7.2734   12.3229 H         1 SU3         0.0237
    104 H51       -16.8724   -6.5423   11.2049 H         1 SU3         0.0237
    105 H52       -15.2038  -10.2940   11.6853 H         1 SU3         0.0553
    106 H53       -16.1380  -11.3557   12.7929 H         1 SU3         0.0553
@<TRIPOS>BOND
     1    1    3 2  
     2    1    4 1  
     3   21    1 am 
     4    4    2 1  
     5    2    7 am 
     6    2   52 1  
     7    4    5 1  
     8    5    6 1  
     9    6   52 1  
    10    6   53 1  
    11    7    8 2  
    12    7    9 1  
    13    9   10 1  
    14    9   13 1  
    15   10   11 am 
    16   11   12 1  
    17   11   14 2  
    18   12   47 1  
    19   13   20 1  
    20   13   50 1  
    21   13   51 1  
    22   15   16 2  
    23   15   17 am 
    24   53   15 1  
    25   17   26 1  
    26   17   29 1  
    27   18   19 1  
    28   24   18 1  
    29   22   21 1  
    30   22   23 1  
    31   22   24 1  
    32   22   25 1  
    33   23   35 am 
    34   23   36 2  
    35   24   25 1  
    36   26   27 2  
    37   27   28 ar 
    38   27   30 ar 
    39   28   29 2  
    40   28   33 ar 
    41   30   31 ar 
    42   31   32 ar 
    43   32   33 ar 
    44   33   34 1  
    45   34   43 1  
    46   35   37 am 
    47   37   38 1  
    48   37   39 2  
    49   37   40 2  
    50   38   41 1  
    51   38   42 1  
    52   41   42 1  
    53   43   44 1  
    54   44   45 1  
    55   45   46 1  
    56   46   47 1  
    57   46   48 1  
    58   46   49 1  
    59    4   54 1  
    60    5   55 1  
    61    5   56 1  
    62    6   57 1  
    63    9   58 1  
    64   10   59 1  
    65   18   60 1  
    66   18   61 1  
    67   19   62 1  
    68   19   63 1  
    69   19   64 1  
    70   20   65 1  
    71   20   66 1  
    72   20   67 1  
    73   21   68 1  
    74   24   69 1  
    75   25   70 1  
    76   25   71 1  
    77   26   72 1  
    78   29   73 1  
    79   30   74 1  
    80   31   75 1  
    81   32   76 1  
    82   34   77 1  
    83   34   78 1  
    84   35   79 1  
    85   38   80 1  
    86   41   81 1  
    87   41   82 1  
    88   42   83 1  
    89   42   84 1  
    90   43   85 1  
    91   43   86 1  
    92   44   87 1  
    93   44   88 1  
    94   45   89 1  
    95   45   90 1  
    96   47   91 1  
    97   47   92 1  
    98   48   93 1  
    99   48   94 1  
   100   48   95 1  
   101   49   96 1  
   102   49   97 1  
   103   49   98 1  
   104   50   99 1  
   105   50  100 1  
   106   50  101 1  
   107   51  102 1  
   108   51  103 1  
   109   51  104 1  
   110   52  105 1  
   111   52  106 1  
@<TRIPOS>SUBSTRUCTURE
     1 SU3         1

