### 
### Created by X-TOOL on Mon Sep 10 21:13:09 2018
### 

@<TRIPOS>MOLECULE
3su4_ligand
  106   111     1     0     0
SMALL
GAST_HUCK


@<TRIPOS>ATOM
      1 C          37.7570   -0.3560    3.9760 C.2       1 SU3         0.2013
      2 N          39.6980   -1.2750    5.0960 N.am      1 SU3        -0.2469
      3 O          37.9380   -0.9490    2.9150 O.2       1 SU3        -0.3947
      4 CA         38.9260   -0.0270    4.9060 C.3       1 SU3         0.1363
      5 CB         39.9090    0.9630    4.2970 C.3       1 SU3         0.0206
      6 CG         41.2380    0.5210    4.8800 C.3       1 SU3         0.1158
      7 CAF        39.2540   -2.4980    5.4480 C.2       1 SU3         0.2070
      8 OAG        38.0430   -2.6120    5.6780 O.2       1 SU3        -0.3942
      9 CAH        40.1770   -3.7260    5.6260 C.3       1 SU3         0.1378
     10 NAI        39.7950   -4.3900    6.8790 N.am      1 SU3        -0.2407
     11 CAJ        40.4480   -4.2010    8.0150 C.2       1 SU3         0.3218
     12 OAK        39.9660   -4.8910    9.0860 O.3       1 SU3        -0.2633
     13 CAL        40.0660   -4.7130    4.4330 C.3       1 SU3         0.0025
     14 OAM        41.4380   -3.4710    8.1200 O.2       1 SU3        -0.3774
     15 CAO        41.6720    2.0630    6.5820 C.2       1 SU3         0.4317
     16 OAP        41.9590    2.9110    5.7390 O.2       1 SU3        -0.3166
     17 NAQ        41.6830    2.4520    7.8260 N.am      1 SU3        -0.2080
     18 CAR        34.1770   -2.4950    2.6780 C.3       1 SU3        -0.0516
     19 CAS        35.1490   -3.1580    1.7020 C.3       1 SU3        -0.0651
     20 CAT        38.6110   -5.1260    4.2050 C.3       1 SU3        -0.0558
     21 NAV        36.5490   -0.0160    4.4310 N.am      1 SU3        -0.2737
     22 CAX        35.3230   -0.3710    3.7110 C.3       1 SU3         0.1374
     23 CAY        35.0470    0.3980    2.4040 C.2       1 SU3         0.2444
     24 CAZ        34.9110   -1.8360    3.8450 C.3       1 SU3        -0.0066
     25 CBA        34.1220   -0.7460    4.5700 C.3       1 SU3        -0.0152
     26 CBB        41.9760    3.7880    8.3730 C.2       1 SU3         0.0383
     27 CBC        41.8210    3.6520    9.8630 C.ar      1 SU3        -0.0374
     28 CBD        41.4910    2.3300   10.1630 C.ar      1 SU3        -0.0293
     29 CBE        41.3930    1.4980    8.8900 C.2       1 SU3         0.0366
     30 CBF        41.9520    4.5900   10.8820 C.ar      1 SU3        -0.0689
     31 CBG        41.7380    4.1860   12.1840 C.ar      1 SU3        -0.0688
     32 CBH        41.4160    2.8560   12.4860 C.ar      1 SU3        -0.0606
     33 CBI        41.2780    1.9150   11.4710 C.ar      1 SU3        -0.0432
     34 CBJ        40.9460    0.4910   11.8710 C.3       1 SU3        -0.0194
     35 NBK        35.8410    1.4370    2.1500 N.am      1 SU3        -0.1552
     36 OBL        34.1160    0.0580    1.6700 O.2       1 SU3        -0.3404
     37 SBM        35.5350    2.2460    0.7700 S.o2      1 SU3         0.0645
     38 CBN        36.7810    3.5550    0.6790 C.3       1 SU3         0.1004
     39 OBO        35.6720    1.3470   -0.4130 O.2       1 SU3        -0.1503
     40 OBP        34.1890    2.8910    0.7930 O.2       1 SU3        -0.1503
     41 CBQ        36.4480    4.6580   -0.3010 C.3       1 SU3        -0.0268
     42 CBR        36.2590    4.8870    1.2080 C.3       1 SU3        -0.0268
     43 CBS        39.5330    0.0340   11.5140 C.3       1 SU3        -0.0433
     44 CBT        39.3260   -1.4170   11.9600 C.3       1 SU3        -0.0507
     45 CBU        39.8800   -2.4180   10.9220 C.3       1 SU3        -0.0453
     46 CBV        39.7790   -3.8930   11.3620 C.3       1 SU3        -0.0072
     47 CBW        40.6020   -4.6780   10.3650 C.3       1 SU3         0.0824
     48 CBX        40.4300   -4.1080   12.7380 C.3       1 SU3        -0.0574
     49 CBY        38.3030   -4.3770   11.3840 C.3       1 SU3        -0.0574
     50 CBZ        40.6070   -4.0270    3.1660 C.3       1 SU3        -0.0558
     51 CCA        40.8530   -5.9750    4.6970 C.3       1 SU3        -0.0558
     52 CD1        41.1110   -0.9860    4.8150 C.3       1 SU3         0.0677
     53 OD2        41.3610    0.7700    6.2830 O.3       1 SU3        -0.2338
     54 H1         38.5440    0.3577    5.8631 H         1 SU3         0.0803
     55 H2         39.6689    1.9941    4.5957 H         1 SU3         0.0342
     56 H3         39.9146    0.8911    3.1994 H         1 SU3         0.0342
     57 H4         42.0909    0.9284    4.3174 H         1 SU3         0.0673
     58 H5         41.2197   -3.3834    5.6987 H         1 SU3         0.0805
     59 H6         39.0102   -5.0097    6.8739 H         1 SU3         0.1899
     60 H7         33.4919   -3.2593    3.0736 H         1 SU3         0.0265
     61 H8         33.5999   -1.7279    2.1409 H         1 SU3         0.0265
     62 H9         34.5841   -3.6196    0.8787 H         1 SU3         0.0230
     63 H10        35.7271   -3.9315    2.2288 H         1 SU3         0.0230
     64 H11        35.8351   -2.4001    1.2961 H         1 SU3         0.0230
     65 H12        38.5567   -5.8240    3.3566 H         1 SU3         0.0237
     66 H13        38.0067   -4.2336    3.9848 H         1 SU3         0.0237
     67 H14        38.2233   -5.6174    5.1095 H         1 SU3         0.0237
     68 H15        36.4787    0.4954    5.2874 H         1 SU3         0.1839
     69 H16        35.5441   -2.5577    4.3819 H         1 SU3         0.0312
     70 H17        33.1058   -0.4889    4.2365 H         1 SU3         0.0279
     71 H18        34.1812   -0.6606    5.6651 H         1 SU3         0.0279
     72 H19        42.2473    4.6840    7.8167 H         1 SU3         0.0373
     73 H20        41.1606    0.4382    8.7967 H         1 SU3         0.0361
     74 H21        42.2167    5.6170   10.6579 H         1 SU3         0.0557
     75 H22        41.8204    4.9097   12.9868 H         1 SU3         0.0599
     76 H23        41.2734    2.5583   13.5185 H         1 SU3         0.0557
     77 H24        41.0673    0.4054   12.9609 H         1 SU3         0.0426
     78 H25        41.6588   -0.1797   11.3689 H         1 SU3         0.0426
     79 H26        36.5798    1.7039    2.7688 H         1 SU3         0.2148
     80 H27        37.8072    3.1965    0.8471 H         1 SU3         0.0559
     81 H28        35.5702    4.5642   -0.9572 H         1 SU3         0.0285
     82 H29        37.2545    5.1774   -0.8393 H         1 SU3         0.0285
     83 H30        36.9313    5.5669    1.7518 H         1 SU3         0.0285
     84 H31        35.2470    4.9537    1.6339 H         1 SU3         0.0285
     85 H32        39.3908    0.1048   10.4255 H         1 SU3         0.0287
     86 H33        38.8015    0.6796   12.0221 H         1 SU3         0.0287
     87 H34        38.2493   -1.5994   12.0917 H         1 SU3         0.0267
     88 H35        39.8442   -1.5731   12.9176 H         1 SU3         0.0267
     89 H36        40.9393   -2.1814   10.7434 H         1 SU3         0.0271
     90 H37        39.3143   -2.2959    9.9866 H         1 SU3         0.0271
     91 H38        41.5417   -4.1327   10.1929 H         1 SU3         0.0617
     92 H39        40.8240   -5.6617   10.8044 H         1 SU3         0.0617
     93 H40        39.8646   -3.5539   13.5017 H         1 SU3         0.0236
     94 H41        41.4676   -3.7436   12.7137 H         1 SU3         0.0236
     95 H42        40.4236   -5.1803   12.9832 H         1 SU3         0.0236
     96 H43        37.8500   -4.2174   10.3944 H         1 SU3         0.0236
     97 H44        37.7418   -3.8083   12.1401 H         1 SU3         0.0236
     98 H45        38.2720   -5.4480   11.6330 H         1 SU3         0.0236
     99 H46        41.6534   -3.7294    3.3286 H         1 SU3         0.0237
    100 H47        40.0023   -3.1351    2.9453 H         1 SU3         0.0237
    101 H48        40.5521   -4.7262    2.3186 H         1 SU3         0.0237
    102 H49        40.4665   -6.4655    5.6026 H         1 SU3         0.0237
    103 H50        41.9138   -5.7222    4.8414 H         1 SU3         0.0237
    104 H51        40.7518   -6.6564    3.8394 H         1 SU3         0.0237
    105 H52        41.3864   -1.3519    3.8149 H         1 SU3         0.0553
    106 H53        41.7572   -1.4588    5.5692 H         1 SU3         0.0553
@<TRIPOS>BOND
     1    1    3 2  
     2    1    4 1  
     3   21    1 am 
     4    4    2 1  
     5    2    7 am 
     6    2   52 1  
     7    4    5 1  
     8    5    6 1  
     9    6   52 1  
    10    6   53 1  
    11    7    8 2  
    12    7    9 1  
    13    9   10 1  
    14    9   13 1  
    15   10   11 am 
    16   11   12 1  
    17   11   14 2  
    18   12   47 1  
    19   13   20 1  
    20   13   50 1  
    21   13   51 1  
    22   15   16 2  
    23   15   17 am 
    24   53   15 1  
    25   17   26 1  
    26   17   29 1  
    27   18   19 1  
    28   24   18 1  
    29   22   21 1  
    30   22   23 1  
    31   22   24 1  
    32   22   25 1  
    33   23   35 am 
    34   23   36 2  
    35   24   25 1  
    36   26   27 2  
    37   27   28 ar 
    38   27   30 ar 
    39   28   29 2  
    40   28   33 ar 
    41   30   31 ar 
    42   31   32 ar 
    43   32   33 ar 
    44   33   34 1  
    45   34   43 1  
    46   35   37 am 
    47   37   38 1  
    48   37   39 2  
    49   37   40 2  
    50   38   41 1  
    51   38   42 1  
    52   41   42 1  
    53   43   44 1  
    54   44   45 1  
    55   45   46 1  
    56   46   47 1  
    57   46   48 1  
    58   46   49 1  
    59    4   54 1  
    60    5   55 1  
    61    5   56 1  
    62    6   57 1  
    63    9   58 1  
    64   10   59 1  
    65   18   60 1  
    66   18   61 1  
    67   19   62 1  
    68   19   63 1  
    69   19   64 1  
    70   20   65 1  
    71   20   66 1  
    72   20   67 1  
    73   21   68 1  
    74   24   69 1  
    75   25   70 1  
    76   25   71 1  
    77   26   72 1  
    78   29   73 1  
    79   30   74 1  
    80   31   75 1  
    81   32   76 1  
    82   34   77 1  
    83   34   78 1  
    84   35   79 1  
    85   38   80 1  
    86   41   81 1  
    87   41   82 1  
    88   42   83 1  
    89   42   84 1  
    90   43   85 1  
    91   43   86 1  
    92   44   87 1  
    93   44   88 1  
    94   45   89 1  
    95   45   90 1  
    96   47   91 1  
    97   47   92 1  
    98   48   93 1  
    99   48   94 1  
   100   48   95 1  
   101   49   96 1  
   102   49   97 1  
   103   49   98 1  
   104   50   99 1  
   105   50  100 1  
   106   50  101 1  
   107   51  102 1  
   108   51  103 1  
   109   51  104 1  
   110   52  105 1  
   111   52  106 1  
@<TRIPOS>SUBSTRUCTURE
     1 SU3         1

