### 
### Created by X-TOOL on Mon Sep 10 21:13:09 2018
### 

@<TRIPOS>MOLECULE
3su5_ligand
  106   111     1     0     0
SMALL
GAST_HUCK


@<TRIPOS>ATOM
      1 C         -13.2070   -8.3430   14.1530 C.2       1 SU3         0.2013
      2 N         -15.0550   -9.7890   13.6030 N.am      1 SU3        -0.2469
      3 O         -13.3730   -7.5950   13.1870 O.2       1 SU3        -0.3947
      4 CA        -13.6660   -9.7990   14.1300 C.3       1 SU3         0.1363
      5 CB        -12.8890  -10.6190   13.1400 C.3       1 SU3         0.0206
      6 CG        -13.9210  -11.6480   12.7010 C.3       1 SU3         0.1158
      7 CAF       -16.0400   -9.0460   14.0850 C.2       1 SU3         0.2070
      8 OAG       -15.7870   -8.2880   15.0310 O.2       1 SU3        -0.3942
      9 CAH       -17.4290   -9.0470   13.4430 C.3       1 SU3         0.1378
     10 NAI       -18.4200   -9.3070   14.4980 N.am      1 SU3        -0.2407
     11 CAJ       -18.9420  -10.5040   14.6680 C.2       1 SU3         0.3218
     12 OAK       -19.8030  -10.5890   15.7100 O.3       1 SU3        -0.2633
     13 CAL       -17.7230   -7.7300   12.7010 C.3       1 SU3         0.0025
     14 OAM       -18.7480  -11.4570   13.9140 O.2       1 SU3        -0.3774
     15 CAO       -13.4460  -13.6590   13.9000 C.2       1 SU3         0.4317
     16 OAP       -12.4700  -13.8470   13.1580 O.2       1 SU3        -0.3166
     17 NAQ       -13.6830  -14.4700   14.8970 N.am      1 SU3        -0.2080
     18 CAR       -13.5910   -4.2920   15.5080 C.3       1 SU3        -0.0516
     19 CAS       -14.0810   -4.1140   14.0650 C.3       1 SU3        -0.0651
     20 CAT       -17.8200   -6.5130   13.6400 C.3       1 SU3        -0.0558
     21 NAV       -12.5730   -7.9790   15.2670 N.am      1 SU3        -0.2737
     22 CAX       -12.2550   -6.6000   15.5880 C.3       1 SU3         0.1374
     23 CAY       -11.0320   -5.9510   14.9610 C.2       1 SU3         0.2444
     24 CAZ       -13.5290   -5.7720   15.8970 C.3       1 SU3        -0.0066
     25 CBA       -12.5520   -6.1440   17.0110 C.3       1 SU3        -0.0152
     26 CBB       -12.8870  -15.6250   15.3330 C.2       1 SU3         0.0383
     27 CBC       -13.5740  -16.1360   16.5770 C.ar      1 SU3        -0.0374
     28 CBD       -14.7230  -15.3930   16.8350 C.ar      1 SU3        -0.0293
     29 CBE       -14.8540  -14.2910   15.7820 C.2       1 SU3         0.0366
     30 CBF       -13.2410  -17.1940   17.4080 C.ar      1 SU3        -0.0689
     31 CBG       -14.0330  -17.5020   18.4960 C.ar      1 SU3        -0.0688
     32 CBH       -15.1710  -16.7590   18.7510 C.ar      1 SU3        -0.0606
     33 CBI       -15.5310  -15.6890   17.9390 C.ar      1 SU3        -0.0432
     34 CBJ       -16.8510  -15.0390   18.3620 C.3       1 SU3        -0.0194
     35 NBK       -10.2650   -6.7480   14.2520 N.am      1 SU3        -0.1552
     36 OBL       -10.7920   -4.7750   15.2180 O.2       1 SU3        -0.3404
     37 SBM        -9.0000   -6.0590   13.5690 S.o2      1 SU3         0.0645
     38 CBN        -8.2520   -7.3520   12.5800 C.3       1 SU3         0.1004
     39 OBO        -9.4250   -4.9830   12.6280 O.2       1 SU3        -0.1503
     40 OBP        -7.9920   -5.6090   14.5520 O.2       1 SU3        -0.1503
     41 CBQ        -6.8170   -7.0550   12.1740 C.3       1 SU3        -0.0268
     42 CBR        -7.1160   -8.0870   13.2750 C.3       1 SU3        -0.0268
     43 CBS       -16.8620  -13.5820   18.6990 C.3       1 SU3        -0.0433
     44 CBT       -18.3460  -13.1880   18.7590 C.3       1 SU3        -0.0507
     45 CBU       -18.8630  -12.8890   17.3500 C.3       1 SU3        -0.0453
     46 CBV       -20.2910  -12.3570   17.3220 C.3       1 SU3        -0.0072
     47 CBW       -20.4830  -11.8340   15.9170 C.3       1 SU3         0.0824
     48 CBX       -21.3220  -13.4690   17.5450 C.3       1 SU3        -0.0574
     49 CBY       -20.4790  -11.2430   18.3670 C.3       1 SU3        -0.0574
     50 CBZ       -16.6380   -7.4910   11.6620 C.3       1 SU3        -0.0558
     51 CCA       -19.0650   -7.8660   11.9750 C.3       1 SU3        -0.0558
     52 CD1       -15.1760  -10.7870   12.5220 C.3       1 SU3         0.0677
     53 OD2       -14.2760  -12.6070   13.7300 O.3       1 SU3        -0.2338
     54 H1        -13.6079  -10.2394   15.1363 H         1 SU3         0.0803
     55 H2        -12.0211  -11.1007   13.6140 H         1 SU3         0.0342
     56 H3        -12.5503  -10.0059   12.2918 H         1 SU3         0.0342
     57 H4        -13.6087  -12.1605   11.7792 H         1 SU3         0.0673
     58 H5        -17.4745   -9.8650   12.7090 H         1 SU3         0.0805
     59 H6        -18.7033   -8.5594   15.0987 H         1 SU3         0.1899
     60 H7        -14.2819   -3.7717   16.1876 H         1 SU3         0.0265
     61 H8        -12.5860   -3.8548   15.6015 H         1 SU3         0.0265
     62 H9        -14.1138   -3.0425   13.8185 H         1 SU3         0.0230
     63 H10       -15.0882   -4.5444   13.9640 H         1 SU3         0.0230
     64 H11       -13.3923   -4.6274   13.3779 H         1 SU3         0.0230
     65 H12       -18.0305   -5.6096   13.0488 H         1 SU3         0.0237
     66 H13       -16.8678   -6.3867   14.1761 H         1 SU3         0.0237
     67 H14       -18.6309   -6.6735   14.3657 H         1 SU3         0.0237
     68 H15       -12.3028   -8.6918   15.9142 H         1 SU3         0.1839
     69 H16       -14.5252   -6.2330   15.8265 H         1 SU3         0.0312
     70 H17       -11.9308   -5.3646   17.4765 H         1 SU3         0.0279
     71 H18       -12.8454   -6.8822   17.7719 H         1 SU3         0.0279
     72 H19       -11.9923  -16.0271   14.8600 H         1 SU3         0.0373
     73 H20       -15.6379  -13.5394   15.7018 H         1 SU3         0.0361
     74 H21       -12.3542  -17.7826   17.2026 H         1 SU3         0.0557
     75 H22       -13.7634  -18.3243   19.1488 H         1 SU3         0.0599
     76 H23       -15.7943  -17.0155   19.6000 H         1 SU3         0.0557
     77 H24       -17.2066  -15.5791   19.2518 H         1 SU3         0.0426
     78 H25       -17.5624  -15.1849   17.5358 H         1 SU3         0.0426
     79 H26       -10.4618   -7.7229   14.1476 H         1 SU3         0.2148
     80 H27        -8.9687   -7.8568   11.9156 H         1 SU3         0.0559
     81 H28        -6.3595   -6.0890   12.4339 H         1 SU3         0.0285
     82 H29        -6.4414   -7.3871   11.1949 H         1 SU3         0.0285
     83 H30        -6.9547   -9.1583   13.0846 H         1 SU3         0.0285
     84 H31        -6.8729   -7.8602   14.3235 H         1 SU3         0.0285
     85 H32       -16.3414  -13.0033   17.9218 H         1 SU3         0.0287
     86 H33       -16.3782  -13.4083   19.6715 H         1 SU3         0.0287
     87 H34       -18.4605  -12.2923   19.3871 H         1 SU3         0.0267
     88 H35       -18.9260  -14.0162   19.1921 H         1 SU3         0.0267
     89 H36       -18.8269  -13.8181   16.7623 H         1 SU3         0.0271
     90 H37       -18.2036  -12.1383   16.8900 H         1 SU3         0.0271
     91 H38       -20.0909  -12.5755   15.2054 H         1 SU3         0.0617
     92 H39       -21.5580  -11.6858   15.7371 H         1 SU3         0.0617
     93 H40       -21.2104  -13.8739   18.5616 H         1 SU3         0.0236
     94 H41       -21.1600  -14.2719   16.8107 H         1 SU3         0.0236
     95 H42       -22.3355  -13.0593   17.4228 H         1 SU3         0.0236
     96 H43       -19.7343  -10.4514   18.1971 H         1 SU3         0.0236
     97 H44       -20.3465  -11.6606   19.3760 H         1 SU3         0.0236
     98 H45       -21.4905  -10.8207   18.2748 H         1 SU3         0.0236
     99 H46       -16.5721   -8.3622   10.9937 H         1 SU3         0.0237
    100 H47       -15.6724   -7.3429   12.1676 H         1 SU3         0.0237
    101 H48       -16.8849   -6.5952   11.0733 H         1 SU3         0.0237
    102 H49       -19.8640   -8.0397   12.7108 H         1 SU3         0.0237
    103 H50       -19.0195   -8.7142   11.2761 H         1 SU3         0.0237
    104 H51       -19.2752   -6.9418   11.4168 H         1 SU3         0.0237
    105 H52       -15.1839  -10.3011   11.5352 H         1 SU3         0.0553
    106 H53       -16.0885  -11.3896   12.6414 H         1 SU3         0.0553
@<TRIPOS>BOND
     1    1    3 2  
     2    1    4 1  
     3   21    1 am 
     4    4    2 1  
     5    2    7 am 
     6    2   52 1  
     7    4    5 1  
     8    5    6 1  
     9    6   52 1  
    10    6   53 1  
    11    7    8 2  
    12    7    9 1  
    13    9   10 1  
    14    9   13 1  
    15   10   11 am 
    16   11   12 1  
    17   11   14 2  
    18   12   47 1  
    19   13   20 1  
    20   13   50 1  
    21   13   51 1  
    22   15   16 2  
    23   15   17 am 
    24   53   15 1  
    25   17   26 1  
    26   17   29 1  
    27   18   19 1  
    28   24   18 1  
    29   22   21 1  
    30   22   23 1  
    31   22   24 1  
    32   22   25 1  
    33   23   35 am 
    34   23   36 2  
    35   24   25 1  
    36   26   27 2  
    37   27   28 ar 
    38   27   30 ar 
    39   28   29 2  
    40   28   33 ar 
    41   30   31 ar 
    42   31   32 ar 
    43   32   33 ar 
    44   33   34 1  
    45   34   43 1  
    46   35   37 am 
    47   37   38 1  
    48   37   39 2  
    49   37   40 2  
    50   38   41 1  
    51   38   42 1  
    52   41   42 1  
    53   43   44 1  
    54   44   45 1  
    55   45   46 1  
    56   46   47 1  
    57   46   48 1  
    58   46   49 1  
    59    4   54 1  
    60    5   55 1  
    61    5   56 1  
    62    6   57 1  
    63    9   58 1  
    64   10   59 1  
    65   18   60 1  
    66   18   61 1  
    67   19   62 1  
    68   19   63 1  
    69   19   64 1  
    70   20   65 1  
    71   20   66 1  
    72   20   67 1  
    73   21   68 1  
    74   24   69 1  
    75   25   70 1  
    76   25   71 1  
    77   26   72 1  
    78   29   73 1  
    79   30   74 1  
    80   31   75 1  
    81   32   76 1  
    82   34   77 1  
    83   34   78 1  
    84   35   79 1  
    85   38   80 1  
    86   41   81 1  
    87   41   82 1  
    88   42   83 1  
    89   42   84 1  
    90   43   85 1  
    91   43   86 1  
    92   44   87 1  
    93   44   88 1  
    94   45   89 1  
    95   45   90 1  
    96   47   91 1  
    97   47   92 1  
    98   48   93 1  
    99   48   94 1  
   100   48   95 1  
   101   49   96 1  
   102   49   97 1  
   103   49   98 1  
   104   50   99 1  
   105   50  100 1  
   106   50  101 1  
   107   51  102 1  
   108   51  103 1  
   109   51  104 1  
   110   52  105 1  
   111   52  106 1  
@<TRIPOS>SUBSTRUCTURE
     1 SU3         1

