### 
### Created by X-TOOL on Mon Sep 10 21:13:08 2018
### 

@<TRIPOS>MOLECULE
3su6_ligand
  108   113     1     0     0
SMALL
GAST_HUCK


@<TRIPOS>ATOM
      1 C         -13.1670   -8.2360   14.1050 C.2       1 SU3         0.2013
      2 N         -15.0370   -9.7380   13.5600 N.am      1 SU3        -0.2469
      3 O         -13.3300   -7.4750   13.1520 O.2       1 SU3        -0.3947
      4 CA        -13.6390   -9.7030   14.0420 C.3       1 SU3         0.1363
      5 CB        -12.8810  -10.5150   13.0170 C.3       1 SU3         0.0204
      6 CG        -13.9050  -11.5560   12.5820 C.3       1 SU3         0.1127
      7 CAF       -16.0220   -9.0110   14.1010 C.2       1 SU3         0.2070
      8 OAG       -15.7780   -8.2560   15.0510 O.2       1 SU3        -0.3942
      9 CAH       -17.4090   -9.0830   13.5160 C.3       1 SU3         0.1378
     10 NAI       -18.3520   -9.3380   14.6020 N.am      1 SU3        -0.2407
     11 CAJ       -18.9620  -10.5050   14.7420 C.2       1 SU3         0.3218
     12 OAK       -19.7660  -10.5530   15.8190 O.3       1 SU3        -0.2633
     13 CAL       -17.7850   -7.7940   12.7300 C.3       1 SU3         0.0025
     14 OAM       -18.8460  -11.4490   13.9560 O.2       1 SU3        -0.3774
     15 CAO       -13.2810  -13.5920   13.6730 C.2       1 SU3         0.3258
     16 OAP       -12.4010  -13.7490   12.8300 O.2       1 SU3        -0.3772
     17 NAQ       -13.4530  -14.4660   14.6440 N.am      1 SU3        -0.2301
     18 CAR       -13.6390   -4.1830   15.5280 C.3       1 SU3        -0.0516
     19 CAS       -14.0700   -3.9800   14.0860 C.3       1 SU3        -0.0651
     20 CAT       -19.1540   -8.0200   12.0660 C.3       1 SU3        -0.0558
     21 NAV       -12.5760   -7.8850   15.2410 N.am      1 SU3        -0.2737
     22 CAX       -12.2780   -6.5050   15.5610 C.3       1 SU3         0.1374
     23 CAY       -11.0370   -5.8800   14.9480 C.2       1 SU3         0.2444
     24 CAZ       -13.5550   -5.6760   15.8630 C.3       1 SU3        -0.0066
     25 CBA       -12.6100   -6.0870   16.9800 C.3       1 SU3        -0.0152
     26 CBB       -12.7530  -15.7370   14.9020 C.3       1 SU3         0.0673
     27 CBC       -13.3740  -16.3040   16.1690 C.ar      1 SU3        -0.0233
     28 CBD       -14.3540  -15.4340   16.6200 C.ar      1 SU3        -0.0151
     29 CBE       -14.4700  -14.2330   15.6840 C.3       1 SU3         0.0665
     30 CBF       -13.1160  -17.4750   16.8810 C.ar      1 SU3        -0.0717
     31 CBG       -13.8390  -17.7470   18.0370 C.ar      1 SU3        -0.0819
     32 CBH       -14.8170  -16.8640   18.4820 C.ar      1 SU3        -0.0736
     33 CBI       -15.0890  -15.6930   17.7730 C.ar      1 SU3        -0.0456
     34 CBJ       -16.1640  -14.7590   18.3250 C.3       1 SU3        -0.0232
     35 NBK       -10.2690   -6.6940   14.2140 N.am      1 SU3        -0.1552
     36 OBL       -10.7760   -4.7070   15.2180 O.2       1 SU3        -0.3404
     37 SBM        -8.9790   -5.9850   13.5920 S.o2      1 SU3         0.0645
     38 CBN        -8.2210   -7.2790   12.6340 C.3       1 SU3         0.1004
     39 OBO        -9.3660   -4.9470   12.6480 O.2       1 SU3        -0.1503
     40 OBP        -8.0190   -5.5150   14.5760 O.2       1 SU3        -0.1503
     41 CBQ        -6.8040   -6.9940   12.1820 C.3       1 SU3        -0.0268
     42 CBR        -7.0620   -8.0220   13.2870 C.3       1 SU3        -0.0268
     43 CBS       -17.5460  -15.0480   17.7650 C.3       1 SU3        -0.0444
     44 CBT       -18.5210  -13.9560   18.2230 C.3       1 SU3        -0.0508
     45 CBU       -18.9900  -13.1330   17.0240 C.3       1 SU3        -0.0453
     46 CBV       -20.3290  -12.4280   17.2550 C.3       1 SU3        -0.0072
     47 CBW       -20.6290  -11.6860   15.9650 C.3       1 SU3         0.0824
     48 CBX       -21.4510  -13.4460   17.4810 C.3       1 SU3        -0.0574
     49 CBY       -20.2540  -11.4410   18.4320 C.3       1 SU3        -0.0574
     50 CBZ       -17.8560   -6.5380   13.5990 C.3       1 SU3        -0.0558
     51 CCA       -16.7360   -7.5650   11.6480 C.3       1 SU3        -0.0558
     52 CD1       -15.2010  -10.7410   12.4810 C.3       1 SU3         0.0674
     53 OD2       -14.1000  -12.5160   13.6520 O.3       1 SU3        -0.2580
     54 H1        -13.5492  -10.1606   15.0383 H         1 SU3         0.0803
     55 H2        -11.9973  -10.9925   13.4653 H         1 SU3         0.0342
     56 H3        -12.5685   -9.8887   12.1684 H         1 SU3         0.0342
     57 H4        -13.6302  -12.0482   11.6375 H         1 SU3         0.0670
     58 H5        -17.4463   -9.9284   12.8133 H         1 SU3         0.0805
     59 H6        -18.5427   -8.6092   15.2597 H         1 SU3         0.1899
     60 H7        -14.3712   -3.7040   16.1946 H         1 SU3         0.0265
     61 H8        -12.6510   -3.7232   15.6778 H         1 SU3         0.0265
     62 H9        -14.1236   -2.9033   13.8675 H         1 SU3         0.0230
     63 H10       -15.0594   -4.4352   13.9314 H         1 SU3         0.0230
     64 H11       -13.3392   -4.4544   13.4146 H         1 SU3         0.0230
     65 H12       -19.4416   -7.1197   11.5031 H         1 SU3         0.0237
     66 H13       -19.9079   -8.2245   12.8405 H         1 SU3         0.0237
     67 H14       -19.0916   -8.8772   11.3795 H         1 SU3         0.0237
     68 H15       -12.3285   -8.5977   15.8974 H         1 SU3         0.1839
     69 H16       -14.5465   -6.1402   15.7561 H         1 SU3         0.0312
     70 H17       -11.9954   -5.3257   17.4827 H         1 SU3         0.0279
     71 H18       -12.9270   -6.8443   17.7121 H         1 SU3         0.0279
     72 H19       -11.6776  -15.5587   15.0495 H         1 SU3         0.0670
     73 H20       -12.8976  -16.4312   14.0611 H         1 SU3         0.0670
     74 H21       -15.4749  -14.1842   15.2392 H         1 SU3         0.0656
     75 H22       -14.2630  -13.2983   16.2257 H         1 SU3         0.0656
     76 H23       -12.3574  -18.1680   16.5357 H         1 SU3         0.0482
     77 H24       -13.6389  -18.6542   18.5957 H         1 SU3         0.0525
     78 H25       -15.3720  -17.0869   19.3861 H         1 SU3         0.0482
     79 H26       -15.8926  -13.7236   18.0715 H         1 SU3         0.0410
     80 H27       -16.1984  -14.8718   19.4187 H         1 SU3         0.0410
     81 H28       -10.4833   -7.6598   14.0678 H         1 SU3         0.2148
     82 H29        -8.9489   -7.7952   11.9908 H         1 SU3         0.0559
     83 H30        -6.3321   -6.0309   12.4263 H         1 SU3         0.0285
     84 H31        -6.4660   -7.3267   11.1895 H         1 SU3         0.0285
     85 H32        -6.9124   -9.0937   13.0891 H         1 SU3         0.0285
     86 H33        -6.7785   -7.7978   14.3259 H         1 SU3         0.0285
     87 H34       -17.8927  -16.0259   18.1303 H         1 SU3         0.0286
     88 H35       -17.5009  -15.0620   16.6660 H         1 SU3         0.0286
     89 H36       -18.0151  -13.2951   18.9422 H         1 SU3         0.0267
     90 H37       -19.3915  -14.4247   18.7052 H         1 SU3         0.0267
     91 H38       -19.0948  -13.8051   16.1596 H         1 SU3         0.0271
     92 H39       -18.2280  -12.3704   16.8053 H         1 SU3         0.0271
     93 H40       -20.4783  -12.3665   15.1140 H         1 SU3         0.0617
     94 H41       -21.6743  -11.3438   15.9803 H         1 SU3         0.0617
     95 H42       -21.2606  -14.0009   18.4115 H         1 SU3         0.0236
     96 H43       -21.4844  -14.1487   16.6354 H         1 SU3         0.0236
     97 H44       -22.4137  -12.9195   17.5585 H         1 SU3         0.0236
     98 H45       -19.4442  -10.7183   18.2534 H         1 SU3         0.0236
     99 H46       -20.0537  -11.9936   19.3618 H         1 SU3         0.0236
    100 H47       -21.2103  -10.9051   18.5227 H         1 SU3         0.0236
    101 H48       -16.8806   -6.3682   14.0783 H         1 SU3         0.0237
    102 H49       -18.6266   -6.6705   14.3727 H         1 SU3         0.0237
    103 H50       -18.1117   -5.6717   12.9712 H         1 SU3         0.0237
    104 H51       -16.6674   -8.4578   11.0091 H         1 SU3         0.0237
    105 H52       -15.7599   -7.3746   12.1180 H         1 SU3         0.0237
    106 H53       -17.0238   -6.6974   11.0360 H         1 SU3         0.0237
    107 H54       -15.2893  -10.2557   11.4978 H         1 SU3         0.0553
    108 H55       -16.0830  -11.3741   12.6580 H         1 SU3         0.0553
@<TRIPOS>BOND
     1    1    3 2  
     2    1    4 1  
     3   21    1 am 
     4    4    2 1  
     5    2    7 am 
     6    2   52 1  
     7    4    5 1  
     8    5    6 1  
     9    6   52 1  
    10    6   53 1  
    11    7    8 2  
    12    7    9 1  
    13    9   10 1  
    14    9   13 1  
    15   10   11 am 
    16   11   12 1  
    17   11   14 2  
    18   12   47 1  
    19   13   20 1  
    20   13   50 1  
    21   13   51 1  
    22   15   16 2  
    23   15   17 am 
    24   53   15 1  
    25   17   26 1  
    26   17   29 1  
    27   18   19 1  
    28   24   18 1  
    29   22   21 1  
    30   22   23 1  
    31   22   24 1  
    32   22   25 1  
    33   23   35 am 
    34   23   36 2  
    35   24   25 1  
    36   26   27 1  
    37   27   28 ar 
    38   27   30 ar 
    39   28   29 1  
    40   28   33 ar 
    41   30   31 ar 
    42   31   32 ar 
    43   32   33 ar 
    44   33   34 1  
    45   34   43 1  
    46   35   37 am 
    47   37   38 1  
    48   37   39 2  
    49   37   40 2  
    50   38   41 1  
    51   38   42 1  
    52   41   42 1  
    53   43   44 1  
    54   44   45 1  
    55   45   46 1  
    56   46   47 1  
    57   46   48 1  
    58   46   49 1  
    59    4   54 1  
    60    5   55 1  
    61    5   56 1  
    62    6   57 1  
    63    9   58 1  
    64   10   59 1  
    65   18   60 1  
    66   18   61 1  
    67   19   62 1  
    68   19   63 1  
    69   19   64 1  
    70   20   65 1  
    71   20   66 1  
    72   20   67 1  
    73   21   68 1  
    74   24   69 1  
    75   25   70 1  
    76   25   71 1  
    77   26   72 1  
    78   26   73 1  
    79   29   74 1  
    80   29   75 1  
    81   30   76 1  
    82   31   77 1  
    83   32   78 1  
    84   34   79 1  
    85   34   80 1  
    86   35   81 1  
    87   38   82 1  
    88   41   83 1  
    89   41   84 1  
    90   42   85 1  
    91   42   86 1  
    92   43   87 1  
    93   43   88 1  
    94   44   89 1  
    95   44   90 1  
    96   45   91 1  
    97   45   92 1  
    98   47   93 1  
    99   47   94 1  
   100   48   95 1  
   101   48   96 1  
   102   48   97 1  
   103   49   98 1  
   104   49   99 1  
   105   49  100 1  
   106   50  101 1  
   107   50  102 1  
   108   50  103 1  
   109   51  104 1  
   110   51  105 1  
   111   51  106 1  
   112   52  107 1  
   113   52  108 1  
@<TRIPOS>SUBSTRUCTURE
     1 SU3         1

