### 
### Created by X-TOOL on Mon Sep 10 21:13:09 2018
### 

@<TRIPOS>MOLECULE
3sud_ligand
  104   110     1     0     0
SMALL
GAST_HUCK


@<TRIPOS>ATOM
      1 C          15.9980   -9.1110   16.3000 C.2       1 SUE         0.2070
      2 N          14.8130  -11.1170   16.6610 N.am      1 SUE        -0.2407
      3 O          15.4420   -8.9010   15.2370 O.2       1 SUE        -0.3942
      4 CA         16.0900  -10.4390   16.8550 C.3       1 SUE         0.1378
      5 CB         17.2300  -11.2850   16.2090 C.3       1 SUE         0.0025
      6 CAB        13.8270  -11.2100   17.6170 C.2       1 SUE         0.3221
      7 NAC        16.1420   -4.7080   20.6550 N.ar      1 SUE        -0.2649
      8 CAD        14.0540   -2.0790   21.8540 C.ar      1 SUE        -0.0425
      9 CAE        16.6930   -2.8820   21.9880 C.ar      1 SUE        -0.0161
     10 CAF        10.2390  -11.8950   17.8050 C.3       1 SUE        -0.0165
     11 CAG        10.8320  -10.5560   18.0830 C.3       1 SUE        -0.0077
     12 CAH        11.6490  -11.7760   18.2570 C.3       1 SUE         0.0914
     13 CAK        21.6150   -1.4050   13.4300 C.2       1 SUE        -0.0560
     14 CAL        20.3580   -1.3200   14.1240 C.2       1 SUE        -0.0560
     15 OAM        19.6830   -2.7560   11.5230 O.2       1 SUE        -0.1497
     16 SAN        20.0600   -3.6600   12.5770 S.o2      1 SUE         0.0716
     17 CAO        16.8200   -5.9090   12.8580 C.3       1 SUE         0.1374
     18 OAP        18.1650   -7.1290   14.9510 O.2       1 SUE        -0.3947
     19 CAQ        17.1160   -6.5890   15.1530 C.2       1 SUE         0.2013
     20 CAR        17.2300  -12.7170   16.6500 C.3       1 SUE        -0.0558
     21 CAS        17.0660   -7.6280   10.8450 C.3       1 SUE        -0.0516
     22 CAT        14.4370   -3.2320   21.1920 C.ar      1 SUE         0.0479
     23 CAU        10.5760   -9.8200   19.3490 C.3       1 SUE        -0.0474
     24 NAV        18.7870   -4.4220   13.1830 N.am      1 SUE        -0.1546
     25 CAW        16.3810   -7.1330   12.1010 C.3       1 SUE        -0.0066
     26 CAX        12.4120   -8.1700   19.5630 C.3       1 SUE        -0.0510
     27 CAY        14.9680   -1.3520   22.5940 C.ar      1 SUE        -0.0236
     28 OAZ        15.6310   -6.5480   19.3310 O.3       1 SUE        -0.2852
     29 CBA        18.4830   -0.9050   23.0040 C.3       1 SUE         0.0605
     30 OBB        17.1480   -0.9460   23.3660 O.3       1 SUE        -0.3183
     31 CBC        11.0140   -8.3970   19.0970 C.3       1 SUE        -0.0525
     32 CBD        12.5000   -6.8160   20.1390 C.3       1 SUE        -0.0406
     33 CBE        15.2690   -5.4370   19.9710 C.ar      1 SUE         0.1985
     34 CBF        13.9280   -5.0470   19.8990 C.ar      1 SUE         0.0906
     35 CBG        15.7710   -3.6320   21.2750 C.ar      1 SUE         0.0423
     36 NBH        13.5590   -3.9620   20.5260 N.ar      1 SUE        -0.2829
     37 CBI        12.9900   -5.7780   19.2050 C.3       1 SUE         0.0041
     38 CBJ        16.3010   -1.7200   22.6650 C.ar      1 SUE         0.0960
     39 OBK        20.9130   -4.6750   12.1040 O.2       1 SUE        -0.1497
     40 CBL        20.9760   -2.6250   13.9510 C.3       1 SUE         0.1367
     41 OBM        18.2720   -5.2290   11.1500 O.2       1 SUE        -0.3404
     42 CBN        15.7310   -5.7810   11.8890 C.3       1 SUE        -0.0152
     43 CBO        18.0660   -5.1640   12.3380 C.2       1 SUE         0.2444
     44 NBP        16.4690   -5.9480   14.2620 N.am      1 SUE        -0.2737
     45 CBQ        17.0050   -9.0940   10.6010 C.3       1 SUE        -0.0651
     46 OBR        14.1020  -10.7470   18.6870 O.2       1 SUE        -0.3774
     47 OBT        12.6820  -11.8710   17.3160 O.3       1 SUE        -0.2602
     48 CBX        17.1990   -5.8080   17.5030 C.3       1 SUE         0.0213
     49 CBY        16.5200   -6.6550   16.4080 C.3       1 SUE         0.1364
     50 NBZ        16.5480   -8.0680   16.9090 N.am      1 SUE        -0.2468
     51 CCA        17.2240   -8.0750   18.1780 C.3       1 SUE         0.0683
     52 CCB        16.9880   -6.6830   18.7580 C.3       1 SUE         0.1116
     53 CG1        18.5500  -10.7190   16.6170 C.3       1 SUE        -0.0558
     54 CG2        17.0580  -11.2950   14.6830 C.3       1 SUE        -0.0558
     55 H          14.6388  -11.5519   15.7550 H         1 SUE         0.1899
     56 H          16.3267  -10.3408   17.9144 H         1 SUE         0.0805
     57 H          13.0200   -1.7400   21.7914 H         1 SUE         0.0637
     58 H          17.7350   -3.2000   22.0223 H         1 SUE         0.0508
     59 H           9.6671  -12.3931   17.0221 H         1 SUE         0.0297
     60 H           9.3426  -12.4634   18.0530 H         1 SUE         0.0297
     61 H          10.8451   -9.6369   17.4973 H         1 SUE         0.0330
     62 H          12.2057  -12.2693   19.0538 H         1 SUE         0.0650
     63 H          22.4378   -0.9209   12.9039 H         1 SUE         0.0592
     64 H          19.5356   -0.7144   14.5048 H         1 SUE         0.0592
     65 H          18.0496  -13.2457   16.1633 H         1 SUE         0.0237
     66 H          17.3578  -12.7628   17.7315 H         1 SUE         0.0237
     67 H          16.2826  -13.1806   16.3748 H         1 SUE         0.0237
     68 H          18.1218   -7.3805   10.9553 H         1 SUE         0.0265
     69 H          16.5481   -7.1576   10.0092 H         1 SUE         0.0265
     70 H          11.1250  -10.2613   20.1809 H         1 SUE         0.0269
     71 H           9.5231   -9.8662   19.6273 H         1 SUE         0.0269
     72 H          18.5386   -4.3439   14.1692 H         1 SUE         0.2148
     73 H          16.1503   -8.1421   12.4424 H         1 SUE         0.0312
     74 H          13.1029   -8.2631   18.7251 H         1 SUE         0.0267
     75 H          12.6781   -8.9122   20.3157 H         1 SUE         0.0267
     76 H          14.6310   -0.4676   23.1347 H         1 SUE         0.0606
     77 H          18.9082   -1.9062   23.0745 H         1 SUE         0.0580
     78 H          18.5693   -0.5435   21.9793 H         1 SUE         0.0580
     79 H          19.0194   -0.2331   23.6741 H         1 SUE         0.0580
     80 H          10.3521   -7.7277   19.6465 H         1 SUE         0.0265
     81 H          10.9701   -8.2051   18.0249 H         1 SUE         0.0265
     82 H          13.2143   -6.8664   20.9608 H         1 SUE         0.0291
     83 H          11.4899   -6.5290   20.4311 H         1 SUE         0.0291
     84 H          12.1737   -5.1430   18.8607 H         1 SUE         0.0462
     85 H          13.4246   -6.2272   18.3120 H         1 SUE         0.0462
     86 H          21.2923   -3.4448   14.5959 H         1 SUE         0.0647
     87 H          15.4570   -5.1333   11.0562 H         1 SUE         0.0279
     88 H          14.7262   -5.3606   11.8475 H         1 SUE         0.0279
     89 H          15.6451   -5.4251   14.5590 H         1 SUE         0.1839
     90 H          17.4783   -9.6191   11.4306 H         1 SUE         0.0230
     91 H          15.9633   -9.4045   10.5198 H         1 SUE         0.0230
     92 H          17.5288   -9.3289    9.6744 H         1 SUE         0.0230
     93 H          16.7795   -4.8065   17.5980 H         1 SUE         0.0343
     94 H          18.2474   -5.5932   17.2963 H         1 SUE         0.0343
     95 H          15.5154   -6.2638   16.2473 H         1 SUE         0.0803
     96 H          18.2865   -8.2927   18.0689 H         1 SUE         0.0554
     97 H          16.8425   -8.8567   18.8349 H         1 SUE         0.0554
     98 H          17.6373   -6.4195   19.5929 H         1 SUE         0.0683
     99 H          18.6577  -10.7951   17.6990 H         1 SUE         0.0237
    100 H          19.3495  -11.2780   16.1308 H         1 SUE         0.0237
    101 H          18.6031   -9.6722   16.3180 H         1 SUE         0.0237
    102 H          17.8845  -11.8417   14.2291 H         1 SUE         0.0237
    103 H          16.1160  -11.7805   14.4280 H         1 SUE         0.0237
    104 H          17.0518  -10.2699   14.3126 H         1 SUE         0.0237
@<TRIPOS>BOND
     1    1    3 2  
     2    4    1 1  
     3    1   50 am 
     4    2    4 1  
     5    6    2 am 
     6    4    5 1  
     7    5   20 1  
     8    5   53 1  
     9    5   54 1  
    10    6   46 2  
    11   47    6 1  
    12   33    7 ar 
    13    7   35 ar 
    14   22    8 ar 
    15    8   27 ar 
    16   35    9 ar 
    17    9   38 ar 
    18   11   10 1  
    19   12   10 1  
    20   11   12 1  
    21   23   11 1  
    22   12   47 1  
    23   14   13 2  
    24   40   13 1  
    25   40   14 1  
    26   16   15 2  
    27   24   16 am 
    28   16   39 2  
    29   16   40 1  
    30   17   25 1  
    31   17   42 1  
    32   17   43 1  
    33   44   17 1  
    34   19   18 2  
    35   19   44 am 
    36   49   19 1  
    37   25   21 1  
    38   21   45 1  
    39   35   22 ar 
    40   36   22 ar 
    41   31   23 1  
    42   43   24 am 
    43   42   25 1  
    44   26   31 1  
    45   32   26 1  
    46   38   27 ar 
    47   28   33 1  
    48   52   28 1  
    49   30   29 1  
    50   38   30 1  
    51   37   32 1  
    52   33   34 ar 
    53   34   36 ar 
    54   34   37 1  
    55   43   41 2  
    56   48   49 1  
    57   48   52 1  
    58   49   50 1  
    59   50   51 1  
    60   51   52 1  
    61    2   55 1  
    62    4   56 1  
    63    8   57 1  
    64    9   58 1  
    65   10   59 1  
    66   10   60 1  
    67   11   61 1  
    68   12   62 1  
    69   13   63 1  
    70   14   64 1  
    71   20   65 1  
    72   20   66 1  
    73   20   67 1  
    74   21   68 1  
    75   21   69 1  
    76   23   70 1  
    77   23   71 1  
    78   24   72 1  
    79   25   73 1  
    80   26   74 1  
    81   26   75 1  
    82   27   76 1  
    83   29   77 1  
    84   29   78 1  
    85   29   79 1  
    86   31   80 1  
    87   31   81 1  
    88   32   82 1  
    89   32   83 1  
    90   37   84 1  
    91   37   85 1  
    92   40   86 1  
    93   42   87 1  
    94   42   88 1  
    95   44   89 1  
    96   45   90 1  
    97   45   91 1  
    98   45   92 1  
    99   48   93 1  
   100   48   94 1  
   101   49   95 1  
   102   51   96 1  
   103   51   97 1  
   104   52   98 1  
   105   53   99 1  
   106   53  100 1  
   107   53  101 1  
   108   54  102 1  
   109   54  103 1  
   110   54  104 1  
@<TRIPOS>SUBSTRUCTURE
     1 SUE         1

