### 
### Created by X-TOOL on Mon Sep 10 21:13:10 2018
### 

@<TRIPOS>MOLECULE
3suf_ligand
  104   110     1     0     0
SMALL
GAST_HUCK


@<TRIPOS>ATOM
      1 C          11.9670    9.2330   16.2490 C.2       1 SUE         0.2070
      2 N          13.1790   11.1600   16.6610 N.am      1 SUE        -0.2407
      3 O          12.3930    9.0700   15.1330 O.2       1 SUE        -0.3942
      4 CA         11.8800   10.4800   16.7840 C.3       1 SUE         0.1378
      5 CB         10.8070   11.3290   16.1040 C.3       1 SUE         0.0025
      6 CAB        14.0500   11.3540   17.6550 C.2       1 SUE         0.3221
      7 NAC        11.9050    4.9880   20.5400 N.ar      1 SUE        -0.2649
      8 CAD        13.9780    2.4260   21.8770 C.ar      1 SUE        -0.0425
      9 CAE        11.3410    3.2140   21.8120 C.ar      1 SUE        -0.0161
     10 CAF        17.5070   12.2810   17.9860 C.3       1 SUE        -0.0165
     11 CAG        17.0570   10.9210   18.3390 C.3       1 SUE        -0.0077
     12 CAH        16.1280   12.0790   18.4040 C.3       1 SUE         0.0914
     13 CAK         6.2580    1.8730   13.6300 C.2       1 SUE        -0.0560
     14 CAL         7.5360    1.6750   14.3040 C.2       1 SUE        -0.0560
     15 OAM         8.1450    3.0380   11.6750 O.2       1 SUE        -0.1497
     16 SAN         7.8500    3.9580   12.7230 S.o2      1 SUE         0.0716
     17 CAO        11.1930    6.0590   12.9250 C.3       1 SUE         0.1374
     18 OAP         9.9970    7.3770   14.9610 O.2       1 SUE        -0.3947
     19 CAQ        10.9810    6.7660   15.2020 C.2       1 SUE         0.2013
     20 CAR        10.5390   12.5230   16.9120 C.3       1 SUE        -0.0558
     21 CAS        10.6070    7.9580   11.3420 C.3       1 SUE        -0.0516
     22 CAT        13.6170    3.5450   21.1830 C.ar      1 SUE         0.0479
     23 CAU        17.4860   10.3440   19.6660 C.3       1 SUE        -0.0474
     24 NAV         9.1050    4.6760   13.2140 N.am      1 SUE        -0.1546
     25 CAW        11.5890    7.3410   12.2930 C.3       1 SUE        -0.0066
     26 CAX        15.8020    8.4220   19.7290 C.3       1 SUE        -0.0510
     27 CAY        13.0020    1.7160   22.5270 C.ar      1 SUE        -0.0236
     28 OAZ        12.4530    6.7610   19.2260 O.3       1 SUE        -0.2852
     29 CBA         9.5160    1.2150   22.7010 C.3       1 SUE         0.0605
     30 OBB        10.7970    1.3520   23.1630 O.3       1 SUE        -0.3183
     31 CBC        17.2940    8.8380   19.6960 C.3       1 SUE        -0.0525
     32 CBD        15.6030    7.0420   20.2600 C.3       1 SUE        -0.0406
     33 CBE        12.8010    5.6890   19.9010 C.ar      1 SUE         0.1985
     34 CBF        14.1310    5.3250   19.9010 C.ar      1 SUE         0.0906
     35 CBG        12.2880    3.9210   21.1630 C.ar      1 SUE         0.0423
     36 NBH        14.5180    4.2550   20.5600 N.ar      1 SUE        -0.2829
     37 CBI        15.0610    6.0670   19.2660 C.3       1 SUE         0.0041
     38 CBJ        11.6810    2.0800   22.4910 C.ar      1 SUE         0.0960
     39 OBK         6.9040    4.9170   12.2060 O.2       1 SUE        -0.1497
     40 CBL         6.9880    3.0060   14.1420 C.3       1 SUE         0.1367
     41 OBM         9.6900    5.4220   11.2440 O.2       1 SUE        -0.3404
     42 CBN        12.2550    6.1090   11.8790 C.3       1 SUE        -0.0152
     43 CBO         9.8980    5.3610   12.4160 C.2       1 SUE         0.2444
     44 NBP        11.6070    6.0840   14.3040 N.am      1 SUE        -0.2737
     45 CBQ        11.2260    8.7650   10.2590 C.3       1 SUE        -0.0651
     46 OBR        13.7370   10.8730   18.7060 O.2       1 SUE        -0.3774
     47 OBT        15.1830   12.0460   17.4110 O.3       1 SUE        -0.2602
     48 CBX        10.7850    6.0760   17.5030 C.3       1 SUE         0.0213
     49 CBY        11.5330    6.8220   16.4520 C.3       1 SUE         0.1364
     50 NBZ        11.5010    8.2140   16.9350 N.am      1 SUE        -0.2468
     51 CCA        10.9200    8.2400   18.2640 C.3       1 SUE         0.0683
     52 CCB        11.0830    6.8910   18.7650 C.3       1 SUE         0.1116
     53 CG1         9.5070   10.6400   15.9970 C.3       1 SUE        -0.0558
     54 CG2        11.2740   11.7900   14.7460 C.3       1 SUE        -0.0558
     55 H1         13.4310   11.5060   15.7572 H         1 SUE         0.1899
     56 H2         11.6249   10.3834   17.8496 H         1 SUE         0.0805
     57 H3         15.0131    2.1062   21.9132 H         1 SUE         0.0637
     58 H4         10.3094    3.5464   21.7945 H         1 SUE         0.0508
     59 H5         17.7305   12.5288   16.9379 H         1 SUE         0.0297
     60 H6         18.2065   12.8147   18.6462 H         1 SUE         0.0297
     61 H7         16.9593   10.1357   17.5750 H         1 SUE         0.0330
     62 H8         15.7396   12.4903   19.3474 H         1 SUE         0.0650
     63 H9          5.3890    1.4644   13.1163 H         1 SUE         0.0592
     64 H10         8.3228    1.0137   14.6639 H         1 SUE         0.0592
     65 H11         9.7664   13.1325   16.4205 H         1 SUE         0.0237
     66 H12        11.4622   13.1126   17.0124 H         1 SUE         0.0237
     67 H13        10.1873   12.2196   17.9091 H         1 SUE         0.0237
     68 H14         9.9352    8.6120   11.9173 H         1 SUE         0.0265
     69 H15        10.0230    7.1496   10.8778 H         1 SUE         0.0265
     70 H16        16.8842   10.7987   20.4667 H         1 SUE         0.0269
     71 H17        18.5490   10.5738   19.8307 H         1 SUE         0.0269
     72 H18         9.3353    4.6238   14.1857 H         1 SUE         0.2148
     73 H19        12.1295    8.1139   12.8591 H         1 SUE         0.0312
     74 H20        15.4009    8.4670   18.7057 H         1 SUE         0.0267
     75 H21        15.2533    9.1284   20.3693 H         1 SUE         0.0267
     76 H22        13.2853    0.8342   23.0902 H         1 SUE         0.0606
     77 H23         8.9429    0.5796   23.3923 H         1 SUE         0.0580
     78 H24         9.5334    0.7497   21.7044 H         1 SUE         0.0580
     79 H25         9.0421    2.2055   22.6351 H         1 SUE         0.0580
     80 H26        17.7898    8.4386   20.5930 H         1 SUE         0.0265
     81 H27        17.7590    8.4067   18.7972 H         1 SUE         0.0265
     82 H28        14.9009    7.0971   21.1050 H         1 SUE         0.0291
     83 H29        16.5745    6.6669   20.6143 H         1 SUE         0.0291
     84 H30        15.8690    5.4202   18.8934 H         1 SUE         0.0462
     85 H31        14.6028    6.6042   18.4225 H         1 SUE         0.0462
     86 H32         6.6471    3.6359   14.9769 H         1 SUE         0.0647
     87 H33        12.0625    5.6896   10.8805 H         1 SUE         0.0279
     88 H34        13.3055    5.9335   12.1542 H         1 SUE         0.0279
     89 H35        12.4096    5.5529   14.5754 H         1 SUE         0.1839
     90 H36        10.4373    9.1772    9.6124 H         1 SUE         0.0230
     91 H37        11.8934    8.1265    9.6616 H         1 SUE         0.0230
     92 H38        11.8055    9.5888   10.7011 H         1 SUE         0.0230
     93 H39        11.1564    5.0450   17.5989 H         1 SUE         0.0343
     94 H40         9.7066    6.0587   17.2867 H         1 SUE         0.0343
     95 H41        12.5664    6.4492   16.3963 H         1 SUE         0.0803
     96 H42         9.8546    8.5095   18.2160 H         1 SUE         0.0554
     97 H43        11.4515    8.9584   18.9054 H         1 SUE         0.0554
     98 H44        10.3821    6.6493   19.5776 H         1 SUE         0.0683
     99 H45         9.6254    9.7244   15.3989 H         1 SUE         0.0237
    100 H46         8.7787   11.3047   15.5095 H         1 SUE         0.0237
    101 H47         9.1475   10.3770   17.0028 H         1 SUE         0.0237
    102 H48        12.2432   12.3007   14.8455 H         1 SUE         0.0237
    103 H49        10.5352   12.4852   14.3207 H         1 SUE         0.0237
    104 H50        11.3843   10.9204   14.0815 H         1 SUE         0.0237
@<TRIPOS>BOND
     1    1    3 2  
     2    4    1 1  
     3    1   50 am 
     4    2    4 1  
     5    6    2 am 
     6    4    5 1  
     7    5   20 1  
     8    5   53 1  
     9    5   54 1  
    10    6   46 2  
    11   47    6 1  
    12   33    7 ar 
    13    7   35 ar 
    14   22    8 ar 
    15    8   27 ar 
    16   35    9 ar 
    17    9   38 ar 
    18   11   10 1  
    19   12   10 1  
    20   11   12 1  
    21   23   11 1  
    22   12   47 1  
    23   14   13 2  
    24   40   13 1  
    25   40   14 1  
    26   16   15 2  
    27   24   16 am 
    28   16   39 2  
    29   16   40 1  
    30   17   25 1  
    31   17   42 1  
    32   17   43 1  
    33   44   17 1  
    34   19   18 2  
    35   19   44 am 
    36   49   19 1  
    37   25   21 1  
    38   21   45 1  
    39   35   22 ar 
    40   36   22 ar 
    41   31   23 1  
    42   43   24 am 
    43   42   25 1  
    44   26   31 1  
    45   32   26 1  
    46   38   27 ar 
    47   28   33 1  
    48   52   28 1  
    49   30   29 1  
    50   38   30 1  
    51   37   32 1  
    52   33   34 ar 
    53   34   36 ar 
    54   34   37 1  
    55   43   41 2  
    56   48   49 1  
    57   48   52 1  
    58   49   50 1  
    59   50   51 1  
    60   51   52 1  
    61    2   55 1  
    62    4   56 1  
    63    8   57 1  
    64    9   58 1  
    65   10   59 1  
    66   10   60 1  
    67   11   61 1  
    68   12   62 1  
    69   13   63 1  
    70   14   64 1  
    71   20   65 1  
    72   20   66 1  
    73   20   67 1  
    74   21   68 1  
    75   21   69 1  
    76   23   70 1  
    77   23   71 1  
    78   24   72 1  
    79   25   73 1  
    80   26   74 1  
    81   26   75 1  
    82   27   76 1  
    83   29   77 1  
    84   29   78 1  
    85   29   79 1  
    86   31   80 1  
    87   31   81 1  
    88   32   82 1  
    89   32   83 1  
    90   37   84 1  
    91   37   85 1  
    92   40   86 1  
    93   42   87 1  
    94   42   88 1  
    95   44   89 1  
    96   45   90 1  
    97   45   91 1  
    98   45   92 1  
    99   48   93 1  
   100   48   94 1  
   101   49   95 1  
   102   51   96 1  
   103   51   97 1  
   104   52   98 1  
   105   53   99 1  
   106   53  100 1  
   107   53  101 1  
   108   54  102 1  
   109   54  103 1  
   110   54  104 1  
@<TRIPOS>SUBSTRUCTURE
     1 SUE         1

