### 
### Created by X-TOOL on Mon Sep 10 21:13:10 2018
### 

@<TRIPOS>MOLECULE
3sug_ligand
  104   110     1     0     0
SMALL
GAST_HUCK


@<TRIPOS>ATOM
      1 C          15.9210   -8.6300  -14.6730 C.2       1 SUE         0.2070
      2 N          18.2600   -8.6740  -15.0540 N.am      1 SUE        -0.2407
      3 O          15.6600   -7.8240  -15.5690 O.2       1 SUE        -0.3942
      4 CA         17.1780   -8.5580  -14.0380 C.3       1 SUE         0.1378
      5 CB         17.3230   -7.2340  -13.2460 C.3       1 SUE         0.0025
      6 CAB        18.6490   -9.9170  -15.5810 C.2       1 SUE         0.3221
      7 NAC        12.5980  -14.0620  -13.9810 N.ar      1 SUE        -0.2649
      8 CAD        11.5160  -17.1310  -15.6570 C.ar      1 SUE        -0.0425
      9 CAE        10.9690  -15.6610  -13.3430 C.ar      1 SUE        -0.0161
     10 CAF        20.5540  -11.4150  -18.3670 C.3       1 SUE        -0.0165
     11 CAG        19.3490  -12.1500  -17.7880 C.3       1 SUE        -0.0077
     12 CAH        20.1740  -11.2100  -16.8930 C.3       1 SUE         0.0914
     13 CAK         6.5420   -7.2390  -13.2840 C.2       1 SUE        -0.0560
     14 CAL         7.1300   -8.3130  -14.0340 C.2       1 SUE        -0.0560
     15 OAM         7.9780   -5.5640  -15.5020 O.2       1 SUE        -0.1497
     16 SAN         8.9300   -6.0650  -14.4250 S.o2      1 SUE         0.0716
     17 CAO        12.1740   -6.4320  -16.4570 C.3       1 SUE         0.1374
     18 OAP        13.1860   -7.5420  -14.0400 O.2       1 SUE        -0.3947
     19 CAQ        13.0750   -8.2740  -15.0230 C.2       1 SUE         0.2013
     20 CAR        18.5690   -7.3250  -12.3550 C.3       1 SUE        -0.0558
     21 CAS        13.2890   -4.0230  -16.3130 C.3       1 SUE        -0.0516
     22 CAT        12.2070  -15.9470  -15.3890 C.ar      1 SUE         0.0479
     23 CAU        19.4800  -13.6650  -17.4650 C.3       1 SUE        -0.0474
     24 NAV        10.2130   -6.6520  -15.0170 N.am      1 SUE        -0.1546
     25 CAW        13.3560   -5.4920  -16.7180 C.3       1 SUE        -0.0066
     26 CAX        17.0810  -13.6550  -17.0520 C.3       1 SUE        -0.0510
     27 CAY        10.5480  -17.5720  -14.7590 C.ar      1 SUE        -0.0236
     28 OAZ        14.2470  -12.4700  -14.6710 O.3       1 SUE        -0.2852
     29 CBA         8.8400  -16.3750  -11.7840 C.3       1 SUE         0.0605
     30 OBB         9.3230  -17.3130  -12.7470 O.3       1 SUE        -0.3183
     31 CBC        18.4180  -14.0390  -16.4550 C.3       1 SUE        -0.0525
     32 CBD        16.0600  -14.5620  -16.4420 C.3       1 SUE        -0.0406
     33 CBE        13.5300  -13.6230  -14.8500 C.ar      1 SUE         0.1985
     34 CBF        13.8060  -14.3650  -16.0060 C.ar      1 SUE         0.0906
     35 CBG        11.9390  -15.2100  -14.2320 C.ar      1 SUE         0.0423
     36 NBH        13.1330  -15.5020  -16.2480 N.ar      1 SUE        -0.2829
     37 CBI        14.7530  -13.9690  -16.9250 C.3       1 SUE         0.0041
     38 CBJ        10.2670  -16.8410  -13.6070 C.ar      1 SUE         0.0960
     39 OBK         9.3790   -4.9220  -13.4960 O.2       1 SUE        -0.1497
     40 CBL         7.9750   -7.3420  -13.3240 C.3       1 SUE         0.1367
     41 OBM        10.3740   -4.8070  -16.2880 O.2       1 SUE        -0.3404
     42 CBN        12.4720   -5.9500  -17.8280 C.3       1 SUE        -0.0152
     43 CBO        10.8520   -5.8710  -15.8840 C.2       1 SUE         0.2444
     44 NBP        12.5580   -7.8490  -16.2050 N.am      1 SUE        -0.2737
     45 CBQ        14.4530   -3.3850  -15.5380 C.3       1 SUE        -0.0651
     46 OBR        18.0850  -10.9390  -15.1840 O.2       1 SUE        -0.3774
     47 OBT        19.6400   -9.9090  -16.5260 O.3       1 SUE        -0.2602
     48 CBX        12.7510  -10.5300  -14.1140 C.3       1 SUE         0.0213
     49 CBY        13.5850   -9.5930  -14.9700 C.3       1 SUE         0.1364
     50 NBZ        14.9670   -9.5200  -14.3360 N.am      1 SUE        -0.2468
     51 CCA        15.0340  -10.5940  -13.3110 C.3       1 SUE         0.0683
     52 CCB        13.8460  -11.4990  -13.6370 C.3       1 SUE         0.1116
     53 CG1        16.0820   -7.0180  -12.3660 C.3       1 SUE        -0.0558
     54 CG2        17.4730   -6.0100  -14.1630 C.3       1 SUE        -0.0558
     55 H1         18.7221   -7.8453  -15.3697 H         1 SUE         0.1899
     56 H2         17.2639   -9.3977  -13.3326 H         1 SUE         0.0805
     57 H3         11.7311  -17.7001  -16.5542 H         1 SUE         0.0637
     58 H4         10.7566  -15.0959  -12.4427 H         1 SUE         0.0508
     59 H5         20.4045  -10.6005  -19.0910 H         1 SUE         0.0297
     60 H6         21.4653  -11.9737  -18.6265 H         1 SUE         0.0297
     61 H7         18.3274  -11.8989  -18.1095 H         1 SUE         0.0330
     62 H8         20.7936  -11.6156  -16.0797 H         1 SUE         0.0650
     63 H9          5.6506   -6.7196  -12.9353 H         1 SUE         0.0592
     64 H10         7.0264   -9.1954  -14.6638 H         1 SUE         0.0592
     65 H11        18.6827   -6.3898  -11.7871 H         1 SUE         0.0237
     66 H12        19.4582   -7.4830  -12.9830 H         1 SUE         0.0237
     67 H13        18.4593   -8.1673  -11.6561 H         1 SUE         0.0237
     68 H14        12.3906   -3.9064  -15.6891 H         1 SUE         0.0265
     69 H15        13.1694   -3.4432  -17.2401 H         1 SUE         0.0265
     70 H16        20.4767  -13.8696  -17.0470 H         1 SUE         0.0269
     71 H17        19.3401  -14.2529  -18.3841 H         1 SUE         0.0269
     72 H18        10.5484   -7.5609  -14.7691 H         1 SUE         0.2148
     73 H19        14.3877   -5.8616  -16.6237 H         1 SUE         0.0312
     74 H20        17.1014  -13.7876  -18.1438 H         1 SUE         0.0267
     75 H21        16.8469  -12.6068  -16.8142 H         1 SUE         0.0267
     76 H22        10.0088  -18.4912  -14.9577 H         1 SUE         0.0606
     77 H23         8.0867  -16.8599  -11.1457 H         1 SUE         0.0580
     78 H24         8.3846  -15.5185  -12.3027 H         1 SUE         0.0580
     79 H25         9.6767  -16.0243  -11.1620 H         1 SUE         0.0580
     80 H26        18.5823  -13.4923  -15.5147 H         1 SUE         0.0265
     81 H27        18.4472  -15.1212  -16.2599 H         1 SUE         0.0265
     82 H28        16.1208  -14.5452  -15.3438 H         1 SUE         0.0291
     83 H29        16.1829  -15.5947  -16.8003 H         1 SUE         0.0291
     84 H30        14.5027  -14.3537  -17.9247 H         1 SUE         0.0462
     85 H31        14.8188  -12.8715  -16.9603 H         1 SUE         0.0462
     86 H32         8.5577   -7.6200  -12.4334 H         1 SUE         0.0647
     87 H33        11.7921   -5.2341  -18.3131 H         1 SUE         0.0279
     88 H34        12.8615   -6.6527  -18.5794 H         1 SUE         0.0279
     89 H35        12.4295   -8.5167  -16.9382 H         1 SUE         0.1839
     90 H36        14.2241   -2.3280  -15.3373 H         1 SUE         0.0230
     91 H37        15.3733   -3.4536  -16.1365 H         1 SUE         0.0230
     92 H38        14.5945   -3.9167  -14.5855 H         1 SUE         0.0230
     93 H39        11.9791  -11.0448  -14.7049 H         1 SUE         0.0343
     94 H40        12.2778  -10.0024  -13.2728 H         1 SUE         0.0343
     95 H41        13.6507   -9.9966  -15.9911 H         1 SUE         0.0803
     96 H42        14.9380  -10.1738  -12.2990 H         1 SUE         0.0554
     97 H43        15.9803  -11.1493  -13.3892 H         1 SUE         0.0554
     98 H44        13.5080  -12.0421  -12.7422 H         1 SUE         0.0683
     99 H45        15.1877   -6.9525  -13.0031 H         1 SUE         0.0237
    100 H46        16.1950   -6.0843  -11.7956 H         1 SUE         0.0237
    101 H47        15.9749   -7.8626  -11.6694 H         1 SUE         0.0237
    102 H48        18.3565   -6.1392  -14.8054 H         1 SUE         0.0237
    103 H49        17.5949   -5.1050  -13.5497 H         1 SUE         0.0237
    104 H50        16.5751   -5.9096  -14.7904 H         1 SUE         0.0237
@<TRIPOS>BOND
     1    1    3 2  
     2    4    1 1  
     3    1   50 am 
     4    2    4 1  
     5    6    2 am 
     6    4    5 1  
     7    5   20 1  
     8    5   53 1  
     9    5   54 1  
    10    6   46 2  
    11   47    6 1  
    12   33    7 ar 
    13    7   35 ar 
    14   22    8 ar 
    15    8   27 ar 
    16   35    9 ar 
    17    9   38 ar 
    18   11   10 1  
    19   12   10 1  
    20   11   12 1  
    21   23   11 1  
    22   12   47 1  
    23   14   13 2  
    24   40   13 1  
    25   40   14 1  
    26   16   15 2  
    27   24   16 am 
    28   16   39 2  
    29   16   40 1  
    30   17   25 1  
    31   17   42 1  
    32   17   43 1  
    33   44   17 1  
    34   19   18 2  
    35   19   44 am 
    36   49   19 1  
    37   25   21 1  
    38   21   45 1  
    39   35   22 ar 
    40   36   22 ar 
    41   31   23 1  
    42   43   24 am 
    43   42   25 1  
    44   26   31 1  
    45   32   26 1  
    46   38   27 ar 
    47   28   33 1  
    48   52   28 1  
    49   30   29 1  
    50   38   30 1  
    51   37   32 1  
    52   33   34 ar 
    53   34   36 ar 
    54   34   37 1  
    55   43   41 2  
    56   48   49 1  
    57   48   52 1  
    58   49   50 1  
    59   50   51 1  
    60   51   52 1  
    61    2   55 1  
    62    4   56 1  
    63    8   57 1  
    64    9   58 1  
    65   10   59 1  
    66   10   60 1  
    67   11   61 1  
    68   12   62 1  
    69   13   63 1  
    70   14   64 1  
    71   20   65 1  
    72   20   66 1  
    73   20   67 1  
    74   21   68 1  
    75   21   69 1  
    76   23   70 1  
    77   23   71 1  
    78   24   72 1  
    79   25   73 1  
    80   26   74 1  
    81   26   75 1  
    82   27   76 1  
    83   29   77 1  
    84   29   78 1  
    85   29   79 1  
    86   31   80 1  
    87   31   81 1  
    88   32   82 1  
    89   32   83 1  
    90   37   84 1  
    91   37   85 1  
    92   40   86 1  
    93   42   87 1  
    94   42   88 1  
    95   44   89 1  
    96   45   90 1  
    97   45   91 1  
    98   45   92 1  
    99   48   93 1  
   100   48   94 1  
   101   49   95 1  
   102   51   96 1  
   103   51   97 1  
   104   52   98 1  
   105   53   99 1  
   106   53  100 1  
   107   53  101 1  
   108   54  102 1  
   109   54  103 1  
   110   54  104 1  
@<TRIPOS>SUBSTRUCTURE
     1 SUE         1

