### 
### Created by X-TOOL on Mon Sep 10 21:13:08 2018
### 

@<TRIPOS>MOLECULE
3sus_ligand
   30    31     1     0     0
SMALL
GAST_HUCK


@<TRIPOS>ATOM
      1 C1        -35.4970  -18.9580  -15.9290 C.3       1 GNL         0.1543
      2 S1        -34.0010  -20.0150  -15.7780 S.3       1 GNL        -0.0719
      3 C2        -35.1140  -17.9510  -17.0600 C.3       1 GNL         0.0439
      4 N2        -34.2990  -18.7670  -18.0160 N.4       1 GNL         0.2431
      5 C3        -34.3640  -16.6830  -16.5490 C.3       1 GNL         0.1290
      6 O3        -34.3990  -15.6270  -17.5280 O.3       1 GNL        -0.3834
      7 C4        -34.9200  -16.1510  -15.2040 C.3       1 GNL         0.1146
      8 O4        -36.2660  -15.6640  -15.3800 O.3       1 GNL        -0.3864
      9 C5        -34.9120  -17.2890  -14.1730 C.3       1 GNL         0.1117
     10 O5        -35.8040  -18.3330  -14.6730 O.3       1 GNL        -0.3520
     11 C6        -35.3990  -16.8750  -12.7870 C.3       1 GNL         0.0730
     12 O6        -35.1650  -17.9440  -11.8680 O.3       1 GNL        -0.3924
     13 C7        -33.1880  -19.3960  -17.2780 C.3       1 GNL         0.0249
     14 C8        -32.5030  -20.5080  -18.0620 C.3       1 GNL        -0.0116
     15 H1        -36.3644  -19.5584  -16.2406 H         1 GNL         0.0773
     16 H2        -36.0306  -17.6099  -17.5635 H         1 GNL         0.0912
     17 H3        -33.9299  -18.1712  -18.7405 H         1 GNL         0.2030
     18 H4        -34.8774  -19.4810  -18.4303 H         1 GNL         0.2030
     19 H5        -33.3131  -16.9657  -16.3887 H         1 GNL         0.0678
     20 H6        -33.9820  -15.9245  -18.3281 H         1 GNL         0.2102
     21 H7        -34.2822  -15.3293  -14.8463 H         1 GNL         0.0648
     22 H8        -36.5958  -15.3409  -14.5497 H         1 GNL         0.2100
     23 H9        -33.8876  -17.6797  -14.0838 H         1 GNL         0.0646
     24 H10       -36.4756  -16.6529  -12.8265 H         1 GNL         0.0584
     25 H11       -34.8517  -15.9797  -12.4570 H         1 GNL         0.0584
     26 H12       -35.4672  -17.6893  -11.0041 H         1 GNL         0.2095
     27 H13       -32.4315  -18.6410  -17.0180 H         1 GNL         0.0972
     28 H14       -32.0267  -20.0847  -18.9586 H         1 GNL         0.0293
     29 H15       -33.2493  -21.2580  -18.3628 H         1 GNL         0.0293
     30 H16       -31.7383  -20.9843  -17.4308 H         1 GNL         0.0293
@<TRIPOS>BOND
     1    1    2 1  
     2    1    3 1  
     3    1   10 1  
     4    2   13 1  
     5    3    4 1  
     6    3    5 1  
     7    4   13 1  
     8    5    6 1  
     9    5    7 1  
    10    7    8 1  
    11    7    9 1  
    12    9   10 1  
    13    9   11 1  
    14   11   12 1  
    15   13   14 1  
    16    1   15 1  
    17    3   16 1  
    18    4   17 1  
    19    4   18 1  
    20    5   19 1  
    21    6   20 1  
    22    7   21 1  
    23    8   22 1  
    24    9   23 1  
    25   11   24 1  
    26   11   25 1  
    27   12   26 1  
    28   13   27 1  
    29   14   28 1  
    30   14   29 1  
    31   14   30 1  
@<TRIPOS>SUBSTRUCTURE
     1 GNL         1

