### 
### Created by X-TOOL on Mon Sep 10 21:13:08 2018
### 

@<TRIPOS>MOLECULE
3sut_ligand
   47    48     1     0     0
SMALL
GAST_HUCK


@<TRIPOS>ATOM
      1 CAH        32.4220  -20.5560   17.9330 C.3       1 OAN         0.0257
      2 CAG        33.3760  -19.8100   17.0460 C.2       1 OAN         0.1734
      3 OAN        33.3110  -19.8900   15.8240 O.2       1 OAN        -0.3974
      4 NAI        34.2730  -19.0900   17.7120 N.am      1 OAN        -0.2737
      5 CAB        35.2680  -18.2410   17.0460 C.3       1 OAN         0.1402
      6 CAC        34.6120  -16.8860   16.5930 C.3       1 OAN         0.1141
      7 OAJ        34.7150  -15.8780   17.6110 O.3       1 OAN        -0.3865
      8 CAD        35.2680  -16.3990   15.2920 C.3       1 OAN         0.1119
      9 OAK        34.6490  -15.1640   14.8480 O.3       1 OAN        -0.3865
     10 CAE        35.0590  -17.4870   14.2510 C.3       1 OAN         0.1157
     11 CAF        35.5360  -17.0210   12.8770 C.3       1 OAN         0.0731
     12 OAM        35.2140  -18.0650   11.9610 O.3       1 OAN        -0.3924
     13 OAL        35.7710  -18.7020   14.6590 O.3       1 OAN        -0.3259
     14 CAA        36.0560  -18.8410   16.0060 C.3       1 OAN         0.1447
     15 NAY        36.8030  -19.9320   16.1370 N.4       1 OAN         0.4349
     16 OAQ        38.1310  -19.6790   15.6270 O.3       1 OAN        -0.1888
     17 CAP        39.0970  -20.5490   15.2760 C.2       1 OAN         0.3948
     18 OAR        39.3150  -21.4650   16.0880 O.2       1 OAN        -0.3634
     19 NAO        39.9950  -20.1600   14.3350 N.am      1 OAN        -0.2048
     20 CAS        41.1710  -20.7840   14.1310 C.ar      1 OAN         0.0683
     21 CAT        41.3800  -22.1050   14.5820 C.ar      1 OAN        -0.0413
     22 CAU        42.5750  -22.7890   14.3050 C.ar      1 OAN        -0.0756
     23 CAV        43.5440  -22.1400   13.5280 C.ar      1 OAN        -0.0773
     24 CAW        43.3400  -20.8420   13.0340 C.ar      1 OAN        -0.0756
     25 CAX        42.1480  -20.1700   13.3250 C.ar      1 OAN        -0.0413
     26 H1         32.6576  -20.3428   18.9861 H         1 OAN         0.0467
     27 H2         32.5170  -21.6360   17.7474 H         1 OAN         0.0467
     28 H3         31.3924  -20.2357   17.7156 H         1 OAN         0.0467
     29 H4         34.2698  -19.1284   18.7113 H         1 OAN         0.1858
     30 H5         35.9936  -17.9807   17.8307 H         1 OAN         0.0667
     31 H6         33.5448  -17.0685   16.3989 H         1 OAN         0.0646
     32 H7         34.2724  -16.1767   18.3967 H         1 OAN         0.2100
     33 H8         36.3433  -16.2322   15.4526 H         1 OAN         0.0647
     34 H9         35.0637  -14.8745   14.0437 H         1 OAN         0.2100
     35 H10        33.9842  -17.7125   14.1886 H         1 OAN         0.0648
     36 H11        36.6223  -16.8488   12.8902 H         1 OAN         0.0584
     37 H12        35.0209  -16.0922   12.5908 H         1 OAN         0.0584
     38 H13        35.4946  -17.8165   11.0880 H         1 OAN         0.2095
     39 H14        36.8664  -18.1000   16.0700 H         1 OAN         0.1223
     40 H15        36.3841  -20.6887   15.6193 H         1 OAN         0.2433
     41 H16        36.8609  -20.1831   17.1115 H         1 OAN         0.2433
     42 H17        39.7719  -19.3698   13.7642 H         1 OAN         0.2277
     43 H18        40.6035  -22.6010   15.1530 H         1 OAN         0.0502
     44 H19        42.7431  -23.7914   14.6819 H         1 OAN         0.0577
     45 H20        44.4726  -22.6522   13.3033 H         1 OAN         0.0487
     46 H21        44.1021  -20.3628   12.4302 H         1 OAN         0.0577
     47 H22        41.9766  -19.1754   12.9294 H         1 OAN         0.0502
@<TRIPOS>BOND
     1    1    2 1  
     2    2    3 2  
     3    2    4 am 
     4    4    5 1  
     5    5    6 1  
     6    5   14 1  
     7    6    7 1  
     8    6    8 1  
     9    8    9 1  
    10    8   10 1  
    11   10   11 1  
    12   10   13 1  
    13   11   12 1  
    14   13   14 1  
    15   14   15 1  
    16   15   16 1  
    17   16   17 1  
    18   17   18 2  
    19   17   19 am 
    20   19   20 1  
    21   20   21 ar 
    22   20   25 ar 
    23   21   22 ar 
    24   22   23 ar 
    25   23   24 ar 
    26   24   25 ar 
    27    1   26 1  
    28    1   27 1  
    29    1   28 1  
    30    4   29 1  
    31    5   30 1  
    32    6   31 1  
    33    7   32 1  
    34    8   33 1  
    35    9   34 1  
    36   10   35 1  
    37   11   36 1  
    38   11   37 1  
    39   12   38 1  
    40   14   39 1  
    41   15   40 1  
    42   15   41 1  
    43   19   42 1  
    44   21   43 1  
    45   22   44 1  
    46   23   45 1  
    47   24   46 1  
    48   25   47 1  
@<TRIPOS>SUBSTRUCTURE
     1 OAN         1

