### 
### Created by X-TOOL on Mon Sep 10 21:13:08 2018
### 

@<TRIPOS>MOLECULE
3suu_ligand
   47    48     1     0     0
SMALL
GAST_HUCK


@<TRIPOS>ATOM
      1 CAA        36.1910   18.5890  -16.0950 C.3       1 OGN         0.1447
      2 CAB        35.2290   17.9830  -17.1500 C.3       1 OGN         0.1402
      3 CAC        34.4030   16.8240  -16.5560 C.3       1 OGN         0.1141
      4 CAD        34.9710   16.3290  -15.2180 C.3       1 OGN         0.1119
      5 CAE        34.9530   17.4980  -14.2210 C.3       1 OGN         0.1157
      6 CAF        35.4560   17.0660  -12.8490 C.3       1 OGN         0.0731
      7 CAG        33.4330   19.6920  -17.1760 C.2       1 OGN         0.1734
      8 CAH        32.5050   20.5000  -18.0730 C.3       1 OGN         0.0257
      9 NAI        34.2910   18.9070  -17.8230 N.am      1 OGN        -0.2737
     10 OAJ        34.3870   15.7610  -17.5010 O.3       1 OGN        -0.3865
     11 OAK        36.3120   15.8520  -15.4180 O.3       1 OGN        -0.3865
     12 OAL        35.7630   18.6190  -14.6960 O.3       1 OGN        -0.3259
     13 OAM        35.2640   18.1420  -11.9300 O.3       1 OGN        -0.3924
     14 OAN        33.3700   19.7720  -15.9560 O.2       1 OGN        -0.3974
     15 NAO        39.8310   20.5740  -14.5920 N.am      1 OGN        -0.2048
     16 CAP        38.8700   20.7410  -15.5030 C.2       1 OGN         0.3948
     17 OAQ        37.8340   19.9010  -15.3130 O.3       1 OGN        -0.1888
     18 OAR        38.8860   21.5650  -16.4170 O.2       1 OGN        -0.3634
     19 CAS        40.9790   21.2430  -14.4410 C.ar      1 OGN         0.0683
     20 CAT        41.9950   20.6350  -13.7020 C.ar      1 OGN        -0.0413
     21 CAU        43.1990   21.3020  -13.4840 C.ar      1 OGN        -0.0756
     22 CAV        43.3710   22.5820  -14.0090 C.ar      1 OGN        -0.0773
     23 CAW        42.3590   23.2020  -14.7380 C.ar      1 OGN        -0.0756
     24 CAX        41.1530   22.5320  -14.9480 C.ar      1 OGN        -0.0413
     25 NAY        36.9110   19.8020  -16.4330 N.4       1 OGN         0.4349
     26 H1         36.9906   17.8337  -16.0826 H         1 OGN         0.1223
     27 H2         35.8733   17.5647  -17.9373 H         1 OGN         0.0667
     28 H3         33.3738   17.1737  -16.3876 H         1 OGN         0.0646
     29 H4         34.3483   15.5088  -14.8314 H         1 OGN         0.0647
     30 H5         33.9126   17.8401  -14.1181 H         1 OGN         0.0648
     31 H6         36.5258   16.8170  -12.9087 H         1 OGN         0.0584
     32 H7         34.8927   16.1844  -12.5092 H         1 OGN         0.0584
     33 H8         31.8371   21.1141  -17.4512 H         1 OGN         0.0467
     34 H9         31.9047   19.8159  -18.6907 H         1 OGN         0.0467
     35 H10        33.1028   21.1538  -18.7251 H         1 OGN         0.0467
     36 H11        34.3020   18.9442  -18.8223 H         1 OGN         0.1858
     37 H12        34.0344   16.0764  -18.3249 H         1 OGN         0.2100
     38 H13        36.6681   15.5546  -14.5890 H         1 OGN         0.2100
     39 H14        35.5748   17.8823  -11.0707 H         1 OGN         0.2095
     40 H15        39.6695   19.8444  -13.9275 H         1 OGN         0.2277
     41 H16        41.8471   19.6407  -13.2963 H         1 OGN         0.0502
     42 H17        43.9917   20.8316  -12.9135 H         1 OGN         0.0577
     43 H18        44.3076   23.1032  -13.8472 H         1 OGN         0.0487
     44 H19        42.5071   24.1980  -15.1394 H         1 OGN         0.0577
     45 H20        40.3542   23.0107  -15.5028 H         1 OGN         0.0502
     46 H21        36.2945   20.5983  -16.4756 H         1 OGN         0.2433
     47 H22        37.4011   19.7093  -17.3089 H         1 OGN         0.2433
@<TRIPOS>BOND
     1    1    2 1  
     2    1   12 1  
     3   25    1 1  
     4    2    3 1  
     5    2    9 1  
     6    3    4 1  
     7    3   10 1  
     8    5    4 1  
     9    4   11 1  
    10    5    6 1  
    11   12    5 1  
    12    6   13 1  
    13    7    8 1  
    14    9    7 am 
    15    7   14 2  
    16   16   15 am 
    17   15   19 1  
    18   17   16 1  
    19   16   18 2  
    20   17   25 1  
    21   19   20 ar 
    22   19   24 ar 
    23   20   21 ar 
    24   21   22 ar 
    25   22   23 ar 
    26   23   24 ar 
    27    1   26 1  
    28    2   27 1  
    29    3   28 1  
    30    4   29 1  
    31    5   30 1  
    32    6   31 1  
    33    6   32 1  
    34    8   33 1  
    35    8   34 1  
    36    8   35 1  
    37    9   36 1  
    38   10   37 1  
    39   11   38 1  
    40   13   39 1  
    41   15   40 1  
    42   20   41 1  
    43   21   42 1  
    44   22   43 1  
    45   23   44 1  
    46   24   45 1  
    47   25   46 1  
    48   25   47 1  
@<TRIPOS>SUBSTRUCTURE
     1 OGN         1

