### 
### Created by X-TOOL on Mon Sep 10 21:13:08 2018
### 

@<TRIPOS>MOLECULE
3suv_ligand
   31    31     1     0     0
SMALL
GAST_HUCK


@<TRIPOS>ATOM
      1 C8         31.8880   20.0740  -18.0120 C.3       1 NOK         0.0257
      2 C7         33.0200   19.5080  -17.1690 C.2       1 NOK         0.1734
      3 O7         33.0660   19.7470  -15.9650 O.2       1 NOK        -0.3974
      4 N2         33.9160   18.7580  -17.8360 N.am      1 NOK        -0.2764
      5 C2         35.1130   18.1460  -17.2010 C.3       1 NOK         0.1099
      6 C1         35.9250   19.2500  -16.5020 C.3       1 NOK        -0.0071
      7 N5         37.1890   18.6740  -15.9880 N.4       1 NOK         0.2344
      8 C5         36.8930   17.7430  -14.8750 C.3       1 NOK         0.0301
      9 C6         38.2060   17.2350  -14.2770 C.3       1 NOK         0.0893
     10 O6         39.0380   16.7230  -15.3240 O.3       1 NOK        -0.3894
     11 C4         36.0390   16.5640  -15.3790 C.3       1 NOK         0.1277
     12 O4         35.5780   15.7870  -14.2640 O.3       1 NOK        -0.3835
     13 C3         34.8120   16.9820  -16.2340 C.3       1 NOK         0.1141
     14 O3         34.4220   15.8340  -16.9920 O.3       1 NOK        -0.3865
     15 H1         32.0146   19.7555  -19.0572 H         1 NOK         0.0467
     16 H2         31.9051   21.1726  -17.9589 H         1 NOK         0.0467
     17 H3         30.9254   19.7033  -17.6298 H         1 NOK         0.0467
     18 H4         33.7687   18.6036  -18.8130 H         1 NOK         0.1857
     19 H5         35.7326   17.7321  -18.0102 H         1 NOK         0.0636
     20 H6         35.3416   19.6620  -15.6654 H         1 NOK         0.0838
     21 H7         36.1515   20.0512  -17.2209 H         1 NOK         0.0838
     22 H8         37.7851   19.4157  -15.6556 H         1 NOK         0.2019
     23 H9         37.6557   18.1742  -16.7285 H         1 NOK         0.2019
     24 H10        36.3305   18.2810  -14.0977 H         1 NOK         0.0900
     25 H11        37.9941   16.4352  -13.5522 H         1 NOK         0.0614
     26 H12        38.7227   18.0627  -13.7691 H         1 NOK         0.0614
     27 H13        39.8536   16.4074  -14.9531 H         1 NOK         0.2097
     28 H14        36.6846   15.9315  -16.0059 H         1 NOK         0.0678
     29 H15        35.0524   16.3351  -13.6932 H         1 NOK         0.2102
     30 H16        33.9935   17.2840  -15.5641 H         1 NOK         0.0646
     31 H17        33.6702   16.0518  -17.5304 H         1 NOK         0.2100
@<TRIPOS>BOND
     1    1    2 1  
     2    2    3 2  
     3    2    4 am 
     4    4    5 1  
     5    5    6 1  
     6    5   13 1  
     7    6    7 1  
     8    7    8 1  
     9    8    9 1  
    10    8   11 1  
    11    9   10 1  
    12   11   12 1  
    13   11   13 1  
    14   13   14 1  
    15    1   15 1  
    16    1   16 1  
    17    1   17 1  
    18    4   18 1  
    19    5   19 1  
    20    6   20 1  
    21    6   21 1  
    22    7   22 1  
    23    7   23 1  
    24    8   24 1  
    25    9   25 1  
    26    9   26 1  
    27   10   27 1  
    28   11   28 1  
    29   12   29 1  
    30   13   30 1  
    31   14   31 1  
@<TRIPOS>SUBSTRUCTURE
     1 NOK         1

