### 
### Created by X-TOOL on Mon Sep 10 21:13:08 2018
### 

@<TRIPOS>MOLECULE
3suw_ligand
   35    36     1     0     0
SMALL
GAST_HUCK


@<TRIPOS>ATOM
      1 O1         33.2480   19.8410  -15.7720 O.2       1 GC2        -0.3974
      2 C8         33.1730   19.5670  -16.9790 C.2       1 GC2         0.1734
      3 C10        32.0320   20.1210  -17.8330 C.3       1 GC2         0.0257
      4 N2         34.0240   18.7900  -17.6570 N.am      1 GC2        -0.2764
      5 C2         35.2240   18.1370  -17.0710 C.3       1 GC2         0.1100
      6 C3         34.8470   16.9430  -16.1580 C.3       1 GC2         0.1141
      7 O4         34.3320   15.8820  -16.9380 O.3       1 GC2        -0.3865
      8 C4         36.0380   16.3970  -15.3160 C.3       1 GC2         0.1281
      9 O2         35.5190   15.6520  -14.2210 O.3       1 GC2        -0.3835
     10 C1         36.1330   19.1680  -16.3460 C.3       1 GC2        -0.0054
     11 N1         37.3200   18.4010  -15.8570 N.4       1 GC2         0.2429
     12 C5         36.9060   17.5080  -14.7560 C.3       1 GC2         0.0349
     13 C9         38.4090   19.1990  -15.2600 C.3       1 GC2        -0.0288
     14 C7         39.2370   18.1000  -14.5660 C.3       1 GC2         0.0189
     15 C6         38.2240   17.0150  -14.1400 C.3       1 GC2         0.1050
     16 O3         38.5830   15.7220  -14.6760 O.3       1 GC2        -0.3859
     17 H1         32.1428   19.7656  -18.8681 H         1 GC2         0.0467
     18 H2         32.0628   21.2204  -17.8176 H         1 GC2         0.0467
     19 H3         31.0695   19.7754  -17.4278 H         1 GC2         0.0467
     20 H4         33.8400   18.6372  -18.6280 H         1 GC2         0.1857
     21 H5         35.8082   17.7266  -17.9078 H         1 GC2         0.0636
     22 H6         34.0659   17.2852  -15.4632 H         1 GC2         0.0646
     23 H7         33.5577   16.1783  -17.4018 H         1 GC2         0.2100
     24 H8         36.6549   15.7448  -15.9516 H         1 GC2         0.0678
     25 H9         36.2381   15.3140  -13.7002 H         1 GC2         0.2102
     26 H10        35.5964   19.6217  -15.4997 H         1 GC2         0.0838
     27 H11        36.4492   19.9564  -17.0449 H         1 GC2         0.0838
     28 H12        37.6861   17.8662  -16.6290 H         1 GC2         0.2039
     29 H13        36.3291   18.0632  -14.0018 H         1 GC2         0.0904
     30 H14        38.0224   19.9309  -14.5355 H         1 GC2         0.0815
     31 H15        38.9960   19.7205  -16.0303 H         1 GC2         0.0815
     32 H16        39.7536   18.5085  -13.6850 H         1 GC2         0.0344
     33 H17        39.9771   17.6803  -15.2632 H         1 GC2         0.0344
     34 H18        38.1512   16.9517  -13.0443 H         1 GC2         0.0653
     35 H19        37.9436   15.0766  -14.3981 H         1 GC2         0.2100
@<TRIPOS>BOND
     1    1    2 2  
     2    2    3 1  
     3    2    4 am 
     4    4    5 1  
     5    5    6 1  
     6    5   10 1  
     7    6    7 1  
     8    6    8 1  
     9    8    9 1  
    10    8   12 1  
    11   10   11 1  
    12   11   12 1  
    13   11   13 1  
    14   12   15 1  
    15   13   14 1  
    16   14   15 1  
    17   15   16 1  
    18    3   17 1  
    19    3   18 1  
    20    3   19 1  
    21    4   20 1  
    22    5   21 1  
    23    6   22 1  
    24    7   23 1  
    25    8   24 1  
    26    9   25 1  
    27   10   26 1  
    28   10   27 1  
    29   11   28 1  
    30   12   29 1  
    31   13   30 1  
    32   13   31 1  
    33   14   32 1  
    34   14   33 1  
    35   15   34 1  
    36   16   35 1  
@<TRIPOS>SUBSTRUCTURE
     1 GC2         1

