### 
### Created by X-TOOL on Mon Sep 10 21:13:08 2018
### 

@<TRIPOS>MOLECULE
3sv2_ligand
   51    53     1     0     0
SMALL
GAST_HUCK


@<TRIPOS>ATOM
      1 N21        16.4180  -15.5200   23.1810 N.4       1 P05         0.2394
      2 C8         17.7190  -14.8760   23.1360 C.3       1 P05         0.0746
      3 C9         17.5440  -13.4940   22.5390 C.2       1 P05         0.2313
      4 O25        16.6280  -12.7610   22.9230 O.2       1 P05        -0.3903
      5 C7         18.2270  -14.7850   24.5750 C.3       1 P05         0.0416
      6 C4         19.6320  -14.2480   24.6420 C.ar      1 P05        -0.0353
      7 C3         19.8640  -13.0460   25.3050 C.ar      1 P05        -0.0600
      8 C5         20.6930  -14.9330   24.0500 C.ar      1 P05        -0.0600
      9 C2         21.1510  -12.5260   25.3690 C.ar      1 P05        -0.0686
     10 C6         21.9780  -14.4170   24.1370 C.ar      1 P05        -0.0686
     11 C1         22.2170  -13.2070   24.7870 C.ar      1 P05        -0.0687
     12 N22        18.3880  -13.0960   21.5830 N.am      1 P05        -0.2470
     13 C13        18.1900  -11.7780   20.9800 C.3       1 P05         0.1339
     14 C14        16.8140  -11.6760   20.3860 C.2       1 P05         0.2039
     15 O26        16.3240  -12.6040   19.7390 O.2       1 P05        -0.3944
     16 C12        19.2130  -11.6680   19.8660 C.3       1 P05        -0.0104
     17 C11        20.2390  -12.7270   20.1870 C.3       1 P05        -0.0281
     18 C10        19.5080  -13.8260   20.9680 C.3       1 P05         0.0371
     19 C15        14.8270  -10.2230   20.1030 C.3       1 P05         0.0716
     20 C16        13.7650  -10.5290   21.1300 C.ar      1 P05        -0.0011
     21 C17        13.1850   -9.5250   21.9130 C.ar      1 P05        -0.0305
     22 C18        12.2070   -9.8740   22.8340 C.ar      1 P05         0.0031
     23 C19        12.3610  -12.1220   22.2190 C.ar      1 P05         0.0031
     24 C20        13.3520  -11.8470   21.2870 C.ar      1 P05        -0.0305
     25 N23        16.1610  -10.5290   20.5910 N.am      1 P05        -0.2717
     26 N24        11.8080  -11.1510   22.9530 N.ar      1 P05        -0.3066
     27 H1         16.5133  -16.4425   23.5759 H         1 P05         0.2017
     28 H2         16.0458  -15.5912   22.2470 H         1 P05         0.2017
     29 H3         15.7920  -14.9734   23.7514 H         1 P05         0.2017
     30 H4         18.4204  -15.4620   22.5239 H         1 P05         0.1123
     31 H5         18.2087  -15.7896   25.0227 H         1 P05         0.0507
     32 H6         17.5638  -14.1175   25.1447 H         1 P05         0.0507
     33 H7         19.0412  -12.5161   25.7710 H         1 P05         0.0557
     34 H8         20.5145  -15.8641   23.5244 H         1 P05         0.0557
     35 H9         21.3263  -11.5838   25.8755 H         1 P05         0.0599
     36 H10        22.8051  -14.9605   23.6948 H         1 P05         0.0599
     37 H11        23.2208  -12.8012   24.8387 H         1 P05         0.0559
     38 H12        18.3374  -10.9847   21.7276 H         1 P05         0.0802
     39 H13        19.6744  -10.6695   19.8594 H         1 P05         0.0313
     40 H14        18.7462  -11.8628   18.8892 H         1 P05         0.0313
     41 H15        21.0463  -12.2995   20.7998 H         1 P05         0.0287
     42 H16        20.6620  -13.1389   19.2589 H         1 P05         0.0287
     43 H17        19.1443  -14.6161   20.2946 H         1 P05         0.0524
     44 H18        20.1610  -14.2692   21.7343 H         1 P05         0.0524
     45 H19        14.7783   -9.1537   19.8496 H         1 P05         0.0710
     46 H20        14.6325  -10.8227   19.2016 H         1 P05         0.0710
     47 H21        13.4942   -8.4920   21.8022 H         1 P05         0.0652
     48 H22        11.7620   -9.1105   23.4618 H         1 P05         0.0803
     49 H23        12.0286  -13.1449   22.3545 H         1 P05         0.0803
     50 H24        13.7934  -12.6411   20.6956 H         1 P05         0.0652
     51 H25        16.6282   -9.8234   21.1237 H         1 P05         0.1882
@<TRIPOS>BOND
     1    2    1 1  
     2    3    2 1  
     3    2    5 1  
     4    3    4 2  
     5   12    3 am 
     6    5    6 1  
     7    6    7 ar 
     8    6    8 ar 
     9    7    9 ar 
    10    8   10 ar 
    11    9   11 ar 
    12   10   11 ar 
    13   13   12 1  
    14   12   18 1  
    15   14   13 1  
    16   13   16 1  
    17   14   15 2  
    18   25   14 am 
    19   16   17 1  
    20   17   18 1  
    21   19   20 1  
    22   19   25 1  
    23   20   21 ar 
    24   20   24 ar 
    25   21   22 ar 
    26   22   26 ar 
    27   24   23 ar 
    28   23   26 ar 
    29    1   27 1  
    30    1   28 1  
    31    1   29 1  
    32    2   30 1  
    33    5   31 1  
    34    5   32 1  
    35    7   33 1  
    36    8   34 1  
    37    9   35 1  
    38   10   36 1  
    39   11   37 1  
    40   13   38 1  
    41   16   39 1  
    42   16   40 1  
    43   17   41 1  
    44   17   42 1  
    45   18   43 1  
    46   18   44 1  
    47   19   45 1  
    48   19   46 1  
    49   21   47 1  
    50   22   48 1  
    51   23   49 1  
    52   24   50 1  
    53   25   51 1  
@<TRIPOS>SUBSTRUCTURE
     1 P05         1

