### 
### Created by X-TOOL on Mon Sep 10 21:13:08 2018
### 

@<TRIPOS>MOLECULE
3sv6_ligand
  104   108     1     0     0
SMALL
GAST_HUCK


@<TRIPOS>ATOM
      1 CBN       -23.8170   -9.5390   13.4650 C.ar      1 SV6         0.1532
      2 CBO       -25.7680   -8.7300   12.5370 C.ar      1 SV6         0.0475
      3 CBP       -26.1470  -10.0360   12.2190 C.ar      1 SV6         0.0462
      4 CBB       -22.4830   -9.2690   14.1800 C.2       1 SV6         0.2347
      5 CBQ       -24.2070  -10.8410   13.1410 C.ar      1 SV6         0.0620
      6 OBW       -22.1210   -8.1240   14.4280 O.2       1 SV6        -0.3756
      7 NAF       -24.6150   -8.5050   13.1550 N.ar      1 SV6        -0.2509
      8 NAG       -25.3630  -11.0600   12.5250 N.ar      1 SV6        -0.2653
      9 NAD       -21.7990  -10.3520   14.4960 N.am      1 SV6        -0.2615
     10 CAY       -20.5020  -10.2620   15.1860 C.3       1 SV6         0.1336
     11 CAX       -19.3940  -10.1610   14.1470 C.2       1 SV6         0.2042
     12 OBU       -19.2800  -11.0130   13.2620 O.2       1 SV6        -0.3944
     13 CBH       -20.3110  -11.4900   16.0670 C.3       1 SV6        -0.0006
     14 CBI       -21.4240  -11.5610   17.1250 C.3       1 SV6        -0.0460
     15 CBJ       -21.2230  -12.7570   18.0530 C.3       1 SV6        -0.0526
     16 CBK       -19.8350  -12.7230   18.7120 C.3       1 SV6        -0.0530
     17 CBL       -18.7280  -12.6440   17.6560 C.3       1 SV6        -0.0526
     18 CBM       -18.9350  -11.4340   16.7400 C.3       1 SV6        -0.0460
     19 NAC       -18.6430   -9.0740   14.2630 N.am      1 SV6        -0.2632
     20 CAW       -17.5300   -8.8030   13.3430 C.3       1 SV6         0.1360
     21 CAZ       -17.6910   -7.4340   12.6560 C.3       1 SV6         0.0026
     22 CBC       -17.8120   -6.2560   13.6200 C.3       1 SV6        -0.0558
     23 CBD       -18.9450   -7.4560   11.7660 C.3       1 SV6        -0.0558
     24 CBA       -16.4730   -7.1820   11.7430 C.3       1 SV6        -0.0558
     25 CAV       -16.2010   -8.9330   14.1170 C.2       1 SV6         0.2069
     26 OBT       -15.9570   -8.1990   15.0930 O.2       1 SV6        -0.3942
     27 C         -13.1120   -8.8820   14.0310 C.2       1 SV6         0.2026
     28 N         -15.3170   -9.8560   13.7460 N.am      1 SV6        -0.2493
     29 O         -13.0890   -8.5310   12.8500 O.2       1 SV6        -0.3945
     30 CA        -14.0210  -10.0270   14.4370 C.3       1 SV6         0.1367
     31 CB        -13.4570  -11.3660   13.9710 C.3       1 SV6         0.0043
     32 CG        -14.1430  -11.6610   12.6290 C.3       1 SV6        -0.0134
     33 CBE       -13.8150  -12.5080   14.9020 C.3       1 SV6        -0.0456
     34 CBF       -13.8610  -13.7250   13.9800 C.3       1 SV6        -0.0523
     35 CD1       -15.4400  -10.8180   12.6110 C.3       1 SV6         0.0400
     36 CD2       -14.4250  -13.1680   12.6650 C.3       1 SV6        -0.0479
     37 NAA        -9.1640   -6.1430   13.0990 N.am      1 SV6        -0.2817
     38 NAE       -12.4380   -8.2720   15.0090 N.am      1 SV6        -0.2772
     39 CAH       -11.6590   -7.0550   14.7010 C.3       1 SV6         0.0850
     40 CAI       -10.1640   -7.1840   14.9970 C.3       1 SV6         0.1662
     41 CAJ       -12.2910   -5.8610   15.4430 C.3       1 SV6        -0.0255
     42 CAK       -13.5620   -5.4220   14.6760 C.3       1 SV6        -0.0536
     43 CAL       -14.2460   -4.2370   15.3400 C.3       1 SV6        -0.0652
     44 CAM        -9.3980   -6.0150   14.3980 C.2       1 SV6         0.2075
     45 CAN        -8.4840   -5.0930   12.3450 C.3       1 SV6         0.0422
     46 CAO        -7.0370   -5.4010   12.0270 C.3       1 SV6        -0.0278
     47 CAP        -8.1000   -5.4890   10.9260 C.3       1 SV6        -0.0278
     48 OBR        -9.6320   -8.3780   14.4540 O.3       1 SV6        -0.3691
     49 OBS        -9.0870   -5.0460   15.0810 O.2       1 SV6        -0.3941
     50 H         -26.4192   -7.8952   12.2777 H         1 SV6         0.0941
     51 H         -27.0965  -10.2149   11.7144 H         1 SV6         0.0958
     52 H         -23.5598  -11.6805   13.3949 H         1 SV6         0.0978
     53 H         -22.1762  -11.2692   14.2576 H         1 SV6         0.1881
     54 H         -20.4711   -9.3759   15.8200 H         1 SV6         0.0803
     55 H         -20.3654  -12.3863   15.4492 H         1 SV6         0.0348
     56 H         -22.3822  -11.6701   16.6171 H         1 SV6         0.0270
     57 H         -21.3984  -10.6485   17.7207 H         1 SV6         0.0270
     58 H         -21.3064  -13.6711   17.4651 H         1 SV6         0.0265
     59 H         -21.9805  -12.7207   18.8359 H         1 SV6         0.0265
     60 H         -19.7007  -13.6361   19.2919 H         1 SV6         0.0265
     61 H         -19.7726  -11.8420   19.3508 H         1 SV6         0.0265
     62 H         -18.7537  -13.5507   17.0516 H         1 SV6         0.0265
     63 H         -17.7674  -12.5422   18.1609 H         1 SV6         0.0265
     64 H         -18.8733  -10.5252   17.3387 H         1 SV6         0.0270
     65 H         -18.1655  -11.4418   15.9680 H         1 SV6         0.0270
     66 H         -18.8433   -8.4091   15.0101 H         1 SV6         0.1884
     67 H         -17.5288   -9.5366   12.5368 H         1 SV6         0.0805
     68 H         -18.6849   -6.3978   14.2572 H         1 SV6         0.0237
     69 H         -16.9154   -6.1997   14.2372 H         1 SV6         0.0237
     70 H         -17.9218   -5.3326   13.0513 H         1 SV6         0.0237
     71 H         -18.8388   -8.2340   11.0100 H         1 SV6         0.0237
     72 H         -19.8215   -7.6618   12.3804 H         1 SV6         0.0237
     73 H         -19.0604   -6.4877   11.2790 H         1 SV6         0.0237
     74 H         -15.5632   -7.1873   12.3433 H         1 SV6         0.0237
     75 H         -16.4170   -7.9673   10.9892 H         1 SV6         0.0237
     76 H         -16.5814   -6.2140   11.2538 H         1 SV6         0.0237
     77 H         -14.1173  -10.0194   15.5227 H         1 SV6         0.0805
     78 H         -12.3703  -11.2961   13.9239 H         1 SV6         0.0351
     79 H         -13.5645  -11.4141   11.7388 H         1 SV6         0.0325
     80 H         -14.7598  -12.3422   15.4197 H         1 SV6         0.0270
     81 H         -13.0947  -12.6263   15.7115 H         1 SV6         0.0270
     82 H         -14.4735  -14.5300   14.3860 H         1 SV6         0.0266
     83 H         -12.8809  -14.1838   13.8496 H         1 SV6         0.0266
     84 H         -15.5605  -10.2968   11.6613 H         1 SV6         0.0527
     85 H         -16.3232  -11.4476   12.7193 H         1 SV6         0.0527
     86 H         -13.9530  -13.6599   11.8145 H         1 SV6         0.0269
     87 H         -15.4979  -13.3518   12.6076 H         1 SV6         0.0269
     88 H          -9.4645   -6.9905   12.6174 H         1 SV6         0.1855
     89 H         -12.4607   -8.6425   15.9591 H         1 SV6         0.1857
     90 H         -11.7079   -6.8924   13.6243 H         1 SV6         0.0607
     91 H         -10.0547   -7.1947   16.0815 H         1 SV6         0.0861
     92 H         -11.5814   -5.0349   15.4904 H         1 SV6         0.0290
     93 H         -12.5526   -6.1518   16.4604 H         1 SV6         0.0290
     94 H         -14.2610   -6.2583   14.6669 H         1 SV6         0.0263
     95 H         -13.2677   -5.1259   13.6691 H         1 SV6         0.0263
     96 H         -14.5364   -4.5086   16.3549 H         1 SV6         0.0230
     97 H         -13.5575   -3.3926   15.3715 H         1 SV6         0.0230
     98 H         -15.1326   -3.9635   14.7679 H         1 SV6         0.0230
     99 H          -9.0131   -4.2508   12.7908 H         1 SV6         0.0556
    100 H          -6.2223   -6.0045   12.4273 H         1 SV6         0.0288
    101 H          -6.0535   -4.9568   12.1806 H         1 SV6         0.0288
    102 H          -8.2568   -5.1429    9.9044 H         1 SV6         0.0288
    103 H          -8.4241   -6.1812   10.1488 H         1 SV6         0.0288
    104 H         -10.1018   -9.1314   14.8191 H         1 SV6         0.2134
@<TRIPOS>BOND
     1    4    1 1  
     2    1    5 ar 
     3    1    7 ar 
     4    2    3 ar 
     5    7    2 ar 
     6    8    3 ar 
     7    4    6 2  
     8    9    4 am 
     9    5    8 ar 
    10   10    9 1  
    11   11   10 1  
    12   10   13 1  
    13   11   12 2  
    14   19   11 am 
    15   13   14 1  
    16   13   18 1  
    17   14   15 1  
    18   15   16 1  
    19   17   16 1  
    20   18   17 1  
    21   20   19 1  
    22   20   21 1  
    23   25   20 1  
    24   21   22 1  
    25   21   23 1  
    26   21   24 1  
    27   25   26 2  
    28   28   25 am 
    29   27   29 2  
    30   27   30 1  
    31   38   27 am 
    32   30   28 1  
    33   28   35 1  
    34   30   31 1  
    35   31   32 1  
    36   31   33 1  
    37   32   35 1  
    38   32   36 1  
    39   33   34 1  
    40   34   36 1  
    41   44   37 am 
    42   37   45 1  
    43   39   38 1  
    44   40   39 1  
    45   39   41 1  
    46   40   44 1  
    47   40   48 1  
    48   41   42 1  
    49   42   43 1  
    50   44   49 2  
    51   45   46 1  
    52   45   47 1  
    53   46   47 1  
    54    2   50 1  
    55    3   51 1  
    56    5   52 1  
    57    9   53 1  
    58   10   54 1  
    59   13   55 1  
    60   14   56 1  
    61   14   57 1  
    62   15   58 1  
    63   15   59 1  
    64   16   60 1  
    65   16   61 1  
    66   17   62 1  
    67   17   63 1  
    68   18   64 1  
    69   18   65 1  
    70   19   66 1  
    71   20   67 1  
    72   22   68 1  
    73   22   69 1  
    74   22   70 1  
    75   23   71 1  
    76   23   72 1  
    77   23   73 1  
    78   24   74 1  
    79   24   75 1  
    80   24   76 1  
    81   30   77 1  
    82   31   78 1  
    83   32   79 1  
    84   33   80 1  
    85   33   81 1  
    86   34   82 1  
    87   34   83 1  
    88   35   84 1  
    89   35   85 1  
    90   36   86 1  
    91   36   87 1  
    92   37   88 1  
    93   38   89 1  
    94   39   90 1  
    95   40   91 1  
    96   41   92 1  
    97   41   93 1  
    98   42   94 1  
    99   42   95 1  
   100   43   96 1  
   101   43   97 1  
   102   43   98 1  
   103   45   99 1  
   104   46  100 1  
   105   46  101 1  
   106   47  102 1  
   107   47  103 1  
   108   48  104 1  
@<TRIPOS>SUBSTRUCTURE
     1 SV6         1

