### 
### Created by X-TOOL on Mon Sep 10 21:13:09 2018
### 

@<TRIPOS>MOLECULE
3sv7_ligand
  104   108     1     0     0
SMALL
GAST_HUCK


@<TRIPOS>ATOM
      1 CBN       -23.8730   -9.2040   13.2750 C.ar      1 SV6         0.1532
      2 CBO       -25.4500  -10.5990   12.3170 C.ar      1 SV6         0.0475
      3 CBP       -26.0850   -9.4860   11.7580 C.ar      1 SV6         0.0462
      4 CBB       -22.6080   -9.0100   14.1290 C.2       1 SV6         0.2347
      5 CBQ       -24.5140   -8.1000   12.7110 C.ar      1 SV6         0.0620
      6 OBW       -22.2640   -7.8860   14.5030 O.2       1 SV6        -0.3756
      7 NAF       -24.3600  -10.4400   13.0570 N.ar      1 SV6        -0.2509
      8 NAG       -25.6040   -8.2670   11.9700 N.ar      1 SV6        -0.2653
      9 NAD       -21.9580  -10.1360   14.4080 N.am      1 SV6        -0.2615
     10 CAY       -20.6890  -10.1580   15.1740 C.3       1 SV6         0.1336
     11 CAX       -19.5460  -10.1090   14.1640 C.2       1 SV6         0.2042
     12 OBU       -19.4390  -10.9700   13.2920 O.2       1 SV6        -0.3944
     13 CBH       -20.5810  -11.4000   16.0770 C.3       1 SV6        -0.0006
     14 CBI       -21.7240  -11.4240   17.1070 C.3       1 SV6        -0.0460
     15 CBJ       -21.6230  -12.6650   17.9990 C.3       1 SV6        -0.0526
     16 CBK       -20.2640  -12.7180   18.7100 C.3       1 SV6        -0.0530
     17 CBL       -19.1070  -12.6770   17.7060 C.3       1 SV6        -0.0526
     18 CBM       -19.2220  -11.4510   16.8000 C.3       1 SV6        -0.0460
     19 NAC       -18.7500   -9.0580   14.2920 N.am      1 SV6        -0.2632
     20 CAW       -17.5980   -8.8340   13.4010 C.3       1 SV6         0.1360
     21 CAZ       -17.7250   -7.4650   12.6920 C.3       1 SV6         0.0026
     22 CBC       -17.7690   -6.2500   13.6480 C.3       1 SV6        -0.0558
     23 CBD       -19.0190   -7.4810   11.8390 C.3       1 SV6        -0.0558
     24 CBA       -16.5090   -7.2970   11.7630 C.3       1 SV6        -0.0558
     25 CAV       -16.3040   -8.9400   14.2070 C.2       1 SV6         0.2069
     26 OBT       -16.1180   -8.1830   15.1670 O.2       1 SV6        -0.3942
     27 C         -13.2110   -8.7970   14.1280 C.2       1 SV6         0.2026
     28 N         -15.3740   -9.8290   13.8460 N.am      1 SV6        -0.2493
     29 O         -13.1730   -8.4150   12.9540 O.2       1 SV6        -0.3945
     30 CA        -14.0760   -9.9800   14.5380 C.3       1 SV6         0.1367
     31 CB        -13.4740  -11.2880   14.0360 C.3       1 SV6         0.0043
     32 CG        -14.1470  -11.5370   12.6820 C.3       1 SV6        -0.0134
     33 CBE       -13.8810  -12.4750   14.9040 C.3       1 SV6        -0.0456
     34 CBF       -13.8540  -13.6430   13.9200 C.3       1 SV6        -0.0523
     35 CD1       -15.4900  -10.7860   12.7230 C.3       1 SV6         0.0400
     36 CD2       -14.3900  -13.0430   12.6140 C.3       1 SV6        -0.0479
     37 NAA        -9.3210   -6.0730   13.1230 N.am      1 SV6        -0.2817
     38 NAE       -12.5200   -8.1990   15.0950 N.am      1 SV6        -0.2772
     39 CAH       -11.7870   -6.9770   14.7710 C.3       1 SV6         0.0850
     40 CAI       -10.2940   -7.1160   15.0360 C.3       1 SV6         0.1662
     41 CAJ       -12.3970   -5.8250   15.5780 C.3       1 SV6        -0.0255
     42 CAK       -13.8320   -5.5530   15.0990 C.3       1 SV6        -0.0536
     43 CAL       -14.2380   -4.1250   15.4330 C.3       1 SV6        -0.0652
     44 CAM        -9.5100   -5.9640   14.4240 C.2       1 SV6         0.2075
     45 CAN        -8.6180   -5.0410   12.3590 C.3       1 SV6         0.0422
     46 CAO        -7.1380   -5.3250   12.1390 C.3       1 SV6        -0.0278
     47 CAP        -8.1330   -5.4910   10.9830 C.3       1 SV6        -0.0278
     48 OBR        -9.8020   -8.3470   14.5090 O.3       1 SV6        -0.3691
     49 OBS        -9.0630   -5.0520   15.1170 O.2       1 SV6        -0.3941
     50 H         -25.8505  -11.5980   12.1449 H         1 SV6         0.0941
     51 H         -26.9774   -9.6195   11.1465 H         1 SV6         0.0958
     52 H         -24.1192   -7.0980   12.8789 H         1 SV6         0.0978
     53 H         -22.3483  -11.0201   14.0818 H         1 SV6         0.1881
     54 H         -20.6473   -9.2987   15.8434 H         1 SV6         0.0803
     55 H         -20.6614  -12.2787   15.4370 H         1 SV6         0.0348
     56 H         -22.6759  -11.4479   16.5765 H         1 SV6         0.0270
     57 H         -21.6536  -10.5340   17.7323 H         1 SV6         0.0270
     58 H         -21.7284  -13.5538   17.3769 H         1 SV6         0.0265
     59 H         -22.4109  -12.6217   18.7509 H         1 SV6         0.0265
     60 H         -20.2028  -13.6503   19.2715 H         1 SV6         0.0265
     61 H         -20.1830  -11.8525   19.3677 H         1 SV6         0.0265
     62 H         -19.1428  -13.5754   17.0898 H         1 SV6         0.0265
     63 H         -18.1663  -12.6235   18.2540 H         1 SV6         0.0265
     64 H         -19.1289  -10.5581   17.4182 H         1 SV6         0.0270
     65 H         -18.4353  -11.5059   16.0475 H         1 SV6         0.0270
     66 H         -18.9407   -8.3818   15.0314 H         1 SV6         0.1884
     67 H         -17.5782   -9.5987   12.6245 H         1 SV6         0.0805
     68 H         -18.6269   -6.3440   14.3137 H         1 SV6         0.0237
     69 H         -16.8522   -6.2192   14.2368 H         1 SV6         0.0237
     70 H         -17.8587   -5.3335   13.0648 H         1 SV6         0.0237
     71 H         -18.9568   -8.2815   11.1018 H         1 SV6         0.0237
     72 H         -19.8784   -7.6490   12.4880 H         1 SV6         0.0237
     73 H         -19.1286   -6.5237   11.3294 H         1 SV6         0.0237
     74 H         -15.5940   -7.3323   12.3543 H         1 SV6         0.0237
     75 H         -16.5001   -8.1028   11.0290 H         1 SV6         0.0237
     76 H         -16.5749   -6.3374   11.2502 H         1 SV6         0.0237
     77 H         -14.1630  -10.0021   15.6243 H         1 SV6         0.0805
     78 H         -12.3872  -11.2064   14.0217 H         1 SV6         0.0351
     79 H         -13.5607  -11.2046   11.8253 H         1 SV6         0.0325
     80 H         -14.8549  -12.3407   15.3747 H         1 SV6         0.0270
     81 H         -13.2171  -12.6238   15.7556 H         1 SV6         0.0270
     82 H         -14.4540  -14.4857   14.2635 H         1 SV6         0.0266
     83 H         -12.8539  -14.0601   13.8023 H         1 SV6         0.0266
     84 H         -15.6904  -10.2745   11.7816 H         1 SV6         0.0527
     85 H         -16.3261  -11.4705   12.8664 H         1 SV6         0.0527
     86 H         -13.8819  -13.4772   11.7530 H         1 SV6         0.0269
     87 H         -15.4524  -13.2575   12.4985 H         1 SV6         0.0269
     88 H          -9.6737   -6.8975   12.6369 H         1 SV6         0.1855
     89 H         -12.5023   -8.5841   16.0394 H         1 SV6         0.1857
     90 H         -11.8807   -6.7733   13.7043 H         1 SV6         0.0607
     91 H         -10.1562   -7.0992   16.1171 H         1 SV6         0.0861
     92 H         -11.7944   -4.9279   15.4358 H         1 SV6         0.0290
     93 H         -12.4157   -6.0959   16.6336 H         1 SV6         0.0290
     94 H         -14.5113   -6.2427   15.6000 H         1 SV6         0.0263
     95 H         -13.8795   -5.6933   14.0191 H         1 SV6         0.0263
     96 H         -14.1881   -3.9773   16.5118 H         1 SV6         0.0230
     97 H         -13.5592   -3.4304   14.9381 H         1 SV6         0.0230
     98 H         -15.2565   -3.9479   15.0875 H         1 SV6         0.0230
     99 H          -9.1951   -4.1951   12.7325 H         1 SV6         0.0556
    100 H          -6.3335   -5.8872   12.6131 H         1 SV6         0.0288
    101 H          -6.1764   -4.8481   12.3287 H         1 SV6         0.0288
    102 H          -8.2351   -5.1930    9.9395 H         1 SV6         0.0288
    103 H          -8.3916   -6.2282   10.2229 H         1 SV6         0.0288
    104 H         -10.2937   -9.0771   14.8922 H         1 SV6         0.2134
@<TRIPOS>BOND
     1    4    1 1  
     2    1    5 ar 
     3    1    7 ar 
     4    2    3 ar 
     5    7    2 ar 
     6    8    3 ar 
     7    4    6 2  
     8    9    4 am 
     9    5    8 ar 
    10   10    9 1  
    11   11   10 1  
    12   10   13 1  
    13   11   12 2  
    14   19   11 am 
    15   13   14 1  
    16   13   18 1  
    17   14   15 1  
    18   15   16 1  
    19   17   16 1  
    20   18   17 1  
    21   20   19 1  
    22   20   21 1  
    23   25   20 1  
    24   21   22 1  
    25   21   23 1  
    26   21   24 1  
    27   25   26 2  
    28   28   25 am 
    29   27   29 2  
    30   27   30 1  
    31   38   27 am 
    32   30   28 1  
    33   28   35 1  
    34   30   31 1  
    35   31   32 1  
    36   31   33 1  
    37   32   35 1  
    38   32   36 1  
    39   33   34 1  
    40   34   36 1  
    41   44   37 am 
    42   37   45 1  
    43   39   38 1  
    44   40   39 1  
    45   39   41 1  
    46   40   44 1  
    47   40   48 1  
    48   41   42 1  
    49   42   43 1  
    50   44   49 2  
    51   45   46 1  
    52   45   47 1  
    53   46   47 1  
    54    2   50 1  
    55    3   51 1  
    56    5   52 1  
    57    9   53 1  
    58   10   54 1  
    59   13   55 1  
    60   14   56 1  
    61   14   57 1  
    62   15   58 1  
    63   15   59 1  
    64   16   60 1  
    65   16   61 1  
    66   17   62 1  
    67   17   63 1  
    68   18   64 1  
    69   18   65 1  
    70   19   66 1  
    71   20   67 1  
    72   22   68 1  
    73   22   69 1  
    74   22   70 1  
    75   23   71 1  
    76   23   72 1  
    77   23   73 1  
    78   24   74 1  
    79   24   75 1  
    80   24   76 1  
    81   30   77 1  
    82   31   78 1  
    83   32   79 1  
    84   33   80 1  
    85   33   81 1  
    86   34   82 1  
    87   34   83 1  
    88   35   84 1  
    89   35   85 1  
    90   36   86 1  
    91   36   87 1  
    92   37   88 1  
    93   38   89 1  
    94   39   90 1  
    95   40   91 1  
    96   41   92 1  
    97   41   93 1  
    98   42   94 1  
    99   42   95 1  
   100   43   96 1  
   101   43   97 1  
   102   43   98 1  
   103   45   99 1  
   104   46  100 1  
   105   46  101 1  
   106   47  102 1  
   107   47  103 1  
   108   48  104 1  
@<TRIPOS>SUBSTRUCTURE
     1 SV6         1

