### 
### Created by X-TOOL on Mon Sep 10 21:13:11 2018
### 

@<TRIPOS>MOLECULE
3sv8_ligand
  104   108     1     0     0
SMALL
GAST_HUCK


@<TRIPOS>ATOM
      1 CBN        -0.2790   19.7960   15.7000 C.ar      1 SV6         0.1532
      2 CBO         0.2800   21.1790   17.4990 C.ar      1 SV6         0.0475
      3 CBP         1.1540   20.2010   17.9600 C.ar      1 SV6         0.0462
      4 CBB        -1.0760   19.5710   14.4460 C.2       1 SV6         0.2347
      5 CBQ         0.5960   18.8160   16.1770 C.ar      1 SV6         0.0620
      6 OBW        -1.9080   20.3970   14.1030 O.2       1 SV6        -0.3756
      7 NAF        -0.4150   20.9580   16.3800 N.ar      1 SV6        -0.2509
      8 NAG         1.3000   19.0430   17.2960 N.ar      1 SV6        -0.2653
      9 NAD        -0.8440   18.4650   13.7390 N.am      1 SV6        -0.2615
     10 CAY        -1.5800   18.1680   12.5230 C.3       1 SV6         0.1336
     11 CAX        -2.7130   17.2290   12.7960 C.2       1 SV6         0.2042
     12 OBU        -2.4980   16.1700   13.3750 O.2       1 SV6        -0.3944
     13 CBH        -0.6290   17.4980   11.5310 C.3       1 SV6        -0.0006
     14 CBI         0.6390   18.3330   11.3080 C.3       1 SV6        -0.0460
     15 CBJ         1.5300   17.8100   10.1830 C.3       1 SV6        -0.0526
     16 CBK         0.7370   17.4570    8.9270 C.3       1 SV6        -0.0530
     17 CBL        -0.4470   16.5400    9.2330 C.3       1 SV6        -0.0526
     18 CBM        -1.3650   17.2320   10.2190 C.3       1 SV6        -0.0460
     19 NAC        -3.8920   17.6630   12.3330 N.am      1 SV6        -0.2632
     20 CAW        -5.1230   16.9030   12.4460 C.3       1 SV6         0.1360
     21 CAZ        -6.1650   17.5790   13.3390 C.3       1 SV6         0.0026
     22 CBC        -6.5650   18.9600   12.8240 C.3       1 SV6        -0.0558
     23 CBD        -5.5780   17.7620   14.7500 C.3       1 SV6        -0.0558
     24 CBA        -7.3780   16.6460   13.4000 C.3       1 SV6        -0.0558
     25 CAV        -5.6200   16.5900   11.0490 C.2       1 SV6         0.2069
     26 OBT        -5.9870   17.4980   10.3180 O.2       1 SV6        -0.3942
     27 C          -7.5860   14.9450    9.2430 C.2       1 SV6         0.2026
     28 N          -5.6020   15.3020   10.6450 N.am      1 SV6        -0.2493
     29 O          -8.2520   14.3900   10.1220 O.2       1 SV6        -0.3945
     30 CA         -6.0720   14.8990    9.3120 C.3       1 SV6         0.1367
     31 CB         -5.4980   13.5010    9.1190 C.3       1 SV6         0.0043
     32 CG         -4.7850   13.1080   10.4030 C.3       1 SV6        -0.0134
     33 CBE        -4.4530   13.4120    8.0070 C.3       1 SV6        -0.0456
     34 CBF        -3.0980   13.5750    8.7010 C.3       1 SV6        -0.0523
     35 CD1        -5.1660   14.1500   11.4360 C.3       1 SV6         0.0400
     36 CD2        -3.2800   13.0960   10.1390 C.3       1 SV6        -0.0479
     37 NAA       -12.1720   13.8490    7.6410 N.am      1 SV6        -0.2817
     38 NAE        -8.1670   15.6140    8.2350 N.am      1 SV6        -0.2772
     39 CAH        -9.6270   15.7390    8.1660 C.3       1 SV6         0.0850
     40 CAI       -10.2170   15.0790    6.9060 C.3       1 SV6         0.1662
     41 CAJ        -9.8700   17.2470    8.2020 C.3       1 SV6        -0.0255
     42 CAK        -9.4410   17.8500    9.5380 C.3       1 SV6        -0.0536
     43 CAL        -9.4570   19.3660    9.5220 C.3       1 SV6        -0.0652
     44 CAM       -11.7240   14.9580    7.0290 C.2       1 SV6         0.2075
     45 CAN       -13.6030   13.5820    7.8110 C.3       1 SV6         0.0422
     46 CAO       -13.9760   12.9340    9.1410 C.3       1 SV6        -0.0278
     47 CAP       -14.2050   14.4260    8.9300 C.3       1 SV6        -0.0278
     48 OBR        -9.7450   13.7220    6.7540 O.3       1 SV6        -0.3691
     49 OBS       -12.4720   15.8300    6.5810 O.2       1 SV6        -0.3941
     50 H           0.1633   22.1154   18.0445 H         1 SV6         0.0941
     51 H           1.7271   20.3761   18.8705 H         1 SV6         0.0958
     52 H           0.7057   17.8724   15.6426 H         1 SV6         0.0978
     53 H          -0.1310   17.8103   14.0605 H         1 SV6         0.1881
     54 H          -1.9819   19.0985   12.1221 H         1 SV6         0.0803
     55 H          -0.3022   16.5461   11.9494 H         1 SV6         0.0348
     56 H           1.2207   18.2937   12.2289 H         1 SV6         0.0270
     57 H           0.3221   19.3386   11.0315 H         1 SV6         0.0270
     58 H           2.0218   16.9038   10.5366 H         1 SV6         0.0265
     59 H           2.2402   18.5950    9.9233 H         1 SV6         0.0265
     60 H           1.4029   16.9345    8.2402 H         1 SV6         0.0265
     61 H           0.3492   18.3814    8.4989 H         1 SV6         0.0265
     62 H          -0.0864   15.6046    9.6608 H         1 SV6         0.0265
     63 H          -0.9913   16.3235    8.3138 H         1 SV6         0.0265
     64 H          -1.6918   18.1816    9.7952 H         1 SV6         0.0270
     65 H          -2.2240   16.5907   10.4163 H         1 SV6         0.0270
     66 H          -3.9267   18.5749   11.8773 H         1 SV6         0.1884
     67 H          -4.9239   15.9632   12.9610 H         1 SV6         0.0805
     68 H          -5.6847   19.6018   12.7876 H         1 SV6         0.0237
     69 H          -6.9885   18.8649   11.8241 H         1 SV6         0.0237
     70 H          -7.3063   19.3955   13.4940 H         1 SV6         0.0237
     71 H          -5.3176   16.7875   15.1630 H         1 SV6         0.0237
     72 H          -4.6848   18.3842   14.6927 H         1 SV6         0.0237
     73 H          -6.3173   18.2435   15.3900 H         1 SV6         0.0237
     74 H          -7.7711   16.4970   12.3943 H         1 SV6         0.0237
     75 H          -7.0759   15.6863   13.8193 H         1 SV6         0.0237
     76 H          -8.1473   17.0930   14.0297 H         1 SV6         0.0237
     77 H          -5.7440   15.5650    8.5139 H         1 SV6         0.0805
     78 H          -6.3344   12.8533    8.8563 H         1 SV6         0.0351
     79 H          -5.0648   12.1162   10.7581 H         1 SV6         0.0325
     80 H          -4.6088   14.1820    7.2514 H         1 SV6         0.0270
     81 H          -4.5167   12.4625    7.4756 H         1 SV6         0.0270
     82 H          -2.7722   14.6149    8.6767 H         1 SV6         0.0266
     83 H          -2.3292   12.9932    8.1926 H         1 SV6         0.0266
     84 H          -5.9472   13.7947   12.1080 H         1 SV6         0.0527
     85 H          -4.3341   14.3967   12.0957 H         1 SV6         0.0527
     86 H          -2.8641   12.0980   10.2771 H         1 SV6         0.0269
     87 H          -2.7523   13.7434   10.8393 H         1 SV6         0.0269
     88 H         -11.4965   13.1731    7.9977 H         1 SV6         0.1855
     89 H          -7.5884   16.0392    7.5106 H         1 SV6         0.1857
     90 H         -10.1238   15.2201    8.9858 H         1 SV6         0.0607
     91 H          -9.9166   15.7042    6.0651 H         1 SV6         0.0861
     92 H         -10.9363   17.4287    8.0671 H         1 SV6         0.0290
     93 H          -9.2833   17.7108    7.4090 H         1 SV6         0.0290
     94 H          -8.4201   17.5264    9.7409 H         1 SV6         0.0263
     95 H         -10.1442   17.5141   10.3001 H         1 SV6         0.0263
     96 H          -8.7724   19.7272    8.7545 H         1 SV6         0.0230
     97 H         -10.4663   19.7151    9.3039 H         1 SV6         0.0230
     98 H          -9.1438   19.7417   10.4961 H         1 SV6         0.0230
     99 H         -13.8389   13.3646    6.7693 H         1 SV6         0.0556
    100 H         -13.5273   12.2728    9.8823 H         1 SV6         0.0288
    101 H         -14.5274   12.0653    9.5007 H         1 SV6         0.0288
    102 H         -15.0022   15.1573    9.0635 H         1 SV6         0.0288
    103 H         -14.0018   15.3648    9.4452 H         1 SV6         0.0288
    104 H          -8.7887   13.7245    6.6699 H         1 SV6         0.2134
@<TRIPOS>BOND
     1    4    1 1  
     2    1    5 ar 
     3    1    7 ar 
     4    2    3 ar 
     5    7    2 ar 
     6    8    3 ar 
     7    4    6 2  
     8    9    4 am 
     9    5    8 ar 
    10   10    9 1  
    11   11   10 1  
    12   10   13 1  
    13   11   12 2  
    14   19   11 am 
    15   13   14 1  
    16   13   18 1  
    17   14   15 1  
    18   15   16 1  
    19   17   16 1  
    20   18   17 1  
    21   20   19 1  
    22   20   21 1  
    23   25   20 1  
    24   21   22 1  
    25   21   23 1  
    26   21   24 1  
    27   25   26 2  
    28   28   25 am 
    29   27   29 2  
    30   27   30 1  
    31   38   27 am 
    32   30   28 1  
    33   28   35 1  
    34   30   31 1  
    35   31   32 1  
    36   31   33 1  
    37   32   35 1  
    38   32   36 1  
    39   33   34 1  
    40   34   36 1  
    41   44   37 am 
    42   37   45 1  
    43   39   38 1  
    44   40   39 1  
    45   39   41 1  
    46   40   44 1  
    47   40   48 1  
    48   41   42 1  
    49   42   43 1  
    50   44   49 2  
    51   45   46 1  
    52   45   47 1  
    53   46   47 1  
    54    2   50 1  
    55    3   51 1  
    56    5   52 1  
    57    9   53 1  
    58   10   54 1  
    59   13   55 1  
    60   14   56 1  
    61   14   57 1  
    62   15   58 1  
    63   15   59 1  
    64   16   60 1  
    65   16   61 1  
    66   17   62 1  
    67   17   63 1  
    68   18   64 1  
    69   18   65 1  
    70   19   66 1  
    71   20   67 1  
    72   22   68 1  
    73   22   69 1  
    74   22   70 1  
    75   23   71 1  
    76   23   72 1  
    77   23   73 1  
    78   24   74 1  
    79   24   75 1  
    80   24   76 1  
    81   30   77 1  
    82   31   78 1  
    83   32   79 1  
    84   33   80 1  
    85   33   81 1  
    86   34   82 1  
    87   34   83 1  
    88   35   84 1  
    89   35   85 1  
    90   36   86 1  
    91   36   87 1  
    92   37   88 1  
    93   38   89 1  
    94   39   90 1  
    95   40   91 1  
    96   41   92 1  
    97   41   93 1  
    98   42   94 1  
    99   42   95 1  
   100   43   96 1  
   101   43   97 1  
   102   43   98 1  
   103   45   99 1  
   104   46  100 1  
   105   46  101 1  
   106   47  102 1  
   107   47  103 1  
   108   48  104 1  
@<TRIPOS>SUBSTRUCTURE
     1 SV6         1

