### 
### Created by X-TOOL on Mon Sep 10 21:13:09 2018
### 

@<TRIPOS>MOLECULE
3sv9_ligand
  104   108     1     0     0
SMALL
GAST_HUCK


@<TRIPOS>ATOM
      1 CBN       -24.0150   -9.2160   13.1730 C.ar      1 SV6         0.1532
      2 CBO       -25.6340   -8.5070   11.6750 C.ar      1 SV6         0.0475
      3 CBP       -26.2630   -9.7500   11.7730 C.ar      1 SV6         0.0462
      4 CBB       -22.7340   -8.9340   13.9790 C.2       1 SV6         0.2347
      5 CBQ       -24.6560  -10.4550   13.2610 C.ar      1 SV6         0.0620
      6 OBW       -22.4700   -7.8000   14.3810 O.2       1 SV6        -0.3756
      7 NAF       -24.5310   -8.2650   12.3720 N.ar      1 SV6        -0.2509
      8 NAG       -25.7580  -10.6890   12.5620 N.ar      1 SV6        -0.2653
      9 NAD       -21.9590   -9.9930   14.2040 N.am      1 SV6        -0.2615
     10 CAY       -20.6930   -9.8900   14.9470 C.3       1 SV6         0.1336
     11 CAX       -19.5690   -9.6830   13.9230 C.2       1 SV6         0.2042
     12 OBU       -19.6280  -10.2050   12.8090 O.2       1 SV6        -0.3944
     13 CBH       -20.4870  -11.1580   15.7860 C.3       1 SV6        -0.0006
     14 CBI       -21.7610  -11.5000   16.5710 C.3       1 SV6        -0.0460
     15 CBJ       -21.6050  -12.8250   17.3220 C.3       1 SV6        -0.0526
     16 CBK       -20.4010  -12.7910   18.2700 C.3       1 SV6        -0.0530
     17 CBL       -19.1210  -12.3170   17.5600 C.3       1 SV6        -0.0526
     18 CBM       -19.3360  -11.0110   16.7820 C.3       1 SV6        -0.0460
     19 NAC       -18.5950   -8.8520   14.2940 N.am      1 SV6        -0.2632
     20 CAW       -17.4630   -8.5460   13.3910 C.3       1 SV6         0.1360
     21 CAZ       -17.5630   -7.1030   12.8250 C.3       1 SV6         0.0026
     22 CBC       -17.9060   -6.0570   13.9000 C.3       1 SV6        -0.0558
     23 CBD       -18.6310   -7.0630   11.7280 C.3       1 SV6        -0.0558
     24 CBA       -16.2150   -6.7080   12.2070 C.3       1 SV6        -0.0558
     25 CAV       -16.1570   -8.7440   14.1550 C.2       1 SV6         0.2069
     26 OBT       -15.9920   -8.1490   15.2240 O.2       1 SV6        -0.3942
     27 C         -13.1000   -8.5740   14.0960 C.2       1 SV6         0.2026
     28 N         -15.2160   -9.5850   13.6980 N.am      1 SV6        -0.2493
     29 O         -12.8810   -8.2160   12.9420 O.2       1 SV6        -0.3945
     30 CA        -13.9280   -9.8060   14.3740 C.3       1 SV6         0.1367
     31 CB        -13.2960  -11.0400   13.7190 C.3       1 SV6         0.0043
     32 CG        -14.0350  -11.2450   12.3830 C.3       1 SV6        -0.0134
     33 CBE       -13.6010  -12.3020   14.5300 C.3       1 SV6        -0.0456
     34 CBF       -13.6120  -13.3840   13.4640 C.3       1 SV6        -0.0523
     35 CD1       -15.3060  -10.3540   12.4390 C.3       1 SV6         0.0400
     36 CD2       -14.4400  -12.7290   12.3560 C.3       1 SV6        -0.0479
     37 NAA        -9.8550   -5.4990   13.1950 N.am      1 SV6        -0.2817
     38 NAE       -12.6890   -7.9030   15.1650 N.am      1 SV6        -0.2772
     39 CAH       -11.9570   -6.6280   14.9810 C.3       1 SV6         0.0850
     40 CAI       -10.4800   -6.9250   14.9580 C.3       1 SV6         0.1662
     41 CAJ       -12.2830   -5.6060   16.0970 C.3       1 SV6        -0.0255
     42 CAK       -13.6070   -4.8740   15.8800 C.3       1 SV6        -0.0536
     43 CAL       -14.7130   -5.8530   15.5170 C.3       1 SV6        -0.0652
     44 CAM        -9.6740   -5.7970   14.4790 C.2       1 SV6         0.2075
     45 CAN        -9.0670   -4.5000   12.4650 C.3       1 SV6         0.0422
     46 CAO        -7.9950   -5.1120   11.5690 C.3       1 SV6        -0.0278
     47 CAP        -9.2570   -4.5240   10.9480 C.3       1 SV6        -0.0278
     48 OBR       -10.1150   -8.0060   14.1320 O.3       1 SV6        -0.3691
     49 OBS        -8.8850   -5.2740   15.2560 O.2       1 SV6        -0.3941
     50 H         -26.0490   -7.7357   11.0261 H         1 SV6         0.0941
     51 H         -27.1693   -9.9486   11.2009 H         1 SV6         0.0958
     52 H         -24.2481  -11.2323   13.9072 H         1 SV6         0.0978
     53 H         -22.2519  -10.9038   13.8504 H         1 SV6         0.1881
     54 H         -20.7001   -9.0477   15.6388 H         1 SV6         0.0803
     55 H         -20.2458  -11.9559   15.0837 H         1 SV6         0.0348
     56 H         -22.5897  -11.5919   15.8690 H         1 SV6         0.0270
     57 H         -21.9480  -10.7076   17.2958 H         1 SV6         0.0270
     58 H         -21.4496  -13.6203   16.5930 H         1 SV6         0.0265
     59 H         -22.5055  -12.9972   17.9116 H         1 SV6         0.0265
     60 H         -20.2306  -13.8018   18.6407 H         1 SV6         0.0265
     61 H         -20.6220  -12.0918   19.0765 H         1 SV6         0.0265
     62 H         -18.8226  -13.0884   16.8501 H         1 SV6         0.0265
     63 H         -18.3599  -12.1370   18.3193 H         1 SV6         0.0265
     64 H         -19.5800  -10.2168   17.4875 H         1 SV6         0.0270
     65 H         -18.4242  -10.7732   16.2341 H         1 SV6         0.0270
     66 H         -18.6305   -8.4192   15.2169 H         1 SV6         0.1884
     67 H         -17.4934   -9.2234   12.5376 H         1 SV6         0.0805
     68 H         -18.8672   -6.3033   14.3512 H         1 SV6         0.0237
     69 H         -17.1318   -6.0591   14.6673 H         1 SV6         0.0237
     70 H         -17.9612   -5.0702   13.4404 H         1 SV6         0.0237
     71 H         -18.3551   -7.7510   10.9288 H         1 SV6         0.0237
     72 H         -19.5925   -7.3586   12.1478 H         1 SV6         0.0237
     73 H         -18.7028   -6.0511   11.3294 H         1 SV6         0.0237
     74 H         -15.4401   -6.7482   12.9725 H         1 SV6         0.0237
     75 H         -15.9688   -7.4007   11.4023 H         1 SV6         0.0237
     76 H         -16.2820   -5.6955   11.8088 H         1 SV6         0.0237
     77 H         -14.0133   -9.9678   15.4485 H         1 SV6         0.0805
     78 H         -12.2201  -10.8894   13.6306 H         1 SV6         0.0351
     79 H         -13.4395  -10.9898   11.5065 H         1 SV6         0.0325
     80 H         -14.5382  -12.2379   15.0828 H         1 SV6         0.0270
     81 H         -12.8730  -12.4882   15.3196 H         1 SV6         0.0270
     82 H         -14.0275  -14.3296   13.8124 H         1 SV6         0.0266
     83 H         -12.6147  -13.6814   13.1398 H         1 SV6         0.0266
     84 H         -15.3585   -9.6901   11.5761 H         1 SV6         0.0527
     85 H         -16.2118  -10.9598   12.4127 H         1 SV6         0.0527
     86 H         -14.2469  -13.1834   11.3842 H         1 SV6         0.0269
     87 H         -15.5097  -12.8594   12.5195 H         1 SV6         0.0269
     88 H         -10.5868   -5.9958   12.6869 H         1 SV6         0.1855
     89 H         -12.8749   -8.2608   16.1019 H         1 SV6         0.1857
     90 H         -12.2698   -6.1770   14.0393 H         1 SV6         0.0607
     91 H         -10.2800   -7.1566   16.0042 H         1 SV6         0.0861
     92 H         -11.4901   -4.8580   16.1000 H         1 SV6         0.0290
     93 H         -12.3612   -6.1564   17.0346 H         1 SV6         0.0290
     94 H         -13.4853   -4.1628   15.0630 H         1 SV6         0.0263
     95 H         -13.8803   -4.3616   16.8024 H         1 SV6         0.0263
     96 H         -14.4461   -6.3767   14.5991 H         1 SV6         0.0230
     97 H         -14.8380   -6.5739   16.3249 H         1 SV6         0.0230
     98 H         -15.6448   -5.3075   15.3677 H         1 SV6         0.0230
     99 H          -9.0962   -3.7239   13.2298 H         1 SV6         0.0556
    100 H          -7.4065   -6.0275   11.5093 H         1 SV6         0.0288
    101 H          -6.9151   -5.0542   11.4324 H         1 SV6         0.0288
    102 H          -9.5311   -3.8375   10.1470 H         1 SV6         0.0288
    103 H         -10.0207   -4.8072   10.2236 H         1 SV6         0.0288
    104 H         -10.6094   -8.7869   14.3917 H         1 SV6         0.2134
@<TRIPOS>BOND
     1    4    1 1  
     2    1    5 ar 
     3    1    7 ar 
     4    2    3 ar 
     5    7    2 ar 
     6    8    3 ar 
     7    4    6 2  
     8    9    4 am 
     9    5    8 ar 
    10   10    9 1  
    11   11   10 1  
    12   10   13 1  
    13   11   12 2  
    14   19   11 am 
    15   13   14 1  
    16   13   18 1  
    17   14   15 1  
    18   15   16 1  
    19   17   16 1  
    20   18   17 1  
    21   20   19 1  
    22   20   21 1  
    23   25   20 1  
    24   21   22 1  
    25   21   23 1  
    26   21   24 1  
    27   25   26 2  
    28   28   25 am 
    29   27   29 2  
    30   27   30 1  
    31   38   27 am 
    32   30   28 1  
    33   28   35 1  
    34   30   31 1  
    35   31   32 1  
    36   31   33 1  
    37   32   35 1  
    38   32   36 1  
    39   33   34 1  
    40   34   36 1  
    41   44   37 am 
    42   37   45 1  
    43   39   38 1  
    44   40   39 1  
    45   39   41 1  
    46   40   44 1  
    47   40   48 1  
    48   41   42 1  
    49   42   43 1  
    50   44   49 2  
    51   45   46 1  
    52   45   47 1  
    53   46   47 1  
    54    2   50 1  
    55    3   51 1  
    56    5   52 1  
    57    9   53 1  
    58   10   54 1  
    59   13   55 1  
    60   14   56 1  
    61   14   57 1  
    62   15   58 1  
    63   15   59 1  
    64   16   60 1  
    65   16   61 1  
    66   17   62 1  
    67   17   63 1  
    68   18   64 1  
    69   18   65 1  
    70   19   66 1  
    71   20   67 1  
    72   22   68 1  
    73   22   69 1  
    74   22   70 1  
    75   23   71 1  
    76   23   72 1  
    77   23   73 1  
    78   24   74 1  
    79   24   75 1  
    80   24   76 1  
    81   30   77 1  
    82   31   78 1  
    83   32   79 1  
    84   33   80 1  
    85   33   81 1  
    86   34   82 1  
    87   34   83 1  
    88   35   84 1  
    89   35   85 1  
    90   36   86 1  
    91   36   87 1  
    92   37   88 1  
    93   38   89 1  
    94   39   90 1  
    95   40   91 1  
    96   41   92 1  
    97   41   93 1  
    98   42   94 1  
    99   42   95 1  
   100   43   96 1  
   101   43   97 1  
   102   43   98 1  
   103   45   99 1  
   104   46  100 1  
   105   46  101 1  
   106   47  102 1  
   107   47  103 1  
   108   48  104 1  
@<TRIPOS>SUBSTRUCTURE
     1 SV6         1

