### 
### Created by X-TOOL on Mon Sep 10 21:13:06 2018
### 

@<TRIPOS>MOLECULE
3svj_ligand
   72    76     1     0     0
SMALL
GAST_HUCK


@<TRIPOS>ATOM
      1 C1         20.0290   -8.6810    0.1580 C.ar      1 4LI        -0.0735
      2 C2         19.2690   -7.6980   -0.4310 C.ar      1 4LI        -0.0745
      3 C3         21.3210  -12.6650    8.8860 C.ar      1 4LI        -0.0741
      4 C4         22.6600  -12.8690    8.6580 C.ar      1 4LI        -0.0579
      5 C5         20.8740  -11.4310    9.2950 C.ar      1 4LI        -0.0649
      6 C6         20.4940   -8.5240    1.4440 C.ar      1 4LI        -0.0436
      7 C7         18.9760   -6.5540    0.2720 C.ar      1 4LI        -0.0597
      8 C8         23.5280  -11.8210    8.8510 C.ar      1 4LI         0.0675
      9 C9         21.7550  -10.3910    9.4830 C.ar      1 4LI        -0.0145
     10 C10        20.2060   -7.3830    2.1540 C.ar      1 4LI         0.0547
     11 C11        23.0990  -10.5790    9.2600 C.ar      1 4LI         0.0910
     12 C12        19.4450   -6.4050    1.5550 C.ar      1 4LI         0.0565
     13 C13        23.3600   -7.5640    6.5550 C.ar      1 4LI         0.1747
     14 C14        25.0340   -6.5900    7.7530 C.ar      1 4LI         0.1777
     15 C15        24.0680   -8.5070    8.4870 C.ar      1 4LI         0.1914
     16 C16        24.9470  -12.0580    8.5980 C.2       1 4LI         0.1966
     17 C17        26.0060   -4.5660    5.7340 C.2       1 4LI         0.2033
     18 C18        20.8040   -8.4960    4.1170 C.3       1 4LI         0.0481
     19 C19        21.8960   -6.4250    3.4160 C.3       1 4LI         0.0481
     20 C20        21.2920   -8.2640    5.5330 C.3       1 4LI         0.0552
     21 C21        22.4590   -6.2390    4.8060 C.3       1 4LI         0.0552
     22 C22        26.3060   -3.2010    7.7740 C.3       1 4LI         0.0370
     23 C23        26.2000   -5.3140    9.3230 C.3       1 4LI         0.0841
     24 C24        25.5850   -4.3850    7.1670 C.3       1 4LI         0.1450
     25 C25        21.2500   -9.0650    9.9290 C.3       1 4LI        -0.0321
     26 C26        26.9900  -12.9670    9.5400 C.3       1 4LI         0.0188
     27 C27        27.3660   -5.8800    4.2280 C.3       1 4LI         0.0196
     28 N28        24.2420   -6.5700    6.6820 N.ar      1 4LI        -0.2358
     29 N29        23.2430   -8.5610    7.4370 N.ar      1 4LI        -0.2328
     30 N30        24.9740   -7.5460    8.6820 N.ar      1 4LI        -0.2326
     31 N31        20.6730   -7.2050    3.4680 N.pl3     1 4LI        -0.3041
     32 N32        22.5410   -7.5470    5.4150 N.pl3     1 4LI        -0.2713
     33 N33        25.9840   -5.5650    7.9160 N.pl3     1 4LI        -0.2430
     34 N34        23.9900   -9.5200    9.4510 N.pl3     1 4LI        -0.2399
     35 N35        25.6090  -12.5910    9.6650 N.am      1 4LI        -0.2913
     36 N36        26.9060   -5.5850    5.5590 N.am      1 4LI        -0.2880
     37 O37        25.4250  -11.7920    7.5050 O.2       1 4LI        -0.3913
     38 O38        25.5720   -3.8780    4.8220 O.2       1 4LI        -0.3944
     39 S39        26.3700   -3.5310    9.5500 S.3       1 4LI        -0.1306
     40 CL40       19.0750   -4.9710    2.4310 Cl        1 4LI        -0.0817
     41 H          20.2645   -9.5894   -0.3964 H         1 4LI         0.0585
     42 H          18.9012   -7.8253   -1.4491 H         1 4LI         0.0505
     43 H          20.6130  -13.4813    8.7427 H         1 4LI         0.0518
     44 H          23.0267  -13.8419    8.3308 H         1 4LI         0.0581
     45 H          19.8099  -11.2747    9.4723 H         1 4LI         0.0560
     46 H          21.0946   -9.3097    1.9023 H         1 4LI         0.0515
     47 H          18.3745   -5.7687   -0.1859 H         1 4LI         0.0588
     48 H          19.8423   -9.0090    4.1304 H         1 4LI         0.0535
     49 H          21.5131   -9.1198    3.5728 H         1 4LI         0.0535
     50 H          22.6279   -6.9512    2.8031 H         1 4LI         0.0535
     51 H          21.6765   -5.4472    2.9872 H         1 4LI         0.0535
     52 H          21.4282   -9.2074    6.0618 H         1 4LI         0.0551
     53 H          20.5646   -7.6946    6.1116 H         1 4LI         0.0551
     54 H          21.8179   -5.5823    5.3941 H         1 4LI         0.0551
     55 H          23.4443   -5.7750    4.7612 H         1 4LI         0.0551
     56 H          25.7878   -2.2661    7.5604 H         1 4LI         0.0426
     57 H          27.3049   -3.0841    7.3538 H         1 4LI         0.0426
     58 H          27.1006   -5.8251    9.6634 H         1 4LI         0.0649
     59 H          25.3597   -5.6901    9.9066 H         1 4LI         0.0649
     60 H          24.5070   -4.2284    7.2047 H         1 4LI         0.0820
     61 H          20.5400   -8.6827    9.1957 H         1 4LI         0.0370
     62 H          20.7552   -9.1720   10.8943 H         1 4LI         0.0370
     63 H          22.0861   -8.3720   10.0227 H         1 4LI         0.0370
     64 H          27.0901  -13.7243    8.7625 H         1 4LI         0.0483
     65 H          27.5811  -12.0908    9.2738 H         1 4LI         0.0483
     66 H          27.3428  -13.3702   10.4892 H         1 4LI         0.0483
     67 H          26.5154   -6.1514    3.6028 H         1 4LI         0.0484
     68 H          27.8585   -5.0011    3.8120 H         1 4LI         0.0484
     69 H          28.0714   -6.7102    4.2644 H         1 4LI         0.0484
     70 H          24.5777   -9.4849   10.2840 H         1 4LI         0.2213
     71 H          25.1232  -12.7227   10.5522 H         1 4LI         0.1837
     72 H          27.2431   -6.1237    6.3569 H         1 4LI         0.1848
@<TRIPOS>BOND
     1    1    2 ar 
     2    6    1 ar 
     3    7    2 ar 
     4    4    3 ar 
     5    5    3 ar 
     6    8    4 ar 
     7    9    5 ar 
     8   10    6 ar 
     9   12    7 ar 
    10   11    8 ar 
    11    8   16 1  
    12   11    9 ar 
    13    9   25 1  
    14   10   12 ar 
    15   31   10 1  
    16   34   11 1  
    17   12   40 1  
    18   28   13 ar 
    19   13   29 ar 
    20   13   32 1  
    21   14   28 ar 
    22   14   30 ar 
    23   33   14 1  
    24   15   29 ar 
    25   30   15 ar 
    26   15   34 1  
    27   16   35 am 
    28   16   37 2  
    29   24   17 1  
    30   17   36 am 
    31   17   38 2  
    32   20   18 1  
    33   18   31 1  
    34   21   19 1  
    35   19   31 1  
    36   32   20 1  
    37   32   21 1  
    38   22   24 1  
    39   39   22 1  
    40   23   33 1  
    41   23   39 1  
    42   24   33 1  
    43   35   26 1  
    44   36   27 1  
    45    1   41 1  
    46    2   42 1  
    47    3   43 1  
    48    4   44 1  
    49    5   45 1  
    50    6   46 1  
    51    7   47 1  
    52   18   48 1  
    53   18   49 1  
    54   19   50 1  
    55   19   51 1  
    56   20   52 1  
    57   20   53 1  
    58   21   54 1  
    59   21   55 1  
    60   22   56 1  
    61   22   57 1  
    62   23   58 1  
    63   23   59 1  
    64   24   60 1  
    65   25   61 1  
    66   25   62 1  
    67   25   63 1  
    68   26   64 1  
    69   26   65 1  
    70   26   66 1  
    71   27   67 1  
    72   27   68 1  
    73   27   69 1  
    74   34   70 1  
    75   35   71 1  
    76   36   72 1  
@<TRIPOS>SUBSTRUCTURE
     1 4LI         1

