### 
### Created by X-TOOL on Mon Sep 10 21:13:06 2018
### 

@<TRIPOS>MOLECULE
3svv_ligand
   48    50     1     0     0
SMALL
GAST_HUCK


@<TRIPOS>ATOM
      1 C10       -12.0730   10.2680    5.8780 C.2       1 VSP         0.0538
      2 C13        -9.4150   12.0090    8.1380 C.ar      1 VSP        -0.0430
      3 C17        -9.1730   15.5000    9.5380 C.3       1 VSP         0.0872
      4 C21        -9.7240   11.4470   10.4880 C.ar      1 VSP        -0.0522
      5 C22       -10.7960   10.6110   10.1410 C.ar      1 VSP        -0.0839
      6 O20        -6.5120   15.0970    9.5460 O.2       1 VSP        -0.1499
      7 N01       -13.5840   12.6370    7.3760 N.pl3     1 VSP        -0.3122
      8 C11       -10.8200   11.0610    6.3360 C.3       1 VSP         0.0196
      9 C02       -14.2340   11.5900    6.6850 C.ar      1 VSP         0.1272
     10 C12       -10.4800   11.1650    7.8080 C.ar      1 VSP        -0.0478
     11 C03       -13.4990   10.5940    6.0480 C.ar      1 VSP         0.0861
     12 C23       -11.1780   10.4540    8.8070 C.ar      1 VSP        -0.0757
     13 N24       -15.5780    9.5390    5.3510 N.ar      1 VSP        -0.2691
     14 C04       -14.2140    9.5410    5.3680 C.ar      1 VSP         0.1582
     15 C14        -9.0400   12.1460    9.4900 C.ar      1 VSP         0.0556
     16 N05       -13.2770    8.7200    4.8450 N.pl3     1 VSP        -0.1920
     17 N15        -7.9410   13.0110    9.8440 N.am      1 VSP        -0.1932
     18 C25       -16.2660   10.5070    5.9720 C.ar      1 VSP         0.0558
     19 N26       -15.5950   11.5310    6.6170 N.ar      1 VSP        -0.2661
     20 C06       -13.5640    7.5240    4.0640 C.3       1 VSP         0.0715
     21 S16        -7.7580   14.4940    9.1370 S.o2      1 VSP         0.0597
     22 C07       -12.6880    6.3690    4.5320 C.3       1 VSP        -0.0346
     23 C08       -13.2660    7.8250    2.6140 C.3       1 VSP        -0.0346
     24 C18        -9.2540   15.8240   11.0140 C.3       1 VSP        -0.0435
     25 N09       -12.0380    9.1430    5.1500 N.2       1 VSP        -0.2107
     26 O19        -7.5600   14.4380    7.7010 O.2       1 VSP        -0.1499
     27 H          -8.8814   12.5542    7.3595 H         1 VSP         0.0419
     28 H         -10.0696   14.9429    9.2662 H         1 VSP         0.0521
     29 H          -9.0836   16.4391    8.9919 H         1 VSP         0.0521
     30 H          -9.4261   11.5507   11.5314 H         1 VSP         0.0428
     31 H         -11.3373   10.0775   10.9223 H         1 VSP         0.0556
     32 H         -12.5651   12.6689    7.4121 H         1 VSP         0.1845
     33 H         -14.1336   13.3610    7.8388 H         1 VSP         0.1845
     34 H         -11.0233   12.0878    6.0319 H         1 VSP         0.0580
     35 H          -9.9814   10.5163    5.9023 H         1 VSP         0.0580
     36 H         -12.0026    9.7924    8.5416 H         1 VSP         0.0418
     37 H          -7.2651   12.7021   10.5427 H         1 VSP         0.2157
     38 H         -17.3558   10.4877    5.9690 H         1 VSP         0.1029
     39 H         -14.6092    7.2416    4.1897 H         1 VSP         0.0646
     40 H         -11.6388    6.6359    4.4053 H         1 VSP         0.0259
     41 H         -12.8881    6.1660    5.5841 H         1 VSP         0.0259
     42 H         -12.9124    5.4815    3.9403 H         1 VSP         0.0259
     43 H         -13.8932    8.6513    2.2794 H         1 VSP         0.0259
     44 H         -12.2161    8.0987    2.5094 H         1 VSP         0.0259
     45 H         -13.4744    6.9415    2.0106 H         1 VSP         0.0259
     46 H          -9.3272   14.8981   11.5844 H         1 VSP         0.0246
     47 H          -8.3586   16.3679   11.3150 H         1 VSP         0.0246
     48 H         -10.1343   16.4386   11.2020 H         1 VSP         0.0246
@<TRIPOS>BOND
     1    8    1 1  
     2    1   11 1  
     3    1   25 2  
     4    2   10 ar 
     5   15    2 ar 
     6   21    3 1  
     7    3   24 1  
     8    4    5 ar 
     9   15    4 ar 
    10    5   12 ar 
    11   21    6 2  
    12    9    7 1  
    13   10    8 1  
    14   11    9 ar 
    15    9   19 ar 
    16   10   12 ar 
    17   11   14 ar 
    18   14   13 ar 
    19   13   18 ar 
    20   16   14 1  
    21   17   15 1  
    22   16   20 1  
    23   25   16 1  
    24   17   21 am 
    25   18   19 ar 
    26   20   22 1  
    27   20   23 1  
    28   21   26 2  
    29    2   27 1  
    30    3   28 1  
    31    3   29 1  
    32    4   30 1  
    33    5   31 1  
    34    7   32 1  
    35    7   33 1  
    36    8   34 1  
    37    8   35 1  
    38   12   36 1  
    39   17   37 1  
    40   18   38 1  
    41   20   39 1  
    42   22   40 1  
    43   22   41 1  
    44   22   42 1  
    45   23   43 1  
    46   23   44 1  
    47   23   45 1  
    48   24   46 1  
    49   24   47 1  
    50   24   48 1  
@<TRIPOS>SUBSTRUCTURE
     1 VSP         1

