### 
### Created by X-TOOL on Mon Sep 10 21:13:07 2018
### 

@<TRIPOS>MOLECULE
3sw2_ligand
   68    73     1     0     0
SMALL
GAST_HUCK


@<TRIPOS>ATOM
      1 C1         10.0510   45.2140   62.5900 C.ar      1 FI1        -0.0521
      2 C2         10.1080   43.4220   65.8670 C.ar      1 FI1        -0.0536
      3 C3          8.6980   45.3160   62.3670 C.ar      1 FI1        -0.0345
      4 C4         11.4520   43.3150   66.1130 C.ar      1 FI1        -0.0473
      5 C5          8.2350   44.1610   64.4360 C.ar      1 FI1        -0.0273
      6 C6         11.9360   44.4680   64.0310 C.ar      1 FI1        -0.0401
      7 C7          9.6270   44.0540   64.6940 C.ar      1 FI1        -0.0160
      8 C8         10.5520   44.5910   63.7670 C.ar      1 FI1        -0.0173
      9 C9          7.7510   44.7820   63.2990 C.ar      1 FI1         0.1089
     10 C10        12.3850   43.8410   65.1790 C.ar      1 FI1         0.0411
     11 C11         5.7650   40.8930   54.7310 C.2       1 FI1        -0.0887
     12 C12         4.8200   40.1370   55.3440 C.2       1 FI1        -0.0258
     13 C13         7.1250   40.4640   54.7400 C.2       1 FI1        -0.0427
     14 C14         7.4710   39.2820   55.3620 C.2       1 FI1         0.0912
     15 C15         5.1670   38.8840   56.0210 C.2       1 FI1         0.1884
     16 C16         7.0540   42.3240   60.4260 C.2       1 FI1         0.2023
     17 C17         7.9560   39.7730   58.6200 C.2       1 FI1         0.2014
     18 C18         4.2810   41.9170   59.8760 C.3       1 FI1        -0.0285
     19 C19         4.7190   41.8210   61.3210 C.3       1 FI1        -0.0141
     20 C20         9.0780   37.3610   55.5110 C.3       1 FI1        -0.0232
     21 C21         5.3290   41.3740   58.9090 C.3       1 FI1         0.0367
     22 C22         9.4570   39.5580   56.6500 C.3       1 FI1         0.0541
     23 C23         6.8970   37.2450   56.6800 C.3       1 FI1         0.0750
     24 C24         9.0120   37.6090   58.0200 C.3       1 FI1         0.0399
     25 C25         8.9130   38.8710   55.3900 C.3       1 FI1         0.0551
     26 C26         6.0060   42.6550   61.5170 C.3       1 FI1         0.1267
     27 C27         8.3940   36.9100   56.7920 C.3       1 FI1         0.0120
     28 C28         7.7130   41.2630   58.3440 C.3       1 FI1         0.1229
     29 N29         6.5380   38.4930   56.0080 N.am      1 FI1        -0.2021
     30 N30         6.6930   41.6910   59.2590 N.am      1 FI1        -0.2528
     31 N31         8.8020   39.0060   57.8180 N.am      1 FI1        -0.2680
     32 N32         5.7970   44.0740   61.6460 N.am      1 FI1        -0.2255
     33 O33         4.3400   38.1460   56.6040 O.2       1 FI1        -0.4271
     34 O34         8.2440   42.6140   60.5830 O.2       1 FI1        -0.3946
     35 O35         7.4020   39.2410   59.6020 O.2       1 FI1        -0.3946
     36 O36         5.4370   44.2590   64.1310 O.2       1 FI1        -0.1501
     37 O37         5.7180   46.2160   62.7930 O.2       1 FI1        -0.1501
     38 S38         6.0710   44.8800   63.0350 S.o2      1 FI1         0.0705
     39 CL39       14.0540   43.6650   65.5290 Cl        1 FI1        -0.0704
     40 H          10.7489   45.6157   61.8554 H         1 FI1         0.0624
     41 H           9.3974   43.0140   66.5858 H         1 FI1         0.0623
     42 H           8.3400   45.8121   61.4649 H         1 FI1         0.0637
     43 H          11.8042   42.8279   67.0223 H         1 FI1         0.0623
     44 H           7.5289   43.7425   65.1532 H         1 FI1         0.0643
     45 H          12.6575   44.8723   63.3210 H         1 FI1         0.0630
     46 H           5.4865   41.8226   54.2346 H         1 FI1         0.0620
     47 H           3.7815   40.4680   55.3329 H         1 FI1         0.0305
     48 H           7.8909   41.0697   54.2556 H         1 FI1         0.0265
     49 H           4.1221   42.9698   59.6425 H         1 FI1         0.0287
     50 H           3.3757   41.3213   59.7592 H         1 FI1         0.0287
     51 H           4.9150   40.7795   61.5760 H         1 FI1         0.0309
     52 H           3.9312   42.2053   61.9689 H         1 FI1         0.0309
     53 H          10.1360   37.1005   55.5392 H         1 FI1         0.0305
     54 H           8.6283   36.8646   54.6511 H         1 FI1         0.0305
     55 H           5.1349   41.8331   57.9397 H         1 FI1         0.0524
     56 H           5.2417   40.2876   58.9233 H         1 FI1         0.0524
     57 H           9.2616   40.6289   56.5945 H         1 FI1         0.0558
     58 H          10.5317   39.3904   56.7214 H         1 FI1         0.0558
     59 H           6.5401   37.3482   57.7047 H         1 FI1         0.0642
     60 H           6.4606   36.4488   56.0768 H         1 FI1         0.0642
     61 H          10.0727   37.3771   58.1165 H         1 FI1         0.0526
     62 H           8.5485   37.2679   58.9457 H         1 FI1         0.0526
     63 H           9.4317   39.1510   54.4731 H         1 FI1         0.0590
     64 H           6.3994   42.3513   62.4871 H         1 FI1         0.0753
     65 H           8.5301   35.8366   56.9240 H         1 FI1         0.0351
     66 H           7.4000   41.4208   57.3119 H         1 FI1         0.0765
     67 H           8.6279   41.8384   58.4853 H         1 FI1         0.0765
     68 H           5.4640   44.5954   60.8350 H         1 FI1         0.1706
@<TRIPOS>BOND
     1    3    1 ar 
     2    1    8 ar 
     3    2    4 ar 
     4    7    2 ar 
     5    9    3 ar 
     6    4   10 ar 
     7    5    7 ar 
     8    9    5 ar 
     9    8    6 ar 
    10    6   10 ar 
    11    7    8 ar 
    12   38    9 1  
    13   10   39 1  
    14   11   12 2  
    15   13   11 1  
    16   15   12 1  
    17   14   13 2  
    18   25   14 1  
    19   14   29 1  
    20   29   15 am 
    21   15   33 2  
    22   26   16 1  
    23   16   30 am 
    24   16   34 2  
    25   28   17 1  
    26   17   31 am 
    27   17   35 2  
    28   19   18 1  
    29   18   21 1  
    30   26   19 1  
    31   25   20 1  
    32   27   20 1  
    33   30   21 1  
    34   22   25 1  
    35   31   22 1  
    36   27   23 1  
    37   23   29 1  
    38   24   27 1  
    39   31   24 1  
    40   32   26 1  
    41   30   28 1  
    42   32   38 am 
    43   38   36 2  
    44   38   37 2  
    45    1   40 1  
    46    2   41 1  
    47    3   42 1  
    48    4   43 1  
    49    5   44 1  
    50    6   45 1  
    51   11   46 1  
    52   12   47 1  
    53   13   48 1  
    54   18   49 1  
    55   18   50 1  
    56   19   51 1  
    57   19   52 1  
    58   20   53 1  
    59   20   54 1  
    60   21   55 1  
    61   21   56 1  
    62   22   57 1  
    63   22   58 1  
    64   23   59 1  
    65   23   60 1  
    66   24   61 1  
    67   24   62 1  
    68   25   63 1  
    69   26   64 1  
    70   27   65 1  
    71   28   66 1  
    72   28   67 1  
    73   32   68 1  
@<TRIPOS>SUBSTRUCTURE
     1 FI1         1

