### 
### Created by X-TOOL on Mon Sep 10 21:13:06 2018
### 

@<TRIPOS>MOLECULE
3sw8_ligand
   27    27     1     0     0
SMALL
GAST_HUCK


@<TRIPOS>ATOM
      1 C1         25.1390   -6.8630    8.6880 C.ar      1 5LI        -0.0557
      2 C2         25.5200   -6.5720    7.4010 C.ar      1 5LI        -0.0415
      3 C3         25.2860   -5.9250    9.6850 C.ar      1 5LI        -0.0432
      4 C4         26.0490   -5.3380    7.0960 C.ar      1 5LI         0.0640
      5 C5         25.8190   -4.6970    9.3710 C.ar      1 5LI         0.0598
      6 C6         26.2050   -4.3880    8.0830 C.ar      1 5LI         0.0745
      7 C7         29.5190   -2.1860    4.8800 C.2       1 5LI         0.1949
      8 C8         26.4350   -5.0900    5.6920 C.2       1 5LI         0.2053
      9 C9         28.1300   -5.4320    3.9910 C.3       1 5LI         0.0536
     10 C10        28.3030   -3.9790    3.5930 C.3       1 5LI         0.0831
     11 N11        27.6670   -5.5680    5.3510 N.am      1 5LI        -0.2841
     12 N12        29.4470   -3.3960    4.2480 N.am      1 5LI        -0.1503
     13 O13        30.5110   -1.7200    5.4180 O.2       1 5LI        -0.3830
     14 O14        25.6800   -4.5330    4.9060 O.2       1 5LI        -0.3847
     15 O15        30.6350   -4.1390    4.2460 O.3       1 5LI        -0.2685
     16 CL16       25.9810   -3.5600   10.6490 Cl        1 5LI        -0.0689
     17 CL17       26.8710   -2.8300    7.7190 Cl        1 5LI        -0.0640
     18 H1         24.7206   -7.8357    8.9199 H         1 5LI         0.0630
     19 H2         25.4037   -7.3169    6.6221 H         1 5LI         0.0670
     20 H3         24.9862   -6.1511   10.7019 H         1 5LI         0.0658
     21 H4         28.6115   -1.5847    4.9059 H         1 5LI         0.1560
     22 H5         29.0980   -5.9450    3.8924 H         1 5LI         0.0541
     23 H6         27.3967   -5.8999    3.3177 H         1 5LI         0.0541
     24 H7         27.4008   -3.4181    3.8783 H         1 5LI         0.0573
     25 H8         28.4430   -3.9188    2.5036 H         1 5LI         0.0573
     26 H9         28.2443   -6.0090    6.0382 H         1 5LI         0.1845
     27 H10        31.3113   -3.6540    4.7042 H         1 5LI         0.2496
@<TRIPOS>BOND
     1    2    1 ar 
     2    1    3 ar 
     3    4    2 ar 
     4    5    3 ar 
     5    4    6 ar 
     6    8    4 1  
     7    6    5 ar 
     8    5   16 1  
     9    6   17 1  
    10   12    7 am 
    11    7   13 2  
    12   11    8 am 
    13    8   14 2  
    14   10    9 1  
    15    9   11 1  
    16   10   12 1  
    17   12   15 1  
    18    1   18 1  
    19    2   19 1  
    20    3   20 1  
    21    7   21 1  
    22    9   22 1  
    23    9   23 1  
    24   10   24 1  
    25   10   25 1  
    26   11   26 1  
    27   15   27 1  
@<TRIPOS>SUBSTRUCTURE
     1 5LI         1

