### 
### Created by X-TOOL on Mon Sep 10 21:13:06 2018
### 

@<TRIPOS>MOLECULE
3sw9_ligand
   89    88     1     0     0
SMALL
GAST_HUCK


@<TRIPOS>ATOM
      1 N          41.8530  -26.9320   10.8260 N.4       1 THR         0.2398
      2 CA         40.4330  -27.1350   11.1510 C.3       1 THR         0.0910
      3 C          39.6070  -27.5400    9.9220 C.2       1 THR         0.2293
      4 O          39.9680  -27.2010    8.7900 O.2       1 THR        -0.3906
      5 CB         39.7880  -25.8850   11.8070 C.3       1 THR         0.1120
      6 OG1        39.6160  -24.8540   10.8240 O.3       1 THR        -0.3840
      7 CG2        40.6490  -25.3730   12.9700 C.3       1 THR        -0.0314
      8 N          38.4990  -28.2510   10.1540 N.am      1 ALA        -0.2612
      9 CA         37.7590  -28.9190    9.0740 C.3       1 ALA         0.1283
     10 C          36.8700  -27.9850    8.2570 C.2       1 ALA         0.2036
     11 O          35.8640  -27.4990    8.7630 O.2       1 ALA        -0.3944
     12 CB         36.9350  -30.0830    9.6270 C.3       1 ALA        -0.0244
     13 N          37.2310  -27.7670    6.9920 N.am      1 ARG        -0.2637
     14 CA         36.5040  -26.8460    6.1200 C.3       1 ARG         0.1311
     15 C          35.8550  -27.5570    4.9390 C.2       1 ARG         0.2039
     16 O          36.5250  -28.3160    4.2240 O.2       1 ARG        -0.3944
     17 CB         37.4440  -25.7700    5.5610 C.3       1 ARG        -0.0092
     18 CG         38.4480  -25.1970    6.5530 C.3       1 ARG        -0.0156
     19 CD         37.8940  -24.0250    7.3630 C.3       1 ARG         0.0627
     20 NE         38.8920  -23.5220    8.3070 N.pl3     1 ARG        -0.2723
     21 CZ         39.8320  -22.6310    7.9980 C.cat     1 ARG         0.2882
     22 NH1        40.7100  -22.2360    8.9170 N.pl3     1 ARG        -0.2849
     23 NH2        39.8950  -22.1320    6.7670 N.pl3     1 ARG        -0.2849
     24 N          34.5590  -27.2930    4.7310 N.am      1 LYS        -0.2637
     25 CA         33.8580  -27.6920    3.5030 C.3       1 LYS         0.1309
     26 C          34.2640  -26.7680    2.3440 C.2       1 LYS         0.2033
     27 O          34.4870  -25.5820    2.5570 O.2       1 LYS        -0.3944
     28 CB         32.3360  -27.6260    3.6920 C.3       1 LYS        -0.0122
     29 CG         31.8120  -28.0940    5.0520 C.3       1 LYS        -0.0440
     30 CD         30.2850  -28.0370    5.0790 C.3       1 LYS        -0.0124
     31 CE         29.7060  -28.1510    6.4850 C.3       1 LYS        -0.0354
     32 NZ         28.2090  -28.0300    6.4530 N.4       1 LYS         0.2185
     33 N          34.3880  -27.3130    1.1310 N.am      1 VAL        -0.2692
     34 CA         34.5850  -26.4950   -0.0800 C.3       1 VAL         0.0967
     35 C          33.8860  -27.1120   -1.2920 C.2       1 VAL         0.0603
     36 O          33.5590  -28.3020   -1.2970 O.co2     1 VAL        -0.5666
     37 CB         36.0800  -26.2480   -0.4450 C.3       1 VAL        -0.0118
     38 CG1        36.2000  -25.0360   -1.3900 C.3       1 VAL        -0.0590
     39 CG2        36.9330  -26.0400    0.7960 C.3       1 VAL        -0.0590
     40 H          42.2274  -27.7794   10.3991 H         1 THR         0.2016
     41 H          41.9433  -26.1529   10.1739 H         1 THR         0.2016
     42 H          42.3697  -26.7235   11.6804 H         1 THR         0.2016
     43 H          40.4188  -27.9527   11.8716 H         1 THR         0.1125
     44 H          38.8130  -26.1658   12.2054 H         1 THR         0.0674
     45 H          40.4712  -24.6157   10.4588 H         1 THR         0.2102
     46 H          41.6267  -25.0736   12.5923 H         1 THR         0.0258
     47 H          40.1593  -24.5165   13.4334 H         1 THR         0.0258
     48 H          40.7704  -26.1665   13.7073 H         1 THR         0.0258
     49 H          38.1561  -28.3325   11.1112 H         1 ALA         0.1884
     50 H          38.5166  -29.2936    8.3857 H         1 ALA         0.0797
     51 H          37.6005  -30.8054   10.0996 H         1 ALA         0.0277
     52 H          36.2244  -29.7062   10.3627 H         1 ALA         0.0277
     53 H          36.3950  -30.5639    8.8114 H         1 ALA         0.0277
     54 H          38.0427  -28.2600    6.6198 H         1 ARG         0.1883
     55 H          35.7262  -26.3965    6.7374 H         1 ARG         0.0800
     56 H          36.8123  -24.9401    5.2442 H         1 ARG         0.0313
     57 H          38.0251  -26.2455    4.7708 H         1 ARG         0.0313
     58 H          39.3019  -24.8301    5.9835 H         1 ARG         0.0301
     59 H          38.7076  -25.9896    7.2548 H         1 ARG         0.0301
     60 H          37.0240  -24.3674    7.9233 H         1 ARG         0.0689
     61 H          37.6254  -23.2217    6.6770 H         1 ARG         0.0689
     62 H          38.8661  -23.8765    9.2631 H         1 ARG         0.2642
     63 H          40.6645  -22.6160    9.8625 H         1 ARG         0.2615
     64 H          41.4284  -21.5532    8.6758 H         1 ARG         0.2615
     65 H          39.2235  -22.4318    6.0602 H         1 ARG         0.2615
     66 H          40.6148  -21.4494    6.5296 H         1 ARG         0.2615
     67 H          34.0381  -26.7955    5.4532 H         1 LYS         0.1883
     68 H          34.1388  -28.7198    3.2731 H         1 LYS         0.0800
     69 H          31.9044  -28.2964    2.9488 H         1 LYS         0.0312
     70 H          32.0600  -26.5755    3.6010 H         1 LYS         0.0312
     71 H          32.2067  -27.4405    5.8300 H         1 LYS         0.0269
     72 H          32.1332  -29.1214    5.2232 H         1 LYS         0.0269
     73 H          29.9121  -28.8806    4.4982 H         1 LYS         0.0317
     74 H          29.9827  -27.0712    4.6740 H         1 LYS         0.0317
     75 H          30.1118  -27.3476    7.0998 H         1 LYS         0.0813
     76 H          29.9725  -29.1237    6.8985 H         1 LYS         0.0813
     77 H          27.8424  -28.1088    7.4016 H         1 LYS         0.1994
     78 H          27.9506  -27.1243    6.0615 H         1 LYS         0.1994
     79 H          27.8212  -28.7751    5.8743 H         1 LYS         0.1994
     80 H          34.3450  -28.3280    1.0393 H         1 VAL         0.1875
     81 H          34.1408  -25.5309    0.1678 H         1 VAL         0.0729
     82 O          33.6406  -26.3958   -2.2992 O.co2     1 VAL        -0.5666
     83 H          36.4524  -27.1371   -0.9538 H         1 VAL         0.0336
     84 H          35.6355  -25.2306   -2.3019 H         1 VAL         0.0234
     85 H          35.8003  -24.1505   -0.8957 H         1 VAL         0.0234
     86 H          37.2487  -24.8729   -1.6382 H         1 VAL         0.0234
     87 H          36.5655  -25.1743    1.3470 H         1 VAL         0.0234
     88 H          36.8747  -26.9261    1.4281 H         1 VAL         0.0234
     89 H          37.9682  -25.8710    0.4996 H         1 VAL         0.0234
@<TRIPOS>BOND
     1    1    2 1  
     2    2    3 1  
     3    2    5 1  
     4    3    4 2  
     5    3    8 am 
     6    5    6 1  
     7    5    7 1  
     8    8    9 1  
     9    9   10 1  
    10    9   12 1  
    11   10   11 2  
    12   10   13 am 
    13   13   14 1  
    14   14   15 1  
    15   14   17 1  
    16   15   16 2  
    17   15   24 am 
    18   17   18 1  
    19   18   19 1  
    20   19   20 1  
    21   20   21 ar 
    22   21   22 ar 
    23   21   23 ar 
    24   24   25 1  
    25   25   26 1  
    26   25   28 1  
    27   26   27 2  
    28   26   33 am 
    29   28   29 1  
    30   29   30 1  
    31   30   31 1  
    32   31   32 1  
    33   33   34 1  
    34   34   35 1  
    35   34   37 1  
    36   35   36 ar 
    37   37   38 1  
    38   37   39 1  
    39    1   40 1  
    40    1   41 1  
    41    1   42 1  
    42    2   43 1  
    43    5   44 1  
    44    6   45 1  
    45    7   46 1  
    46    7   47 1  
    47    7   48 1  
    48    8   49 1  
    49    9   50 1  
    50   12   51 1  
    51   12   52 1  
    52   12   53 1  
    53   13   54 1  
    54   14   55 1  
    55   17   56 1  
    56   17   57 1  
    57   18   58 1  
    58   18   59 1  
    59   19   60 1  
    60   19   61 1  
    61   20   62 1  
    62   22   63 1  
    63   22   64 1  
    64   23   65 1  
    65   23   66 1  
    66   24   67 1  
    67   25   68 1  
    68   28   69 1  
    69   28   70 1  
    70   29   71 1  
    71   29   72 1  
    72   30   73 1  
    73   30   74 1  
    74   31   75 1  
    75   31   76 1  
    76   32   77 1  
    77   32   78 1  
    78   32   79 1  
    79   33   80 1  
    80   34   81 1  
    81   35   82 ar 
    82   37   83 1  
    83   38   84 1  
    84   38   85 1  
    85   38   86 1  
    86   39   87 1  
    87   39   88 1  
    88   39   89 1  
@<TRIPOS>SUBSTRUCTURE
     1 THR         1

