### 
### Created by X-TOOL on Mon Sep 10 21:13:07 2018
### 

@<TRIPOS>MOLECULE
3sww_ligand
   45    47     1     0     0
SMALL
GAST_HUCK


@<TRIPOS>ATOM
      1 C01        47.4920   49.1780   37.1850 C.ar      1 KXB        -0.0540
      2 C02        47.3570   48.7020   38.4730 C.ar      1 KXB        -0.0478
      3 C03        48.4700   50.6910   39.3500 C.ar      1 KXB        -0.0340
      4 C04        48.1080   50.3960   36.9650 C.ar      1 KXB        -0.0029
      5 C05        48.2770   50.9190   35.5920 C.ar      1 KXB         0.0130
      6 C06        49.4990   50.7830   34.9660 C.ar      1 KXB         0.0224
      7 C07        47.2530   51.5740   34.8820 C.ar      1 KXB         0.0375
      8 C08        47.8410   49.4750   39.5290 C.ar      1 KXB         0.0404
      9 C09        48.5910   51.1260   38.0500 C.ar      1 KXB         0.0477
     10 C10        49.6700   51.3040   33.6750 C.ar      1 KXB         0.1095
     11 C11        47.5140   52.0690   33.5880 C.ar      1 KXB         0.0305
     12 C12        51.0550   51.0200   33.2140 C.2       1 KXB         0.2157
     13 C13        50.7740   50.1510   35.4430 C.3       1 KXB         0.0732
     14 C14        46.4840   52.7710   32.7570 C.3       1 KXB        -0.0198
     15 C15        55.2990   51.9390   35.8610 C.3       1 KXB         0.0365
     16 C16        45.8890   51.7420   35.5030 C.3       1 KXB         0.0038
     17 C17        53.0290   49.8000   34.1790 C.3       1 KXB         0.0591
     18 C18        53.8620   50.0310   35.5200 C.3       1 KXB         0.0677
     19 N19        48.7200   51.9360   32.9470 N.ar      1 KXB        -0.2945
     20 N20        51.6560   50.3210   34.2530 N.am      1 KXB        -0.2578
     21 N21        45.9580   52.7170   36.5580 N.4       1 KXB         0.2319
     22 O22        51.5850   51.2810   32.1410 O.2       1 KXB        -0.3862
     23 O23        53.9400   51.4400   35.7520 O.3       1 KXB        -0.3810
     24 CL1        47.6770   48.8860   41.1160 Cl        1 KXB        -0.0709
     25 CL2        49.3490   52.6190   37.7680 Cl        1 KXB        -0.0701
     26 H1         47.1165   48.5992   36.3489 H         1 KXB         0.0617
     27 H2         46.8836   47.7451   38.6611 H         1 KXB         0.0623
     28 H3         48.8469   51.2698   40.1855 H         1 KXB         0.0628
     29 H4         50.6287   49.0882   35.6864 H         1 KXB         0.0707
     30 H5         51.1785   50.6762   36.3208 H         1 KXB         0.0707
     31 H6         46.9263   53.0605   31.7924 H         1 KXB         0.0394
     32 H7         46.1371   53.6708   33.2861 H         1 KXB         0.0394
     33 H8         45.6323   52.0971   32.5823 H         1 KXB         0.0394
     34 H9         55.2779   53.0244   36.0381 H         1 KXB         0.0523
     35 H10        55.8422   51.7303   34.9276 H         1 KXB         0.0523
     36 H11        55.8065   51.4404   36.7000 H         1 KXB         0.0523
     37 H12        45.5530   50.7792   35.9153 H         1 KXB         0.0993
     38 H13        45.1767   52.0813   34.7366 H         1 KXB         0.0993
     39 H14        52.9825   48.7195   33.9780 H         1 KXB         0.0546
     40 H15        53.5503   50.3047   33.3523 H         1 KXB         0.0546
     41 H16        54.8738   49.6142   35.4080 H         1 KXB         0.0580
     42 H17        53.3549   49.5408   36.3641 H         1 KXB         0.0580
     43 H18        45.0460   52.8286   36.9725 H         1 KXB         0.2009
     44 H19        46.2657   53.5995   36.1804 H         1 KXB         0.2009
     45 H20        46.6106   52.4062   37.2606 H         1 KXB         0.2009
@<TRIPOS>BOND
     1    1    2 ar 
     2    4    1 ar 
     3    2    8 ar 
     4    3    8 ar 
     5    9    3 ar 
     6    5    4 1  
     7    4    9 ar 
     8    6    5 ar 
     9    5    7 ar 
    10    6   10 ar 
    11   13    6 1  
    12    7   11 ar 
    13    7   16 1  
    14    8   24 1  
    15    9   25 1  
    16   12   10 1  
    17   10   19 ar 
    18   11   14 1  
    19   19   11 ar 
    20   20   12 am 
    21   12   22 2  
    22   20   13 1  
    23   23   15 1  
    24   16   21 1  
    25   18   17 1  
    26   17   20 1  
    27   18   23 1  
    28    1   26 1  
    29    2   27 1  
    30    3   28 1  
    31   13   29 1  
    32   13   30 1  
    33   14   31 1  
    34   14   32 1  
    35   14   33 1  
    36   15   34 1  
    37   15   35 1  
    38   15   36 1  
    39   16   37 1  
    40   16   38 1  
    41   17   39 1  
    42   17   40 1  
    43   18   41 1  
    44   18   42 1  
    45   21   43 1  
    46   21   44 1  
    47   21   45 1  
@<TRIPOS>SUBSTRUCTURE
     1 KXB         1

