### 
### Created by X-TOOL on Mon Sep 10 21:13:07 2018
### 

@<TRIPOS>MOLECULE
3sx4_ligand
   49    52     1     0     0
SMALL
GAST_HUCK


@<TRIPOS>ATOM
      1 C01        54.7610   49.1450   35.2790 C.ar      1 KXA        -0.0867
      2 C02        55.0240   47.9750   34.5730 C.ar      1 KXA        -0.0861
      3 C03        47.1290   48.7440   36.9820 C.ar      1 KXA        -0.0541
      4 C04        53.5090   49.7260   35.2480 C.ar      1 KXA        -0.0488
      5 C05        54.0350   47.3790   33.8310 C.ar      1 KXA        -0.0460
      6 C06        46.9500   48.2300   38.2580 C.ar      1 KXA        -0.0478
      7 C07        47.9920   50.2010   39.2270 C.ar      1 KXA        -0.0340
      8 C08        47.7200   49.9830   36.8440 C.ar      1 KXA        -0.0029
      9 C09        47.9430   50.5060   35.5240 C.ar      1 KXA         0.0134
     10 C10        49.1610   50.2820   34.9590 C.ar      1 KXA         0.0279
     11 C11        47.0420   51.2610   34.7870 C.ar      1 KXA         0.0375
     12 C12        52.5140   49.1270   34.4910 C.ar      1 KXA         0.1013
     13 C13        52.7750   47.9610   33.7910 C.ar      1 KXA         0.1126
     14 C14        47.3900   48.9790   39.3410 C.ar      1 KXA         0.0404
     15 C15        48.1630   50.6900   37.9540 C.ar      1 KXA         0.0477
     16 C16        49.4460   50.7790   33.7050 C.ar      1 KXA         0.1156
     17 C17        47.4170   51.7190   33.5240 C.ar      1 KXA         0.0305
     18 C18        50.8260   50.3900   33.3310 C.2       1 KXA         0.2404
     19 C19        50.3060   49.5460   35.5020 C.3       1 KXA         0.0927
     20 C20        46.4940   52.5140   32.6870 C.3       1 KXA        -0.0198
     21 C21        52.1090   46.2940   32.3360 C.3       1 KXA         0.0562
     22 C22        45.6750   51.5540   35.3160 C.3       1 KXA         0.0038
     23 N23        48.6370   51.4920   32.9360 N.ar      1 KXA        -0.2942
     24 N24        51.2670   49.6730   34.4430 N.am      1 KXA        -0.2091
     25 N25        45.7920   52.1690   36.5920 N.4       1 KXA         0.2319
     26 O26        51.4420   50.6270   32.3210 O.2       1 KXA        -0.3761
     27 O27        51.7480   47.4310   33.0780 O.3       1 KXA        -0.3274
     28 CL1        47.1790   48.3600   40.8800 Cl        1 KXA        -0.0709
     29 CL2        48.9070   52.2080   37.7520 Cl        1 KXA        -0.0701
     30 H          55.5545   49.6092   35.8646 H         1 KXA         0.0484
     31 H          56.0186   47.5305   34.6094 H         1 KXA         0.0460
     32 H          46.8091   48.1801   36.1058 H         1 KXA         0.0617
     33 H          53.3066   50.6388   35.8083 H         1 KXA         0.0467
     34 H          54.2362   46.4603   33.2800 H         1 KXA         0.0495
     35 H          46.4748   47.2604   38.4069 H         1 KXA         0.0623
     36 H          48.3204   50.7603   40.1030 H         1 KXA         0.0628
     37 H          50.0751   48.5114   35.7555 H         1 KXA         0.0767
     38 H          50.6590   49.9368   36.4564 H         1 KXA         0.0767
     39 H          46.9408   53.4861   32.4783 H         1 KXA         0.0394
     40 H          46.3110   51.9881   31.7500 H         1 KXA         0.0394
     41 H          45.5519   52.6520   33.2176 H         1 KXA         0.0394
     42 H          52.8959   46.5577   31.6293 H         1 KXA         0.0572
     43 H          52.4710   45.5200   33.0127 H         1 KXA         0.0572
     44 H          51.2392   45.9253   31.7923 H         1 KXA         0.0572
     45 H          45.1103   50.6261   35.4066 H         1 KXA         0.0993
     46 H          45.1532   52.2239   34.6326 H         1 KXA         0.0993
     47 H          44.8614   52.3710   36.9574 H         1 KXA         0.2009
     48 H          46.2790   51.5383   37.2287 H         1 KXA         0.2009
     49 H          46.3193   53.0375   36.5024 H         1 KXA         0.2009
@<TRIPOS>BOND
     1    1    2 ar 
     2    4    1 ar 
     3    5    2 ar 
     4    3    6 ar 
     5    8    3 ar 
     6   12    4 ar 
     7   13    5 ar 
     8    6   14 ar 
     9    7   14 ar 
    10   15    7 ar 
    11    9    8 1  
    12    8   15 ar 
    13   10    9 ar 
    14    9   11 ar 
    15   16   10 ar 
    16   10   19 1  
    17   17   11 ar 
    18   11   22 1  
    19   12   13 ar 
    20   24   12 1  
    21   13   27 1  
    22   14   28 1  
    23   15   29 1  
    24   18   16 1  
    25   16   23 ar 
    26   17   20 1  
    27   23   17 ar 
    28   18   24 am 
    29   18   26 2  
    30   19   24 1  
    31   27   21 1  
    32   22   25 1  
    33    1   30 1  
    34    2   31 1  
    35    3   32 1  
    36    4   33 1  
    37    5   34 1  
    38    6   35 1  
    39    7   36 1  
    40   19   37 1  
    41   19   38 1  
    42   20   39 1  
    43   20   40 1  
    44   20   41 1  
    45   21   42 1  
    46   21   43 1  
    47   21   44 1  
    48   22   45 1  
    49   22   46 1  
    50   25   47 1  
    51   25   48 1  
    52   25   49 1  
@<TRIPOS>SUBSTRUCTURE
     1 KXA         1

