### 
### Created by X-TOOL on Mon Sep 10 21:13:10 2018
### 

@<TRIPOS>MOLECULE
3sx9_ligand
   57    61     1     0     0
SMALL
GAST_HUCK


@<TRIPOS>ATOM
      1 N1         16.5260   11.8170   63.0580 N.ar      1 BK7        -0.2656
      2 C2         17.7270   12.3800   62.8390 C.ar      1 BK7         0.0565
      3 N3         17.8120   13.7090   62.8750 N.ar      1 BK7        -0.2675
      4 C4         16.7330   14.4880   63.1410 C.ar      1 BK7         0.1633
      5 C5         15.4840   13.9280   63.3830 C.ar      1 BK7         0.0869
      6 C6         15.4010   12.5320   63.3340 C.ar      1 BK7         0.1274
      7 CAA         5.0910   14.2090   65.1440 C.3       1 BK7        -0.0371
      8 NAB        14.2670   11.8820   63.5530 N.pl3     1 BK7        -0.3126
      9 CAC         9.5210   13.6840   66.6250 C.ar      1 BK7        -0.0273
     10 CAD        12.4140   15.7080   63.0720 C.ar      1 BK7        -0.0571
     11 CAE        10.8910   13.6700   66.3660 C.ar      1 BK7        -0.0563
     12 CAF        11.0440   15.7380   63.3180 C.ar      1 BK7        -0.0594
     13 CAH         9.1620   15.0650   64.6840 C.ar      1 BK7        -0.0289
     14 CAI        12.7590   14.3360   65.0170 C.ar      1 BK7        -0.0505
     15 CAJ         6.5150   14.6940   64.8940 C.3       1 BK7         0.0680
     16 CAK        19.8750   18.0230   60.1110 C.3       1 BK7        -0.0333
     17 CAL        17.6210   17.8220   59.2860 C.3       1 BK7        -0.0333
     18 CAM        19.4530   17.7330   61.5470 C.3       1 BK7        -0.0070
     19 CAN        17.1260   17.2620   60.6370 C.3       1 BK7        -0.0070
     20 CAO        17.6880   16.7680   63.0420 C.3       1 BK7         0.0735
     21 NAR        15.4160   16.1210   63.5050 N.2       1 BK7        -0.1943
     22 NAS        18.7640   18.7370   59.4670 N.4       1 BK7         0.2270
     23 OAT         7.3180   14.3870   66.0480 O.3       1 BK7        -0.3174
     24 CAU         8.6540   14.3810   65.7830 C.ar      1 BK7         0.0925
     25 CAV        13.2850   15.0070   63.9110 C.ar      1 BK7        -0.0104
     26 CAX        14.6550   15.0270   63.6230 C.2       1 BK7         0.0707
     27 CAY        10.5280   15.0580   64.4200 C.ar      1 BK7        -0.0285
     28 CAZ        11.3910   14.3560   65.2670 C.ar      1 BK7        -0.0244
     29 CBC        18.2420   16.7940   61.5880 C.3       1 BK7        -0.0028
     30 NBD        16.5790   15.8020   63.2350 N.pl3     1 BK7        -0.1833
     31 H          18.6056   11.7670   62.6379 H         1 BK7         0.1030
     32 H           5.0997   13.1322   65.3132 H         1 BK7         0.0256
     33 H           4.6858   14.7127   66.0216 H         1 BK7         0.0256
     34 H           4.4732   14.4366   64.2753 H         1 BK7         0.0256
     35 H          13.4149   12.4006   63.7661 H         1 BK7         0.1842
     36 H          14.2463   10.8632   63.5084 H         1 BK7         0.1842
     37 H           9.1260   13.1485   67.4883 H         1 BK7         0.0590
     38 H          12.8146   16.2408   62.2096 H         1 BK7         0.0611
     39 H          11.5667   13.1229   67.0234 H         1 BK7         0.0618
     40 H          10.3792   16.2896   62.6532 H         1 BK7         0.0592
     41 H           8.4858   15.6100   64.0253 H         1 BK7         0.0499
     42 H          13.4245   13.7934   65.6883 H         1 BK7         0.0618
     43 H           6.5138   15.7700   64.7201 H         1 BK7         0.0612
     44 H           6.9258   14.1972   64.0151 H         1 BK7         0.0612
     45 H          20.0941   17.0962   59.5809 H         1 BK7         0.0814
     46 H          20.7818   18.6275   60.0922 H         1 BK7         0.0814
     47 H          16.8051   18.3760   58.8218 H         1 BK7         0.0814
     48 H          17.9419   16.9873   58.6627 H         1 BK7         0.0814
     49 H          19.1816   18.6731   62.0272 H         1 BK7         0.0320
     50 H          20.2838   17.2532   62.0643 H         1 BK7         0.0320
     51 H          16.5137   16.3886   60.4128 H         1 BK7         0.0320
     52 H          16.5985   18.0715   61.1415 H         1 BK7         0.0320
     53 H          17.2989   17.7621   63.2623 H         1 BK7         0.0628
     54 H          18.5040   16.4656   63.6983 H         1 BK7         0.0628
     55 H          19.0674   19.0823   58.5564 H         1 BK7         0.2013
     56 H          18.4796   19.5200   60.0556 H         1 BK7         0.2013
     57 H          18.5628   15.8024   61.2688 H         1 BK7         0.0332
@<TRIPOS>BOND
     1    1    2 ar 
     2    6    1 ar 
     3    3    2 ar 
     4    4    3 ar 
     5    5    4 ar 
     6   30    4 1  
     7    5    6 ar 
     8   26    5 1  
     9    6    8 1  
    10   15    7 1  
    11   11    9 ar 
    12    9   24 ar 
    13   10   12 ar 
    14   25   10 ar 
    15   28   11 ar 
    16   12   27 ar 
    17   13   24 ar 
    18   27   13 ar 
    19   25   14 ar 
    20   14   28 ar 
    21   23   15 1  
    22   18   16 1  
    23   16   22 1  
    24   19   17 1  
    25   17   22 1  
    26   29   18 1  
    27   29   19 1  
    28   20   29 1  
    29   30   20 1  
    30   26   21 2  
    31   21   30 1  
    32   24   23 1  
    33   25   26 1  
    34   27   28 ar 
    35    2   31 1  
    36    7   32 1  
    37    7   33 1  
    38    7   34 1  
    39    8   35 1  
    40    8   36 1  
    41    9   37 1  
    42   10   38 1  
    43   11   39 1  
    44   12   40 1  
    45   13   41 1  
    46   14   42 1  
    47   15   43 1  
    48   15   44 1  
    49   16   45 1  
    50   16   46 1  
    51   17   47 1  
    52   17   48 1  
    53   18   49 1  
    54   18   50 1  
    55   19   51 1  
    56   19   52 1  
    57   20   53 1  
    58   20   54 1  
    59   22   55 1  
    60   22   56 1  
    61   29   57 1  
@<TRIPOS>SUBSTRUCTURE
     1 BK7         1

