### 
### Created by X-TOOL on Mon Sep 10 21:13:10 2018
### 

@<TRIPOS>MOLECULE
3sxf_ligand
   47    50     1     0     0
SMALL
GAST_HUCK


@<TRIPOS>ATOM
      1 N1         21.3720   12.2890   63.4150 N.ar      1 BK5        -0.2656
      2 C2         22.5370   12.8910   63.1740 C.ar      1 BK5         0.0565
      3 N3         22.6300   14.2140   63.1340 N.ar      1 BK5        -0.2675
      4 C4         21.5400   14.9820   63.3220 C.ar      1 BK5         0.1635
      5 C5         20.3080   14.4000   63.5810 C.ar      1 BK5         0.0869
      6 C6         20.2480   12.9960   63.6290 C.ar      1 BK5         0.1274
      7 CAA         9.7400   14.7350   65.3460 C.3       1 BK5        -0.0371
      8 CAB        22.2130   18.5680   63.8350 C.3       1 BK5        -0.0338
      9 CAC        22.5730   17.4960   61.5790 C.3       1 BK5        -0.0338
     10 NAD        19.1200   12.3230   63.8630 N.pl3     1 BK5        -0.3126
     11 CAE        14.2700   13.9950   66.6360 C.ar      1 BK5        -0.0273
     12 CAF        17.2070   16.2240   63.2320 C.ar      1 BK5        -0.0571
     13 CAG        15.6440   13.9980   66.3900 C.ar      1 BK5        -0.0563
     14 CAH        15.8350   16.2290   63.4800 C.ar      1 BK5        -0.0594
     15 CAJ        13.9380   15.4910   64.7760 C.ar      1 BK5        -0.0289
     16 CAK        17.5490   14.7280   65.0800 C.ar      1 BK5        -0.0505
     17 CAL        11.2110   14.9390   64.9500 C.3       1 BK5         0.0680
     18 NAO        20.1780   16.6110   63.5670 N.2       1 BK5        -0.1941
     19 OAP        12.0790   14.7300   66.0940 O.3       1 BK5        -0.3174
     20 CAQ        13.4130   14.7400   65.8230 C.ar      1 BK5         0.0925
     21 CAR        18.0770   15.4600   64.0140 C.ar      1 BK5        -0.0104
     22 CAT        19.4460   15.4990   63.7380 C.2       1 BK5         0.0707
     23 CAU        15.3130   15.4840   64.5300 C.ar      1 BK5        -0.0285
     24 CAV        16.1720   14.7390   65.3400 C.ar      1 BK5        -0.0244
     25 CAY        22.4540   17.2540   63.0880 C.3       1 BK5         0.0755
     26 NAZ        21.3550   16.2990   63.3300 N.pl3     1 BK5        -0.1810
     27 H1         23.4233   12.2893   63.0079 H         1 BK5         0.1030
     28 H2          9.0980   14.8973   64.4677 H         1 BK5         0.0256
     29 H3          9.4698   15.4521   66.1351 H         1 BK5         0.0256
     30 H4          9.5993   13.7096   65.7185 H         1 BK5         0.0256
     31 H5         23.0451   19.2599   63.6376 H         1 BK5         0.0259
     32 H6         22.1496   18.3695   64.9151 H         1 BK5         0.0259
     33 H7         21.2712   19.0190   63.4892 H         1 BK5         0.0259
     34 H8         22.7455   16.5381   61.0665 H         1 BK5         0.0259
     35 H9         23.4162   18.1743   61.3818 H         1 BK5         0.0259
     36 H10        21.6427   17.9491   61.2058 H         1 BK5         0.0259
     37 H11        18.2412   12.8333   64.0309 H         1 BK5         0.1842
     38 H12        19.1280   11.2931   63.8757 H         1 BK5         0.1842
     39 H13        13.8680   13.4142   67.4583 H         1 BK5         0.0590
     40 H14        17.6048   16.8220   62.4201 H         1 BK5         0.0611
     41 H15        16.3047   13.4173   67.0235 H         1 BK5         0.0618
     42 H16        15.1741   16.8155   62.8521 H         1 BK5         0.0592
     43 H17        13.2792   16.0823   64.1504 H         1 BK5         0.0499
     44 H18        18.2103   14.1462   65.7118 H         1 BK5         0.0618
     45 H19        11.3462   15.9644   64.5756 H         1 BK5         0.0612
     46 H20        11.4758   14.2219   64.1590 H         1 BK5         0.0612
     47 H21        23.3938   16.8141   63.4529 H         1 BK5         0.0655
@<TRIPOS>BOND
     1    2    1 ar 
     2    6    1 ar 
     3    3    2 ar 
     4    4    3 ar 
     5    4    5 ar 
     6   26    4 1  
     7    5    6 ar 
     8   22    5 1  
     9    6   10 1  
    10   17    7 1  
    11   25    8 1  
    12   25    9 1  
    13   13   11 ar 
    14   11   20 ar 
    15   12   14 ar 
    16   21   12 ar 
    17   24   13 ar 
    18   14   23 ar 
    19   15   20 ar 
    20   23   15 ar 
    21   21   16 ar 
    22   16   24 ar 
    23   19   17 1  
    24   18   22 2  
    25   26   18 1  
    26   20   19 1  
    27   22   21 1  
    28   24   23 ar 
    29   25   26 1  
    30    2   27 1  
    31    7   28 1  
    32    7   29 1  
    33    7   30 1  
    34    8   31 1  
    35    8   32 1  
    36    8   33 1  
    37    9   34 1  
    38    9   35 1  
    39    9   36 1  
    40   10   37 1  
    41   10   38 1  
    42   11   39 1  
    43   12   40 1  
    44   13   41 1  
    45   14   42 1  
    46   15   43 1  
    47   16   44 1  
    48   17   45 1  
    49   17   46 1  
    50   25   47 1  
@<TRIPOS>SUBSTRUCTURE
     1 BK5         1

