### 
### Created by X-TOOL on Mon Sep 10 21:13:06 2018
### 

@<TRIPOS>MOLECULE
3sxu_ligand
   68    69     1     0     0
SMALL
GAST_HUCK


@<TRIPOS>ATOM
      1 N         -69.9860  -10.5510   27.8900 N.4       1 ASP         0.2391
      2 CA        -71.1330   -9.9480   27.1460 C.3       1 ASP         0.0764
      3 C         -70.7570   -9.6830   25.6920 C.2       1 ASP         0.2284
      4 O         -69.7560   -9.0160   25.4100 O.2       1 ASP        -0.3906
      5 CB        -71.5970   -8.6500   27.8210 C.3       1 ASP         0.0607
      6 CG        -71.9740   -8.8480   29.2810 C.2       1 ASP         0.0425
      7 OD1       -71.4370   -9.7770   29.9250 O.co2     1 ASP        -0.5686
      8 OD2       -72.8080   -8.0680   29.7890 O.co2     1 ASP        -0.5686
      9 N         -71.5670  -10.2150   24.7780 N.am      1 ILE        -0.2606
     10 CA        -71.3210  -10.1010   23.3390 C.3       1 ILE         0.1338
     11 C         -71.8220   -8.7490   22.8190 C.2       1 ILE         0.2067
     12 O         -73.0160   -8.4510   22.9230 O.2       1 ILE        -0.3942
     13 CB        -71.9790  -11.2710   22.5600 C.3       1 ILE        -0.0037
     14 CG1       -71.4390  -12.6170   23.0630 C.3       1 ILE        -0.0491
     15 CG2       -71.7430  -11.1210   21.0600 C.3       1 ILE        -0.0582
     16 CD1       -72.3350  -13.8070   22.7650 C.3       1 ILE        -0.0648
     17 N         -70.9070   -7.9270   22.2580 N.am      1 PRO        -0.2498
     18 CA        -71.2280   -6.5640   21.8190 C.3       1 PRO         0.1337
     19 C         -71.8160   -6.4640   20.4020 C.2       1 PRO         0.2037
     20 O         -71.7090   -5.4130   19.7620 O.2       1 PRO        -0.3944
     21 CB        -69.8710   -5.8380   21.8970 C.3       1 PRO        -0.0104
     22 CG        -68.8410   -6.8930   22.2680 C.3       1 PRO        -0.0281
     23 CD        -69.4790   -8.2250   22.0650 C.3       1 PRO         0.0369
     24 N         -72.4350   -7.5430   19.9260 N.am      1 PHE        -0.2677
     25 CA        -73.1260   -7.5410   18.6320 C.3       1 PHE         0.1039
     26 C         -74.3070   -8.5110   18.6090 C.2       1 PHE         0.0621
     27 O         -74.4510   -9.3670   19.4830 O.co2     1 PHE        -0.5664
     28 CB        -72.1570   -7.8200   17.4660 C.3       1 PHE         0.0159
     29 CG        -71.2870   -9.0340   17.6630 C.ar      1 PHE        -0.0392
     30 CD1       -71.7450  -10.3040   17.3150 C.ar      1 PHE        -0.0602
     31 CD2       -70.0000   -8.9050   18.1810 C.ar      1 PHE        -0.0602
     32 CE1       -70.9390  -11.4300   17.4930 C.ar      1 PHE        -0.0686
     33 CE2       -69.1850  -10.0230   18.3620 C.ar      1 PHE        -0.0686
     34 CZ        -69.6570  -11.2890   18.0170 C.ar      1 PHE        -0.0687
     35 OXT       -75.1510   -8.4600   17.7130 O.co2     1 PHE        -0.5664
     36 H         -69.6948  -11.4107   27.4247 H         1 ASP         0.2016
     37 H         -69.2082   -9.8913   27.9060 H         1 ASP         0.2016
     38 H         -70.2748  -10.7612   28.8454 H         1 ASP         0.2016
     39 H         -71.9572  -10.6611   27.1642 H         1 ASP         0.1117
     40 H         -72.4823   -8.2965   27.2924 H         1 ASP         0.0512
     41 H         -70.7711   -7.9398   27.7826 H         1 ASP         0.0512
     42 H         -72.3932  -10.7230   25.0937 H         1 ILE         0.1885
     43 H         -70.2453  -10.1600   23.1733 H         1 ILE         0.0803
     44 H         -73.0541  -11.2425   22.7373 H         1 ILE         0.0345
     45 H         -71.3579  -12.5427   24.1474 H         1 ILE         0.0267
     46 H         -70.4938  -12.7932   22.5496 H         1 ILE         0.0267
     47 H         -72.1764  -10.1813   20.7175 H         1 ILE         0.0235
     48 H         -70.6715  -11.1226   20.8601 H         1 ILE         0.0235
     49 H         -72.2132  -11.9523   20.5346 H         1 ILE         0.0235
     50 H         -73.3052  -13.6573   23.2387 H         1 ILE         0.0230
     51 H         -72.4661  -13.9005   21.6870 H         1 ILE         0.0230
     52 H         -71.8743  -14.7141   23.1563 H         1 ILE         0.0230
     53 H         -72.0113   -6.1350   22.4439 H         1 PRO         0.0802
     54 H         -69.8968   -5.0388   22.6377 H         1 PRO         0.0313
     55 H         -69.6238   -5.3673   20.9455 H         1 PRO         0.0313
     56 H         -68.5258   -6.7730   23.3045 H         1 PRO         0.0287
     57 H         -67.9513   -6.7954   21.6459 H         1 PRO         0.0287
     58 H         -69.2614   -8.6584   21.0888 H         1 PRO         0.0524
     59 H         -69.1053   -8.9863   22.7498 H         1 PRO         0.0524
     60 H         -72.4283   -8.3995   20.4798 H         1 PHE         0.1877
     61 H         -73.5278   -6.5369   18.4960 H         1 PHE         0.0749
     62 H         -71.4938   -6.9587   17.3859 H         1 PHE         0.0467
     63 H         -72.7645   -8.0002   16.5791 H         1 PHE         0.0467
     64 H         -72.7456  -10.4193   16.8984 H         1 PHE         0.0557
     65 H         -69.6247   -7.9172   18.4485 H         1 PHE         0.0557
     66 H         -71.3128  -12.4175   17.2222 H         1 PHE         0.0599
     67 H         -68.1818   -9.9071   18.7721 H         1 PHE         0.0599
     68 H         -69.0242  -12.1654   18.1572 H         1 PHE         0.0559
@<TRIPOS>BOND
     1    1    2 1  
     2    2    3 1  
     3    2    5 1  
     4    3    4 2  
     5    3    9 am 
     6    5    6 1  
     7    6    7 ar 
     8    6    8 ar 
     9    9   10 1  
    10   10   11 1  
    11   10   13 1  
    12   11   12 2  
    13   11   17 am 
    14   13   14 1  
    15   13   15 1  
    16   14   16 1  
    17   17   18 1  
    18   17   23 1  
    19   18   19 1  
    20   18   21 1  
    21   19   20 2  
    22   19   24 am 
    23   21   22 1  
    24   22   23 1  
    25   24   25 1  
    26   25   26 1  
    27   25   28 1  
    28   26   27 ar 
    29   26   35 ar 
    30   28   29 1  
    31   29   30 ar 
    32   29   31 ar 
    33   30   32 ar 
    34   31   33 ar 
    35   32   34 ar 
    36   33   34 ar 
    37    1   36 1  
    38    1   37 1  
    39    1   38 1  
    40    2   39 1  
    41    5   40 1  
    42    5   41 1  
    43    9   42 1  
    44   10   43 1  
    45   13   44 1  
    46   14   45 1  
    47   14   46 1  
    48   15   47 1  
    49   15   48 1  
    50   15   49 1  
    51   16   50 1  
    52   16   51 1  
    53   16   52 1  
    54   18   53 1  
    55   21   54 1  
    56   21   55 1  
    57   22   56 1  
    58   22   57 1  
    59   23   58 1  
    60   23   59 1  
    61   24   60 1  
    62   25   61 1  
    63   28   62 1  
    64   28   63 1  
    65   30   64 1  
    66   31   65 1  
    67   32   66 1  
    68   33   67 1  
    69   34   68 1  
@<TRIPOS>SUBSTRUCTURE
     1 ASP         1

