### 
### Created by X-TOOL on Fri Sep 26 17:34:54 2014
### 

@<TRIPOS>MOLECULE
3sym_ligand
   37    38     1     0     0
SMALL
GAST_HUCK


@<TRIPOS>ATOM
      1 C1         35.4460   23.6790   28.5790 C.2       1 GP0         0.0880
      2 F1         37.5560   24.4340   29.2400 F         1 GP0        -0.2165
      3 N1         34.0590   23.5780   28.8140 N.am      1 GP0        -0.1635
      4 C2         36.2410   24.3630   29.4830 C.2       1 GP0         0.1931
      5 C3         35.6780   24.9610   30.6270 C.2       1 GP0         0.2212
      6 O3         36.3660   25.5960   31.4320 O.2       1 GP0        -0.4071
      7 N4         34.3020   24.8610   30.8630 N.am      1 GP0        -0.1842
      8 C5         33.4920   24.1670   29.9630 C.2       1 GP0         0.3295
      9 O5         32.2870   24.0740   30.1940 O.2       1 GP0        -0.3830
     10 C1'        33.1880   22.8650   27.8630 C.3       1 GP0         0.2038
     11 C2'        33.5520   23.1870   26.3850 C.3       1 GP0         0.1432
     12 O2'        33.7100   24.5930   26.1930 O.3       1 GP0        -0.3833
     13 C3'        32.4960   22.5890   25.4140 C.3       1 GP0         0.1478
     14 O3'        32.9720   22.5240   24.0760 O.3       1 GP0        -0.3809
     15 C4'        32.2110   21.1210   25.8210 C.3       1 GP0         0.1169
     16 O4'        31.0840   20.6420   25.0890 O.3       1 GP0        -0.3861
     17 C5'        32.0420   20.8900   27.3480 C.3       1 GP0         0.1137
     18 O5'        33.1610   21.4250   28.0870 O.3       1 GP0        -0.3370
     19 C6'        32.0070   19.4220   27.7640 C.3       1 GP0         0.0730
     20 O6'        33.1240   18.7230   27.2370 O.3       1 GP0        -0.3924
     21 C7'        31.2510   23.5010   25.4080 C.3       1 GP0         0.0781
     22 O7'        30.5590   23.7770   26.6240 O.3       1 GP0        -0.3920
     23 H1         35.8878   23.2230   27.6943 H         1 GP0         0.1107
     24 H2         33.9004   25.2857   31.6744 H         1 GP0         0.2260
     25 H3         32.1659   23.2346   28.0325 H         1 GP0         0.0991
     26 H4         34.5179   22.7093   26.1639 H         1 GP0         0.0679
     27 H5         33.9314   24.7646   25.2853 H         1 GP0         0.2101
     28 H6         32.2975   22.1539   23.5187 H         1 GP0         0.2105
     29 H7         33.0840   20.5278   25.5112 H         1 GP0         0.0650
     30 H8         31.2706   20.6851   24.1585 H         1 GP0         0.2100
     31 H9         31.1105   21.3823   27.6642 H         1 GP0         0.0647
     32 H10        31.0822   18.9618   27.3859 H         1 GP0         0.0584
     33 H11        32.0263   19.3575   28.8619 H         1 GP0         0.0584
     34 H12        33.9249   19.1158   27.5638 H         1 GP0         0.2095
     35 H13        30.5221   23.0375   24.7270 H         1 GP0         0.0587
     36 H14        31.5705   24.4706   24.9984 H         1 GP0         0.0587
     37 H15        29.8225   24.3497   26.4450 H         1 GP0         0.2095
@<TRIPOS>BOND
     1    1    3 1  
     2    1    4 2  
     3    4    2 1  
     4    3    8 am 
     5    3   10 1  
     6    4    5 1  
     7    5    6 2  
     8    5    7 am 
     9    7    8 am 
    10    8    9 2  
    11   10   11 1  
    12   10   18 1  
    13   11   12 1  
    14   11   13 1  
    15   13   14 1  
    16   13   15 1  
    17   13   21 1  
    18   15   16 1  
    19   15   17 1  
    20   17   18 1  
    21   17   19 1  
    22   19   20 1  
    23   21   22 1  
    24    1   23 1  
    25    7   24 1  
    26   10   25 1  
    27   11   26 1  
    28   12   27 1  
    29   14   28 1  
    30   15   29 1  
    31   16   30 1  
    32   17   31 1  
    33   19   32 1  
    34   19   33 1  
    35   20   34 1  
    36   21   35 1  
    37   21   36 1  
    38   22   37 1  
@<TRIPOS>SUBSTRUCTURE
     1 GP0         1

