### 
### Created by X-TOOL on Fri Sep 26 17:34:54 2014
### 

@<TRIPOS>MOLECULE
3syr_ligand
   33    34     1     0     0
SMALL
GAST_HUCK


@<TRIPOS>ATOM
      1 C1         35.5030   23.4910   28.5950 C.2       1 GPK         0.0880
      2 F1         37.6100   24.1550   29.4110 F         1 GPK        -0.2165
      3 C2         36.2750   24.1810   29.5180 C.2       1 GPK         0.1931
      4 C3         35.6490   24.9040   30.5350 C.2       1 GPK         0.2212
      5 O3         36.3470   25.5430   31.3440 O.2       1 GPK        -0.4071
      6 N4         34.2980   24.9350   30.6350 N.am      1 GPK        -0.1842
      7 C5         33.5120   24.2650   29.7580 C.2       1 GPK         0.3295
      8 O5         32.2620   24.2540   29.8740 O.2       1 GPK        -0.3830
      9 C1'        33.2270   22.7960   27.7450 C.3       1 GPK         0.2035
     10 N1'        34.0990   23.4540   28.7710 N.am      1 GPK        -0.1635
     11 C2'        33.6570   23.0400   26.2930 C.3       1 GPK         0.1382
     12 O2'        33.7600   24.4490   26.0450 O.3       1 GPK        -0.3837
     13 C3'        32.6130   22.3810   25.3760 C.3       1 GPK         0.1145
     14 O3'        33.0220   22.4500   24.0240 O.3       1 GPK        -0.3864
     15 C4'        32.3640   20.9290   25.7600 C.3       1 GPK         0.1119
     16 O4'        31.2550   20.4570   24.9760 O.3       1 GPK        -0.3865
     17 C5'        32.1130   20.7600   27.2720 C.3       1 GPK         0.1134
     18 O5'        33.1680   21.3780   27.9980 O.3       1 GPK        -0.3370
     19 C6'        32.0850   19.3070   27.7680 C.3       1 GPK         0.0730
     20 O6'        33.1750   18.5510   27.2120 O.3       1 GPK        -0.3924
     21 H1         35.9689   22.9866   27.7498 H         1 GPK         0.1107
     22 H2         33.8728   25.4627   31.3704 H         1 GPK         0.2260
     23 H3         32.2147   23.2104   27.8612 H         1 GPK         0.0991
     24 H4         34.6385   22.5759   26.1166 H         1 GPK         0.0676
     25 H5         34.0265   24.5923   25.1444 H         1 GPK         0.2101
     26 H6         31.6677   22.9332   25.4831 H         1 GPK         0.0648
     27 H7         32.3655   22.0386   23.4743 H         1 GPK         0.2100
     28 H8         33.2554   20.3393   25.5000 H         1 GPK         0.0647
     29 H9         31.4698   20.5241   24.0530 H         1 GPK         0.2100
     30 H10        31.1536   21.2397   27.5158 H         1 GPK         0.0647
     31 H11        31.1346   18.8424   27.4667 H         1 GPK         0.0584
     32 H12        32.1651   19.2998   28.8650 H         1 GPK         0.0584
     33 H13        33.1357   17.6578   27.5332 H         1 GPK         0.2095
@<TRIPOS>BOND
     1    1    3 2  
     2    1   10 1  
     3    3    2 1  
     4    3    4 1  
     5    4    5 2  
     6    4    6 am 
     7    6    7 am 
     8    7    8 2  
     9    7   10 am 
    10   10    9 1  
    11    9   11 1  
    12    9   18 1  
    13   11   12 1  
    14   11   13 1  
    15   13   14 1  
    16   13   15 1  
    17   15   16 1  
    18   15   17 1  
    19   17   18 1  
    20   17   19 1  
    21   19   20 1  
    22    1   21 1  
    23    6   22 1  
    24    9   23 1  
    25   11   24 1  
    26   12   25 1  
    27   13   26 1  
    28   14   27 1  
    29   15   28 1  
    30   16   29 1  
    31   17   30 1  
    32   19   31 1  
    33   19   32 1  
    34   20   33 1  
@<TRIPOS>SUBSTRUCTURE
     1 GPK         1

