### 
### Created by X-TOOL on Tue Oct 16 15:17:34 2018
### 

@<TRIPOS>MOLECULE
3sz1_ligand
   31    33     1     0     0
SMALL
GAST_HUCK


@<TRIPOS>ATOM
      1 C1         36.8060  -22.3400   41.8430 C.ar      1 LU2        -0.0033
      2 O1         34.7180  -21.4410   41.4730 O.3       1 LU2        -0.3351
      3 C2         35.9230  -21.2870   42.0110 C.ar      1 LU2         0.0775
      4 O2         37.8020  -18.8800   44.0150 O.3       1 LU2        -0.3326
      5 C3         36.2520  -20.1270   42.7220 C.ar      1 LU2        -0.0086
      6 O3         40.2110  -20.1420   44.3810 O.2       1 LU2        -0.4275
      7 C4         37.5270  -20.0300   43.3170 C.ar      1 LU2         0.0935
      8 O4         38.8410  -23.4110   42.1940 O.3       1 LU2        -0.2433
      9 C5         38.4750  -21.1180   43.1590 C.ar      1 LU2         0.0767
     10 O5         44.4170  -25.6550   42.5200 O.3       1 LU2        -0.3356
     11 C6         38.0640  -22.2850   42.4050 C.ar      1 LU2         0.1290
     12 O6         43.1840  -27.9510   41.8420 O.3       1 LU2        -0.3321
     13 C7         39.7830  -21.1150   43.7220 C.2       1 LU2         0.0969
     14 C8         40.6000  -22.2620   43.5190 C.2       1 LU2         0.0024
     15 C9         40.1160  -23.3940   42.7490 C.2       1 LU2         0.1329
     16 C10        40.9020  -24.5460   42.5120 C.ar      1 LU2         0.0117
     17 C11        42.3250  -24.4880   42.6400 C.ar      1 LU2        -0.0240
     18 C12        43.0740  -25.6550   42.4080 C.ar      1 LU2         0.1223
     19 C13        42.4320  -26.8520   42.0460 C.ar      1 LU2         0.1233
     20 C14        41.0360  -26.9200   41.8980 C.ar      1 LU2        -0.0339
     21 C15        40.2710  -25.7670   42.1500 C.ar      1 LU2        -0.0626
     22 H1         36.5078  -23.2095   41.2685 H         1 LU2         0.0401
     23 H2         34.2963  -22.2013   41.8559 H         1 LU2         0.2494
     24 H3         38.6827  -18.9281   44.3679 H         1 LU2         0.2503
     25 H4         35.5383  -19.3163   42.8138 H         1 LU2         0.0403
     26 H5         44.6598  -25.4097   43.4050 H         1 LU2         0.2443
     27 H6         42.6213  -28.6789   41.6054 H         1 LU2         0.2472
     28 H7         41.6011  -22.2913   43.9466 H         1 LU2         0.0375
     29 H8         42.8174  -23.5611   42.9110 H         1 LU2         0.0550
     30 H9         40.5576  -27.8444   41.5951 H         1 LU2         0.0530
     31 H10        39.1910  -25.8100   42.0674 H         1 LU2         0.0553
@<TRIPOS>BOND
     1    1    3 ar 
     2   11    1 ar 
     3    3    2 1  
     4    3    5 ar 
     5    7    4 1  
     6    7    5 ar 
     7   13    6 2  
     8    9    7 ar 
     9    8   11 1  
    10   15    8 1  
    11   11    9 ar 
    12   13    9 1  
    13   18   10 1  
    14   19   12 1  
    15   14   13 1  
    16   15   14 2  
    17   16   15 1  
    18   17   16 ar 
    19   16   21 ar 
    20   18   17 ar 
    21   18   19 ar 
    22   19   20 ar 
    23   20   21 ar 
    24    1   22 1  
    25    2   23 1  
    26    4   24 1  
    27    5   25 1  
    28   10   26 1  
    29   12   27 1  
    30   14   28 1  
    31   17   29 1  
    32   20   30 1  
    33   21   31 1  
@<TRIPOS>SUBSTRUCTURE
     1 LU2         1

