### 
### Created by X-TOOL on Mon Sep 10 21:13:06 2018
### 

@<TRIPOS>MOLECULE
3sz9_ligand
   26    26     1     0     0
SMALL
GAST_HUCK


@<TRIPOS>ATOM
      1 C1         72.0260   57.4960   72.1570 C.ar      1 I3E        -0.0382
      2 C2         71.0340   58.4340   71.9010 C.ar      1 I3E        -0.0541
      3 C3         70.8280   58.8790   70.5990 C.ar      1 I3E        -0.0496
      4 C4         71.6060   58.3920   69.5590 C.ar      1 I3E         0.0255
      5 C5         72.5960   57.4580   69.8190 C.ar      1 I3E        -0.0496
      6 C6         72.8050   57.0070   71.1180 C.ar      1 I3E        -0.0541
      7 C7         72.2640   56.9980   73.5640 C.3       1 I3E        -0.0196
      8 C8         71.0920   57.4150   74.4450 C.3       1 I3E        -0.0547
      9 C9         71.3880   58.8780   68.1600 C.2       1 I3E         0.1276
     10 O9         71.0170   60.0290   67.9710 O.2       1 I3E        -0.3819
     11 C10        71.6120   58.0020   66.9920 C.3       1 I3E         0.0186
     12 C11        70.8920   58.3520   65.7100 C.3       1 I3E        -0.0499
     13 H          70.4205   58.8192   72.7155 H         1 I3E         0.0571
     14 H          70.0503   59.6150   70.3949 H         1 I3E         0.0655
     15 H          73.2117   57.0763   69.0046 H         1 I3E         0.0655
     16 H          73.5812   56.2689   71.3200 H         1 I3E         0.0571
     17 H          73.1870   57.4272   73.9539 H         1 I3E         0.0434
     18 H          72.3507   55.9115   73.5589 H         1 I3E         0.0434
     19 H          71.0106   58.5020   74.4487 H         1 I3E         0.0253
     20 H          70.1720   56.9818   74.0525 H         1 I3E         0.0253
     21 H          71.2583   57.0583   75.4615 H         1 I3E         0.0253
     22 H          71.2338   57.0220   67.2831 H         1 I3E         0.0481
     23 H          72.6747   58.0831   66.7636 H         1 I3E         0.0481
     24 H          69.8159   58.3342   65.8827 H         1 I3E         0.0253
     25 H          71.1929   59.3483   65.3862 H         1 I3E         0.0253
     26 H          71.1498   57.6250   64.9399 H         1 I3E         0.0253
@<TRIPOS>BOND
     1    1    2 ar 
     2    1    6 ar 
     3    1    7 1  
     4    2    3 ar 
     5    3    4 ar 
     6    4    5 ar 
     7    4    9 1  
     8    5    6 ar 
     9    7    8 1  
    10    9   10 2  
    11    9   11 1  
    12   11   12 1  
    13    2   13 1  
    14    3   14 1  
    15    5   15 1  
    16    6   16 1  
    17    7   17 1  
    18    7   18 1  
    19    8   19 1  
    20    8   20 1  
    21    8   21 1  
    22   11   22 1  
    23   11   23 1  
    24   12   24 1  
    25   12   25 1  
    26   12   26 1  
@<TRIPOS>SUBSTRUCTURE
     1 I3E         1

