### 
### Created by X-TOOL on Mon Sep 10 21:13:06 2018
### 

@<TRIPOS>MOLECULE
3szb_ligand
   20    20     1     0     0
SMALL
GAST_HUCK


@<TRIPOS>ATOM
      1 C1         11.9550   13.7960   66.8620 C.ar      1 I1E        -0.0430
      2 C2         12.6920   12.7660   67.4240 C.ar      1 I1E        -0.0559
      3 C3         13.9700   12.4930   66.9520 C.ar      1 I1E        -0.0572
      4 C4         14.5190   13.2530   65.9290 C.ar      1 I1E        -0.0559
      5 C5         13.7840   14.2860   65.3720 C.ar      1 I1E        -0.0430
      6 C6         12.4940   14.5630   65.8290 C.ar      1 I1E         0.0326
      7 C7         11.6700   15.6850   65.2470 C.2       1 I1E         0.1326
      8 O7         11.3640   16.6350   65.9540 O.2       1 I1E        -0.3784
      9 C8         11.1920   15.6530   63.8510 C.3       1 I1E         0.0197
     10 C9         10.2190   16.7110   63.3830 C.3       1 I1E        -0.0498
     11 H          10.9505   14.0077   67.2284 H         1 I1E         0.0672
     12 H          12.2703   12.1714   68.2344 H         1 I1E         0.0630
     13 H          14.5452   11.6763   67.3882 H         1 I1E         0.0655
     14 H          15.5239   13.0379   65.5656 H         1 I1E         0.0630
     15 H          14.2154   14.8869   64.5714 H         1 I1E         0.0672
     16 H          10.6473   14.7130   63.7630 H         1 I1E         0.0482
     17 H          12.0853   15.8065   63.2455 H         1 I1E         0.0482
     18 H           9.3111   16.6592   63.9839 H         1 I1E         0.0253
     19 H          10.6737   17.6954   63.4936 H         1 I1E         0.0253
     20 H           9.9731   16.5386   62.3352 H         1 I1E         0.0253
@<TRIPOS>BOND
     1    1    2 ar 
     2    1    6 ar 
     3    2    3 ar 
     4    3    4 ar 
     5    4    5 ar 
     6    5    6 ar 
     7    6    7 1  
     8    7    8 2  
     9    7    9 1  
    10    9   10 1  
    11    1   11 1  
    12    2   12 1  
    13    3   13 1  
    14    4   14 1  
    15    5   15 1  
    16    9   16 1  
    17    9   17 1  
    18   10   18 1  
    19   10   19 1  
    20   10   20 1  
@<TRIPOS>SUBSTRUCTURE
     1 I1E         1

