### 
### Created by X-TOOL on Mon Sep 10 21:13:11 2018
### 

@<TRIPOS>MOLECULE
3t03_ligand
   43    45     1     0     0
SMALL
GAST_HUCK


@<TRIPOS>ATOM
      1 CAA       -17.7410   22.0290  -17.4400 C.3       1 3T0         0.0585
      2 CAB       -15.1420   20.3890   -7.7010 C.3       1 3T0        -0.0343
      3 OAC       -18.7080   26.4060  -10.3380 O.2       1 3T0        -0.3727
      4 OAD       -19.7640   22.4480  -12.8040 O.2       1 3T0        -0.3843
      5 BRAE      -21.4580   27.8980  -18.7520 Br        1 3T0        -0.0618
      6 CAF       -19.3750   23.9980  -14.9160 C.3       1 3T0         0.0115
      7 CAG       -16.4810   21.2160   -9.8760 C.ar      1 3T0        -0.0670
      8 CAH       -17.2540   21.8640   -7.5540 C.ar      1 3T0        -0.0670
      9 CAI       -19.4870   25.7140  -18.9040 C.ar      1 3T0        -0.0680
     10 CAJ       -17.5650   22.0150  -10.4880 C.ar      1 3T0        -0.0645
     11 CAK       -18.3790   22.6620   -8.1600 C.ar      1 3T0        -0.0645
     12 CAL       -18.7290   24.5370  -18.4930 C.ar      1 3T0        -0.0366
     13 CAM       -20.4800   26.0290  -16.4870 C.ar      1 3T0        -0.0591
     14 CAN       -19.6440   23.5260  -10.1130 C.3       1 3T0         0.0900
     15 OAO       -18.0710   23.0630  -16.5940 O.3       1 3T0        -0.3229
     16 SAP       -18.6260   26.1050  -12.9910 S.3       1 3T0         0.0009
     17 CAQ       -16.2880   21.1430   -8.3900 C.ar      1 3T0        -0.0528
     18 CAR       -20.3900   26.4300  -18.0100 C.ar      1 3T0        -0.0055
     19 CAS       -18.5020   22.7440   -9.5960 C.ar      1 3T0        -0.0228
     20 CAT       -19.7120   24.8060  -16.1050 C.ar      1 3T0        -0.0074
     21 CAU       -18.8220   24.1030  -17.0690 C.ar      1 3T0         0.0958
     22 CAV       -18.9100   25.6910  -11.2910 C.2       1 3T0         0.2737
     23 CAW       -19.4140   23.6720  -12.5180 C.2       1 3T0         0.2267
     24 CAX       -19.1530   24.5850  -13.5890 C.3       1 3T0         0.1284
     25 NAY       -19.3140   24.3230  -11.2880 N.am      1 3T0        -0.1644
     26 H1        -17.1397   21.2867  -16.8946 H         1 3T0         0.0576
     27 H2        -17.1596   22.4202  -18.2879 H         1 3T0         0.0576
     28 H3        -18.6598   21.5535  -17.8137 H         1 3T0         0.0576
     29 H4        -14.5116   19.9055   -8.4618 H         1 3T0         0.0378
     30 H5        -15.5581   19.6237   -7.0294 H         1 3T0         0.0378
     31 H6        -14.5350   21.0975   -7.1182 H         1 3T0         0.0378
     32 H7        -18.4498   23.4589  -15.1678 H         1 3T0         0.0441
     33 H8        -20.1978   23.2779  -14.7954 H         1 3T0         0.0441
     34 H9        -15.8052   20.6663  -10.5211 H         1 3T0         0.0540
     35 H10       -17.1561   21.8216   -6.4753 H         1 3T0         0.0540
     36 H11       -19.3738   26.0728  -19.9206 H         1 3T0         0.0558
     37 H12       -17.6731   22.0673  -11.5653 H         1 3T0         0.0540
     38 H13       -19.0917   23.1715   -7.5216 H         1 3T0         0.0540
     39 H14       -18.1156   23.9934  -19.2024 H         1 3T0         0.0529
     40 H15       -21.0577   26.6000  -15.7691 H         1 3T0         0.0551
     41 H16       -19.9914   24.2030   -9.3187 H         1 3T0         0.0728
     42 H17       -20.4519   22.8289  -10.3800 H         1 3T0         0.0728
     43 H18       -20.1833   24.9696  -13.6127 H         1 3T0         0.0706
@<TRIPOS>BOND
     1   15    1 1  
     2   17    2 1  
     3   22    3 2  
     4   23    4 2  
     5   18    5 1  
     6    6   20 1  
     7   24    6 1  
     8   10    7 ar 
     9    7   17 ar 
    10   11    8 ar 
    11    8   17 ar 
    12   12    9 ar 
    13   18    9 ar 
    14   19   10 ar 
    15   19   11 ar 
    16   21   12 ar 
    17   13   18 ar 
    18   20   13 ar 
    19   14   19 1  
    20   25   14 1  
    21   21   15 1  
    22   16   22 1  
    23   24   16 1  
    24   20   21 ar 
    25   22   25 am 
    26   23   24 1  
    27   23   25 am 
    28    1   26 1  
    29    1   27 1  
    30    1   28 1  
    31    2   29 1  
    32    2   30 1  
    33    2   31 1  
    34    6   32 1  
    35    6   33 1  
    36    7   34 1  
    37    8   35 1  
    38    9   36 1  
    39   10   37 1  
    40   11   38 1  
    41   12   39 1  
    42   13   40 1  
    43   14   41 1  
    44   14   42 1  
    45   24   43 1  
@<TRIPOS>SUBSTRUCTURE
     1 3T0         1

