### 
### Created by X-TOOL on Mon Sep 10 21:13:07 2018
### 

@<TRIPOS>MOLECULE
3t07_ligand
   41    45     1     0     0
SMALL
GAST_HUCK


@<TRIPOS>ATOM
      1 C1         -9.4760    1.1630    3.1150 C.2       1 09C         0.1930
      2 N1        -11.4350    1.1700    1.8630 N.2       1 09C        -0.3472
      3 O1         -8.8820    1.5090    4.1370 O.2       1 09C        -0.3945
      4 C2        -10.5650    2.0590    2.5930 C.3       1 09C         0.1023
      5 N2         -9.1420   -0.0410    2.3980 N.am      1 09C        -0.2678
      6 N3        -14.7080   -0.6240    1.5210 N.pl3     1 09C        -0.2616
      7 N4        -13.5710    2.4070    4.6240 N.pl3     1 09C        -0.2870
      8 BR1       -16.3390   -4.0040   -1.8690 Br        1 09C        -0.0583
      9 BR2       -13.4040    6.3340    8.0210 Br        1 09C        -0.0592
     10 C3        -13.6020   -3.0480   -1.5220 C.ar      1 09C        -0.0685
     11 C4        -11.3270    5.4640    6.0840 C.ar      1 09C        -0.0705
     12 C5        -12.6490   -2.2430   -0.8770 C.ar      1 09C        -0.0696
     13 C6        -10.8490    4.6130    5.0630 C.ar      1 09C        -0.0728
     14 C7        -13.5460   -0.0720    1.8220 C.2       1 09C         0.0594
     15 C8        -12.7790    1.8880    3.7060 C.2       1 09C         0.0214
     16 C9        -15.3940   -2.2220   -0.1060 C.ar      1 09C        -0.0305
     17 C10       -13.3950    4.2660    6.1690 C.ar      1 09C        -0.0344
     18 C11        -9.8460   -0.4940    1.1390 C.3       1 09C         0.0850
     19 C12       -11.2630    0.0070    1.2610 C.2       1 09C         0.0306
     20 C13       -14.9480   -3.0160   -1.1190 C.ar      1 09C        -0.0004
     21 C14       -12.6070    5.2870    6.6380 C.ar      1 09C        -0.0025
     22 C15       -12.5440   -0.5020    1.0390 C.2       1 09C         0.0288
     23 C16       -11.6050    2.5270    3.6580 C.2       1 09C        -0.0166
     24 C17       -14.4750   -1.4460    0.5240 C.ar      1 09C         0.0761
     25 C18       -12.9410    3.4310    5.1750 C.ar      1 09C         0.0636
     26 C19       -13.1050   -1.4330    0.1640 C.ar      1 09C        -0.0033
     27 C20       -11.6690    3.5760    4.5980 C.ar      1 09C        -0.0165
     28 H         -10.0632    2.8983    2.1114 H         1 09C         0.0689
     29 H          -8.3863   -0.6219    2.7610 H         1 09C         0.1889
     30 H         -15.6055   -0.4472    1.9723 H         1 09C         0.2365
     31 H         -14.5051    2.0767    4.8664 H         1 09C         0.2224
     32 H         -13.2962   -3.7010   -2.3394 H         1 09C         0.0544
     33 H         -10.6926    6.2718    6.4487 H         1 09C         0.0529
     34 H         -11.6008   -2.2505   -1.1759 H         1 09C         0.0547
     35 H          -9.8546    4.7610    4.6419 H         1 09C         0.0543
     36 H         -13.4147    0.6563    2.6223 H         1 09C         0.1168
     37 H         -13.0470    1.0459    3.0679 H         1 09C         0.0817
     38 H         -16.4440   -2.2101    0.1864 H         1 09C         0.0584
     39 H         -14.3899    4.1155    6.5882 H         1 09C         0.0574
     40 H          -9.8154   -1.5786    1.0348 H         1 09C         0.0769
     41 H          -9.3598   -0.0982    0.2474 H         1 09C         0.0769
@<TRIPOS>BOND
     1    1    3 2  
     2    4    1 1  
     3    5    1 am 
     4    2    4 1  
     5   19    2 2  
     6    4   23 1  
     7   18    5 1  
     8   14    6 1  
     9    6   24 1  
    10   15    7 1  
    11    7   25 1  
    12   20    8 1  
    13   21    9 1  
    14   10   12 ar 
    15   20   10 ar 
    16   11   13 ar 
    17   21   11 ar 
    18   12   26 ar 
    19   13   27 ar 
    20   22   14 2  
    21   23   15 2  
    22   16   20 ar 
    23   24   16 ar 
    24   17   21 ar 
    25   25   17 ar 
    26   19   18 1  
    27   19   22 1  
    28   22   26 1  
    29   23   27 1  
    30   24   26 ar 
    31   25   27 ar 
    32    4   28 1  
    33    5   29 1  
    34    6   30 1  
    35    7   31 1  
    36   10   32 1  
    37   11   33 1  
    38   12   34 1  
    39   13   35 1  
    40   14   36 1  
    41   15   37 1  
    42   16   38 1  
    43   17   39 1  
    44   18   40 1  
    45   18   41 1  
@<TRIPOS>SUBSTRUCTURE
     1 09C         1

