### 
### Created by X-TOOL on Mon Sep 10 21:13:09 2018
### 

@<TRIPOS>MOLECULE
3t08_ligand
   33    33     1     0     0
SMALL
GAST_HUCK


@<TRIPOS>ATOM
      1 C1        -14.6760  -27.5230  -26.4000 C.3       1 IPT         0.1332
      2 C2        -13.3840  -27.3280  -25.6060 C.3       1 IPT         0.1189
      3 O2        -13.5120  -26.1960  -24.7450 O.3       1 IPT        -0.3857
      4 C3        -12.1940  -27.1100  -26.5390 C.3       1 IPT         0.1126
      5 O3        -10.9950  -27.1630  -25.7700 O.3       1 IPT        -0.3865
      6 C4        -12.1430  -28.1460  -27.6650 C.3       1 IPT         0.1118
      7 O4        -11.7450  -29.4210  -27.1280 O.3       1 IPT        -0.3865
      8 C5        -13.5240  -28.2240  -28.3360 C.3       1 IPT         0.1115
      9 O5        -14.4970  -28.5720  -27.3510 O.3       1 IPT        -0.3553
     10 C6        -13.6380  -29.2130  -29.4910 C.3       1 IPT         0.0730
     11 O6        -12.4290  -29.2080  -30.2640 O.3       1 IPT        -0.3924
     12 S1        -15.9820  -28.0010  -25.3310 S.3       1 IPT        -0.1243
     13 C1'       -17.4290  -27.4040  -26.1670 C.3       1 IPT         0.0021
     14 C2'       -17.7570  -28.2470  -27.4010 C.3       1 IPT        -0.0535
     15 C3'       -18.6010  -27.4200  -25.1900 C.3       1 IPT        -0.0535
     16 H1        -14.9362  -26.5863  -26.9146 H         1 IPT         0.0740
     17 H2        -13.2020  -28.2267  -24.9983 H         1 IPT         0.0655
     18 H3        -12.7067  -26.0799  -24.2546 H         1 IPT         0.2100
     19 H4        -12.2838  -26.1120  -26.9928 H         1 IPT         0.0647
     20 H5        -10.9260  -28.0130  -25.3512 H         1 IPT         0.2100
     21 H6        -11.4015  -27.8310  -28.4140 H         1 IPT         0.0647
     22 H7        -11.7139  -30.0624  -27.8280 H         1 IPT         0.2100
     23 H8        -13.7569  -27.2239  -28.7303 H         1 IPT         0.0646
     24 H9        -14.4826  -28.9256  -30.1344 H         1 IPT         0.0584
     25 H10       -13.8095  -30.2228  -29.0900 H         1 IPT         0.0584
     26 H11       -12.2805  -28.3366  -30.6120 H         1 IPT         0.2095
     27 H12       -17.2473  -26.3688  -26.4915 H         1 IPT         0.0407
     28 H13       -18.6572  -27.8464  -27.8900 H         1 IPT         0.0240
     29 H14       -17.9379  -29.2883  -27.0962 H         1 IPT         0.0240
     30 H15       -16.9117  -28.2123  -28.1040 H         1 IPT         0.0240
     31 H16       -19.5054  -27.0517  -25.6963 H         1 IPT         0.0240
     32 H17       -18.3717  -26.7716  -24.3316 H         1 IPT         0.0240
     33 H18       -18.7709  -28.4482  -24.8379 H         1 IPT         0.0240
@<TRIPOS>BOND
     1    1    2 1  
     2    1    9 1  
     3    1   12 1  
     4    2    3 1  
     5    2    4 1  
     6    4    5 1  
     7    4    6 1  
     8    6    7 1  
     9    6    8 1  
    10    8    9 1  
    11    8   10 1  
    12   10   11 1  
    13   12   13 1  
    14   13   14 1  
    15   13   15 1  
    16    1   16 1  
    17    2   17 1  
    18    3   18 1  
    19    4   19 1  
    20    5   20 1  
    21    6   21 1  
    22    7   22 1  
    23    8   23 1  
    24   10   24 1  
    25   10   25 1  
    26   11   26 1  
    27   13   27 1  
    28   14   28 1  
    29   14   29 1  
    30   14   30 1  
    31   15   31 1  
    32   15   32 1  
    33   15   33 1  
@<TRIPOS>SUBSTRUCTURE
     1 IPT         1

