### 
### Created by X-TOOL on Mon Sep 10 21:13:11 2018
### 

@<TRIPOS>MOLECULE
3t09_ligand
   22    22     1     0     0
SMALL
GAST_HUCK


@<TRIPOS>ATOM
      1 C1         53.9660   -8.9740   28.8870 C.2       1 149         0.2660
      2 C2         53.7240   -8.0440   27.7260 C.3       1 149         0.1832
      3 C3         52.5340   -7.1500   28.0210 C.3       1 149         0.1280
      4 C4         51.4130   -8.0330   28.5680 C.3       1 149         0.1183
      5 C5         51.7740   -8.5330   29.9710 C.3       1 149         0.1389
      6 C6         50.7940   -9.5750   30.5180 C.3       1 149         0.0774
      7 O1         54.9720   -9.6420   28.9110 O.2       1 149        -0.3674
      8 O2         54.8980   -7.2550   27.4600 O.3       1 149        -0.3674
      9 O3         52.1110   -6.5110   26.8110 O.3       1 149        -0.3840
     10 O4         51.1790   -9.1360   27.6780 O.3       1 149        -0.3860
     11 O5         53.0670   -9.1430   30.0370 O.3       1 149        -0.2665
     12 O6         49.4890   -9.0040   30.5930 O.3       1 149        -0.3920
     13 H1         53.4984   -8.6462   26.8336 H         1 149         0.0881
     14 H2         52.8086   -6.3879   28.7651 H         1 149         0.0673
     15 H3         50.4924   -7.4347   28.6351 H         1 149         0.0652
     16 H4         51.7640   -7.6588   30.6385 H         1 149         0.0700
     17 H5         51.1152   -9.8896   31.5219 H         1 149         0.0587
     18 H6         50.7748  -10.4478   29.8488 H         1 149         0.0587
     19 H7         55.0963   -6.7187   28.2186 H         1 149         0.2136
     20 H8         52.8144   -5.9652   26.4798 H         1 149         0.2102
     21 H9         50.4615   -9.6626   28.0100 H         1 149         0.2100
     22 H10        49.5071   -8.2503   31.1710 H         1 149         0.2095
@<TRIPOS>BOND
     1    1    2 1  
     2    1    7 2  
     3    1   11 1  
     4    2    3 1  
     5    2    8 1  
     6    3    4 1  
     7    3    9 1  
     8    4    5 1  
     9    4   10 1  
    10    5    6 1  
    11    5   11 1  
    12    6   12 1  
    13    2   13 1  
    14    3   14 1  
    15    4   15 1  
    16    5   16 1  
    17    6   17 1  
    18    6   18 1  
    19    8   19 1  
    20    9   20 1  
    21   10   21 1  
    22   12   22 1  
@<TRIPOS>SUBSTRUCTURE
     1 149         1

