### 
### Created by X-TOOL on Mon Sep 10 21:13:09 2018
### 

@<TRIPOS>MOLECULE
3t0b_ligand
   33    33     1     0     0
SMALL
GAST_HUCK


@<TRIPOS>ATOM
      1 C1        -14.8130  -27.5580  -26.1290 C.3       1 IPT         0.1332
      2 C2        -13.4780  -27.3620  -25.3940 C.3       1 IPT         0.1189
      3 O2        -13.5430  -26.2460  -24.5130 O.3       1 IPT        -0.3857
      4 C3        -12.2960  -27.1720  -26.3490 C.3       1 IPT         0.1126
      5 O3        -11.0720  -27.2180  -25.6120 O.3       1 IPT        -0.3865
      6 C4        -12.2850  -28.2570  -27.4240 C.3       1 IPT         0.1118
      7 O4        -11.9260  -29.5160  -26.8270 O.3       1 IPT        -0.3865
      8 C5        -13.6730  -28.3040  -28.0770 C.3       1 IPT         0.1115
      9 O5        -14.6490  -28.6080  -27.0850 O.3       1 IPT        -0.3553
     10 C6        -13.8300  -29.3120  -29.2030 C.3       1 IPT         0.0730
     11 O6        -12.7310  -29.2430  -30.1150 O.3       1 IPT        -0.3924
     12 S1        -16.0700  -28.0390  -24.9790 S.3       1 IPT        -0.1243
     13 C1'       -17.6840  -28.2500  -25.6890 C.3       1 IPT         0.0021
     14 C2'       -18.6780  -27.3260  -24.9880 C.3       1 IPT        -0.0535
     15 C3'       -17.7310  -28.0770  -27.2060 C.3       1 IPT        -0.0535
     16 H1        -15.1041  -26.6251  -26.6340 H         1 IPT         0.0740
     17 H2        -13.2907  -28.2662  -24.7963 H         1 IPT         0.0655
     18 H3        -12.7085  -26.1443  -24.0705 H         1 IPT         0.2100
     19 H4        -12.3868  -26.1898  -26.8359 H         1 IPT         0.0647
     20 H5        -10.9961  -28.0599  -25.1785 H         1 IPT         0.2100
     21 H6        -11.5384  -28.0048  -28.1915 H         1 IPT         0.0647
     22 H7        -12.5603  -29.7393  -26.1560 H         1 IPT         0.2100
     23 H8        -13.8788  -27.3050  -28.4889 H         1 IPT         0.0646
     24 H9        -14.7620  -29.0997  -29.7474 H         1 IPT         0.0584
     25 H10       -13.8779  -30.3240  -28.7747 H         1 IPT         0.0584
     26 H11       -12.6873  -28.3717  -30.4912 H         1 IPT         0.2095
     27 H12       -17.9924  -29.2853  -25.4818 H         1 IPT         0.0407
     28 H13       -19.6766  -27.4589  -25.4298 H         1 IPT         0.0240
     29 H14       -18.3580  -26.2810  -25.1127 H         1 IPT         0.0240
     30 H15       -18.7153  -27.5727  -23.9167 H         1 IPT         0.0240
     31 H16       -18.7621  -28.2237  -27.5600 H         1 IPT         0.0240
     32 H17       -17.0715  -28.8187  -27.6803 H         1 IPT         0.0240
     33 H18       -17.3933  -27.0640  -27.4702 H         1 IPT         0.0240
@<TRIPOS>BOND
     1    1    2 1  
     2    1    9 1  
     3    1   12 1  
     4    2    3 1  
     5    2    4 1  
     6    4    5 1  
     7    4    6 1  
     8    6    7 1  
     9    6    8 1  
    10    8    9 1  
    11    8   10 1  
    12   10   11 1  
    13   12   13 1  
    14   13   14 1  
    15   13   15 1  
    16    1   16 1  
    17    2   17 1  
    18    3   18 1  
    19    4   19 1  
    20    5   20 1  
    21    6   21 1  
    22    7   22 1  
    23    8   23 1  
    24   10   24 1  
    25   10   25 1  
    26   11   26 1  
    27   13   27 1  
    28   14   28 1  
    29   14   29 1  
    30   14   30 1  
    31   15   31 1  
    32   15   32 1  
    33   15   33 1  
@<TRIPOS>SUBSTRUCTURE
     1 IPT         1

