### 
### Created by X-TOOL on Mon Sep 10 21:13:09 2018
### 

@<TRIPOS>MOLECULE
3t0d_ligand
   22    22     1     0     0
SMALL
GAST_HUCK


@<TRIPOS>ATOM
      1 C1        -11.5520  -26.9130  -25.4670 C.2       1 149         0.2660
      2 C2        -10.5260  -27.9010  -24.9710 C.3       1 149         0.1832
      3 C3         -9.7290  -28.4670  -26.1350 C.3       1 149         0.1280
      4 C4        -10.6780  -28.8850  -27.2530 C.3       1 149         0.1183
      5 C5        -11.3760  -27.6600  -27.8460 C.3       1 149         0.1389
      6 C6        -12.5150  -28.0650  -28.7710 C.3       1 149         0.0774
      7 O1        -12.0940  -26.1480  -24.6940 O.2       1 149        -0.3674
      8 O2         -9.6450  -27.3100  -24.0060 O.3       1 149        -0.3674
      9 O3         -9.0010  -29.6080  -25.6760 O.3       1 149        -0.3840
     10 O4        -11.6510  -29.8100  -26.7460 O.3       1 149        -0.3860
     11 O5        -11.9660  -26.8100  -26.8580 O.3       1 149        -0.2665
     12 O6        -11.9970  -28.7430  -29.9140 O.3       1 149        -0.3920
     13 H1        -11.0597  -28.7296  -24.4826 H         1 149         0.0881
     14 H2         -9.0296  -27.7059  -26.5112 H         1 149         0.0673
     15 H3        -10.0967  -29.3790  -28.0455 H         1 149         0.0652
     16 H4        -10.6290  -27.0860  -28.4138 H         1 149         0.0700
     17 H5        -13.0579  -27.1652  -29.0961 H         1 149         0.0587
     18 H6        -13.2024  -28.7332  -28.2316 H         1 149         0.0587
     19 H7         -9.1528  -26.6085  -24.4161 H         1 149         0.2136
     20 H8         -8.4102  -29.3462  -24.9796 H         1 149         0.2102
     21 H9        -12.2212  -30.0874  -27.4533 H         1 149         0.2100
     22 H10       -11.4041  -28.1663  -30.3812 H         1 149         0.2095
@<TRIPOS>BOND
     1    1    2 1  
     2    1    7 2  
     3    1   11 1  
     4    2    3 1  
     5    2    8 1  
     6    3    4 1  
     7    3    9 1  
     8    4    5 1  
     9    4   10 1  
    10    5    6 1  
    11    5   11 1  
    12    6   12 1  
    13    2   13 1  
    14    3   14 1  
    15    4   15 1  
    16    5   16 1  
    17    6   17 1  
    18    6   18 1  
    19    8   19 1  
    20    9   20 1  
    21   10   21 1  
    22   12   22 1  
@<TRIPOS>SUBSTRUCTURE
     1 149         1

