### 
### Created by X-TOOL on Mon Sep 10 21:13:10 2018
### 

@<TRIPOS>MOLECULE
3t0t_ligand
   36    38     1     0     0
SMALL
GAST_HUCK


@<TRIPOS>ATOM
      1 CAA        27.1840    0.6450  -12.0500 C.3       1 I30        -0.0214
      2 OAB        29.1600   -1.6040  -15.9720 O.2       1 I30        -0.3404
      3 OAC        29.4630   -1.9300  -11.9330 O.3       1 I30        -0.3253
      4 BRAD       33.0090   -5.8460  -14.8230 Br        1 I30        -0.0585
      5 CAE        23.8950    4.1860  -17.0780 C.ar      1 I30        -0.0786
      6 CAF        23.4280    4.6900  -15.8690 C.ar      1 I30        -0.0766
      7 CAG        31.8420   -4.5620  -12.6560 C.ar      1 I30        -0.0563
      8 CAH        31.0400   -3.6760  -11.9800 C.ar      1 I30        -0.0238
      9 CAI        24.8310    3.1700  -17.0600 C.ar      1 I30        -0.0656
     10 CAJ        23.8900    4.1840  -14.6490 C.ar      1 I30        -0.0422
     11 CAK        31.0470   -3.6530  -14.7420 C.ar      1 I30        -0.0400
     12 NAL        27.7810   -0.1180  -14.3510 N.2       1 I30        -0.1470
     13 NAM        26.1780    1.6940  -15.5550 N.2       1 I30        -0.3162
     14 NAN        28.5650   -0.9420  -13.8940 N.2       1 I30        -0.0938
     15 NAO        25.4430    2.4760  -13.6670 N.pl3     1 I30        -0.2446
     16 CAP        27.0830    0.6870  -13.5770 C.3       1 I30         0.1543
     17 CAQ        29.2760   -1.7040  -14.7430 C.2       1 I30         0.2657
     18 CAR        31.8510   -4.5580  -14.0310 C.ar      1 I30         0.0074
     19 CAS        30.2420   -2.7810  -12.6580 C.ar      1 I30         0.1131
     20 CAT        30.2280   -2.7480  -14.0500 C.ar      1 I30         0.0878
     21 CAU        26.2620    1.5850  -14.2290 C.2       1 I30         0.1484
     22 CAV        25.3010    2.6560  -15.8500 C.ar      1 I30         0.0208
     23 CAW        24.8310    3.1550  -14.6410 C.ar      1 I30         0.0783
     24 H          26.8924   -0.3434  -11.6949 H         1 I30         0.0283
     25 H          28.2110    0.8521  -11.7492 H         1 I30         0.0283
     26 H          26.5202    1.3965  -11.6224 H         1 I30         0.0283
     27 H          28.9641   -1.3676  -12.5299 H         1 I30         0.2522
     28 H          23.5288    4.5857  -18.0237 H         1 I30         0.0516
     29 H          22.6901    5.4922  -15.8718 H         1 I30         0.0528
     30 H          32.4680   -5.2645  -12.1058 H         1 I30         0.0653
     31 H          31.0347   -3.6809  -10.8900 H         1 I30         0.0563
     32 H          25.2064    2.7656  -18.0000 H         1 I30         0.0535
     33 H          23.5163    4.5920  -13.7099 H         1 I30         0.0541
     34 H          31.0590   -3.6534  -15.8319 H         1 I30         0.0671
     35 H          25.3075    2.6148  -12.6656 H         1 I30         0.2323
     36 H          27.0617    0.4848  -12.5061 H         1 I30         0.0844
@<TRIPOS>BOND
     1   16    1 1  
     2   17    2 2  
     3   19    3 1  
     4   18    4 1  
     5    6    5 ar 
     6    9    5 ar 
     7   10    6 ar 
     8    7    8 ar 
     9   18    7 ar 
    10    8   19 ar 
    11   22    9 ar 
    12   23   10 ar 
    13   11   18 ar 
    14   20   11 ar 
    15   14   12 2  
    16   12   16 1  
    17   21   13 2  
    18   13   22 1  
    19   17   14 1  
    20   21   15 1  
    21   15   23 1  
    22   16   21 1  
    23   17   20 1  
    24   19   20 ar 
    25   22   23 ar 
    26    1   24 1  
    27    1   25 1  
    28    1   26 1  
    29    3   27 1  
    30    5   28 1  
    31    6   29 1  
    32    7   30 1  
    33    8   31 1  
    34    9   32 1  
    35   10   33 1  
    36   11   34 1  
    37   15   35 1  
    38   16   36 1  
@<TRIPOS>SUBSTRUCTURE
     1 I30         1

