### 
### Created by X-TOOL on Mon Sep 10 21:13:08 2018
### 

@<TRIPOS>MOLECULE
3t0w_ligand
   61    64     1     0     0
SMALL
GAST_HUCK


@<TRIPOS>ATOM
      1 C         -19.0910   -1.2140  -17.8120 C.ar      1 DIW        -0.0004
      2 C2        -18.7750   -1.1180  -15.4250 C.ar      1 DIW        -0.0274
      3 C3        -19.6120   -1.0940  -16.5290 C.ar      1 DIW         0.0574
      4 N7        -20.8710   -0.9490  -16.0780 N.2       1 DIW        -0.3314
      5 C8        -20.9150   -0.8840  -14.7350 C.2       1 DIW         0.0393
      6 C9        -19.5310   -0.9630  -14.1490 C.3       1 DIW         0.0060
      7 C10       -22.1870   -0.7180  -13.9180 C.3       1 DIW         0.1044
      8 C11       -22.1590   -0.6190  -12.4120 C.2       1 DIW         0.0929
      9 C12       -23.3600   -0.5440  -11.8210 C.2       1 DIW         0.1095
     10 C13       -23.5090   -0.4280  -10.3530 C.ar      1 DIW         0.1286
     11 C14       -24.7590   -0.4260   -9.7270 C.ar      1 DIW         0.0933
     12 C15       -24.8230   -0.3090   -8.3410 C.ar      1 DIW         0.1184
     13 N16       -23.7040   -0.1830   -7.6110 N.ar      1 DIW        -0.3015
     14 C17       -22.4990   -0.1750   -8.1920 C.ar      1 DIW         0.0874
     15 C18       -22.3690   -0.2990   -9.5710 C.ar      1 DIW         0.0709
     16 C19       -26.0600   -0.3140   -7.6980 C.ar      1 DIW         0.0157
     17 C20       -27.2320   -0.4380   -8.4340 C.ar      1 DIW        -0.0057
     18 C21       -27.1740   -0.5630   -9.8190 C.ar      1 DIW        -0.0073
     19 C22       -25.9370   -0.5580  -10.4600 C.ar      1 DIW         0.0049
     20 C23       -23.7960   -0.0570   -6.1500 C.3       1 DIW         0.0447
     21 C24       -23.9460   -1.4360   -5.5130 C.3       1 DIW        -0.0133
     22 C25       -23.8060   -1.3880   -3.9920 C.3       1 DIW         0.0328
     23 S26       -25.0910   -0.5860   -3.3060 S.o2      1 DIW        -0.1914
     24 C27       -19.2880   -2.1740  -13.2570 C.3       1 DIW        -0.0812
     25 C28       -19.1320    0.3340  -13.4570 C.3       1 DIW        -0.0812
     26 C29       -22.0830   -0.8870  -16.9310 C.3       1 DIW         0.0128
     27 C30       -17.7210   -1.3590  -17.9950 C.ar      1 DIW        -0.0150
     28 O30       -25.2990   -1.0880   -1.9270 O.co2     1 DIW        -0.4846
     29 C31       -16.8770   -1.3740  -16.8920 C.ar      1 DIW        -0.0160
     30 O31       -26.3160   -0.8230   -4.1000 O.co2     1 DIW        -0.4846
     31 C32       -17.4030   -1.2580  -15.6040 C.ar      1 DIW        -0.0295
     32 O32       -24.7930    0.8610   -3.2860 O.co2     1 DIW        -0.4846
     33 H         -19.7570   -1.1944  -18.6747 H         1 DIW         0.0905
     34 H         -22.7355   -1.6411  -14.1052 H         1 DIW         0.1148
     35 H         -22.5703    0.2526  -14.2327 H         1 DIW         0.1148
     36 H         -21.2281   -0.6092  -11.8451 H         1 DIW         0.1994
     37 H         -24.2557   -0.5693  -12.4416 H         1 DIW         0.1449
     38 H         -21.6062   -0.0698   -7.5756 H         1 DIW         0.1125
     39 H         -21.3819   -0.2950  -10.0334 H         1 DIW         0.1402
     40 H         -26.1080   -0.2202   -6.6131 H         1 DIW         0.1058
     41 H         -28.1968   -0.4374   -7.9267 H         1 DIW         0.0822
     42 H         -28.0913   -0.6642  -10.3990 H         1 DIW         0.0953
     43 H         -25.8901   -0.6582  -11.5444 H         1 DIW         0.0956
     44 H         -24.6652    0.5502   -5.8974 H         1 DIW         0.0557
     45 H         -22.8879    0.4140   -5.7737 H         1 DIW         0.0557
     46 H         -23.1579   -2.0784   -5.9059 H         1 DIW         0.0302
     47 H         -24.9410   -1.8125   -5.7501 H         1 DIW         0.0302
     48 H         -22.8867   -0.8594   -3.7401 H         1 DIW         0.0469
     49 H         -23.7832   -2.4081   -3.6087 H         1 DIW         0.0469
     50 H         -18.2293   -2.2306  -13.0038 H         1 DIW         0.0123
     51 H         -19.8763   -2.0756  -12.3447 H         1 DIW         0.0123
     52 H         -19.5851   -3.0792  -13.7866 H         1 DIW         0.0123
     53 H         -19.7190    0.4540  -12.5464 H         1 DIW         0.0123
     54 H         -18.0720    0.2989  -13.2055 H         1 DIW         0.0123
     55 H         -19.3205    1.1739  -14.1256 H         1 DIW         0.0123
     56 H         -22.7460   -1.7146  -16.6788 H         1 DIW         0.0441
     57 H         -22.5983    0.0581  -16.7598 H         1 DIW         0.0441
     58 H         -21.7922   -0.9591  -17.9790 H         1 DIW         0.0441
     59 H         -17.3106   -1.4605  -18.9997 H         1 DIW         0.0898
     60 H         -15.8010   -1.4766  -17.0324 H         1 DIW         0.0795
     61 H         -16.7391   -1.2771  -14.7397 H         1 DIW         0.0987
@<TRIPOS>BOND
     1    1    3 ar 
     2    1   27 ar 
     3    3    2 ar 
     4    2    6 1  
     5    2   31 ar 
     6    3    4 1  
     7    4    5 2  
     8    4   26 1  
     9    5    6 1  
    10    5    7 1  
    11    6   24 1  
    12    6   25 1  
    13    7    8 1  
    14    8    9 2  
    15    9   10 1  
    16   10   11 ar 
    17   10   15 ar 
    18   11   12 ar 
    19   11   19 ar 
    20   12   13 ar 
    21   12   16 ar 
    22   13   14 ar 
    23   13   20 1  
    24   14   15 ar 
    25   16   17 ar 
    26   17   18 ar 
    27   18   19 ar 
    28   20   21 1  
    29   21   22 1  
    30   22   23 1  
    31   23   28 ar 
    32   23   30 ar 
    33   23   32 ar 
    34   27   29 ar 
    35   29   31 ar 
    36    1   33 1  
    37    7   34 1  
    38    7   35 1  
    39    8   36 1  
    40    9   37 1  
    41   14   38 1  
    42   15   39 1  
    43   16   40 1  
    44   17   41 1  
    45   18   42 1  
    46   19   43 1  
    47   20   44 1  
    48   20   45 1  
    49   21   46 1  
    50   21   47 1  
    51   22   48 1  
    52   22   49 1  
    53   24   50 1  
    54   24   51 1  
    55   24   52 1  
    56   25   53 1  
    57   25   54 1  
    58   25   55 1  
    59   26   56 1  
    60   26   57 1  
    61   26   58 1  
    62   27   59 1  
    63   29   60 1  
    64   31   61 1  
@<TRIPOS>SUBSTRUCTURE
     1 DIW         1

