### 
### Created by X-TOOL on Mon Sep 10 21:13:11 2018
### 

@<TRIPOS>MOLECULE
3t0x_ligand
   61    64     1     0     0
SMALL
GAST_HUCK


@<TRIPOS>ATOM
      1 C          20.6780   -2.8900   -8.6810 C.ar      1 DIW         0.0546
      2 C2         22.9360   -2.7410   -9.4870 C.ar      1 DIW         0.0346
      3 C3         22.0430   -2.7250   -8.4300 C.ar      1 DIW         0.1531
      4 N7         22.7530   -2.5440   -7.2810 N.2       1 DIW        -0.2586
      5 C8         24.0670   -2.4440   -7.5680 C.2       1 DIW         0.1263
      6 C9         24.3520   -2.5420   -9.0310 C.3       1 DIW         0.0461
      7 C10        25.1130   -2.2260   -6.5090 C.2       1 DIW         0.1171
      8 C11        26.4020   -2.1360   -6.8420 C.2       1 DIW         0.1008
      9 C12        27.1670   -1.9260   -5.7450 C.3       1 DIW         0.1100
     10 C13        28.6580   -1.8210   -5.6620 C.ar      1 DIW         0.0569
     11 C14        29.3110   -1.7270   -4.4220 C.ar      1 DIW         0.0408
     12 C15        30.7100   -1.6800   -4.3550 C.ar      1 DIW         0.0508
     13 N16        31.4510   -1.7220   -5.4860 N.ar      1 DIW        -0.3525
     14 C17        30.8360   -1.8530   -6.6740 C.ar      1 DIW         0.0123
     15 C18        29.4500   -1.9070   -6.7960 C.ar      1 DIW         0.0024
     16 C19        31.3300   -1.5580   -3.1120 C.ar      1 DIW        -0.0269
     17 C20        30.5880   -1.4800   -1.9360 C.ar      1 DIW        -0.0429
     18 C21        29.1990   -1.5330   -2.0010 C.ar      1 DIW        -0.0429
     19 C22        28.5710   -1.6520   -3.2420 C.ar      1 DIW        -0.0315
     20 C23        32.9310   -1.7200   -5.4720 C.3       1 DIW         0.0140
     21 C24        33.6480   -0.5740   -4.7680 C.3       1 DIW        -0.0220
     22 C25        34.7900   -1.0630   -3.8620 C.3       1 DIW         0.0320
     23 S26        36.1950   -1.4810   -4.6710 S.o2      1 DIW        -0.1915
     24 C27        25.3080   -3.6800   -9.3840 C.3       1 DIW        -0.0731
     25 C28        24.8500   -1.1730   -9.5160 C.3       1 DIW        -0.0731
     26 C29        22.1680   -2.4660   -5.9160 C.3       1 DIW         0.0533
     27 C30        20.1930   -3.0700   -9.9800 C.ar      1 DIW         0.0271
     28 O30        37.1570   -2.0320   -3.6990 O.co2     1 DIW        -0.4846
     29 C31        21.0940   -3.0840  -11.0440 C.ar      1 DIW         0.0232
     30 O31        36.8000   -0.2980   -5.3190 O.co2     1 DIW        -0.4846
     31 C32        22.4640   -2.9200  -10.7990 C.ar      1 DIW         0.0138
     32 O32        35.9400   -2.5080   -5.6970 O.co2     1 DIW        -0.4846
     33 H1         19.9807   -2.8782   -7.8511 H         1 DIW         0.1200
     34 H2         24.8165   -2.1412   -5.4646 H         1 DIW         0.1526
     35 H3         26.7861   -2.2200   -7.8575 H         1 DIW         0.2036
     36 H4         26.9088   -2.7510   -5.0648 H         1 DIW         0.1188
     37 H5         26.7986   -0.9774   -5.3274 H         1 DIW         0.1188
     38 H6         31.4417   -1.9191   -7.5706 H         1 DIW         0.0903
     39 H7         28.9929   -2.0157   -7.7729 H         1 DIW         0.0816
     40 H8         32.4122   -1.5231   -3.0599 H         1 DIW         0.0749
     41 H9         31.0876   -1.3790   -0.9793 H         1 DIW         0.0700
     42 H10        28.6083   -1.4822   -1.0935 H         1 DIW         0.0715
     43 H11        27.4886   -1.6868   -3.2895 H         1 DIW         0.0746
     44 H12        33.2661   -1.7184   -6.5197 H         1 DIW         0.0447
     45 H13        33.2528   -2.6526   -4.9855 H         1 DIW         0.0447
     46 H14        32.9190   -0.0266   -4.1525 H         1 DIW         0.0293
     47 H15        34.0659    0.1014   -5.5290 H         1 DIW         0.0293
     48 H16        34.4359   -1.9469   -3.3113 H         1 DIW         0.0469
     49 H17        35.0306   -0.2596   -3.1502 H         1 DIW         0.0469
     50 H18        25.4741   -3.6954  -10.4713 H         1 DIW         0.0134
     51 H19        24.8708   -4.6381   -9.0663 H         1 DIW         0.0134
     52 H20        26.2675   -3.5260   -8.8687 H         1 DIW         0.0134
     53 H21        24.1229   -0.3973   -9.2337 H         1 DIW         0.0134
     54 H22        24.9617   -1.1900  -10.6102 H         1 DIW         0.0134
     55 H23        25.8220   -0.9508   -9.0515 H         1 DIW         0.0134
     56 H24        21.0756   -2.5789   -5.9783 H         1 DIW         0.0576
     57 H25        22.4108   -1.4911   -5.4681 H         1 DIW         0.0576
     58 H26        22.5847   -3.2703   -5.2919 H         1 DIW         0.0576
     59 H27        19.1312   -3.1969  -10.1574 H         1 DIW         0.1022
     60 H28        20.7358   -3.2214  -12.0578 H         1 DIW         0.1142
     61 H29        23.1642   -2.9312  -11.6264 H         1 DIW         0.1111
@<TRIPOS>BOND
     1    1    3 ar 
     2    1   27 ar 
     3    3    2 ar 
     4    2    6 1  
     5    2   31 ar 
     6    3    4 1  
     7    4    5 2  
     8    4   26 1  
     9    5    6 1  
    10    5    7 1  
    11    6   24 1  
    12    6   25 1  
    13    7    8 2  
    14    8    9 1  
    15    9   10 1  
    16   10   11 ar 
    17   10   15 ar 
    18   11   12 ar 
    19   11   19 ar 
    20   12   13 ar 
    21   12   16 ar 
    22   13   14 ar 
    23   13   20 1  
    24   14   15 ar 
    25   16   17 ar 
    26   17   18 ar 
    27   18   19 ar 
    28   20   21 1  
    29   21   22 1  
    30   22   23 1  
    31   23   28 ar 
    32   23   30 ar 
    33   23   32 ar 
    34   27   29 ar 
    35   29   31 ar 
    36    1   33 1  
    37    7   34 1  
    38    8   35 1  
    39    9   36 1  
    40    9   37 1  
    41   14   38 1  
    42   15   39 1  
    43   16   40 1  
    44   17   41 1  
    45   18   42 1  
    46   19   43 1  
    47   20   44 1  
    48   20   45 1  
    49   21   46 1  
    50   21   47 1  
    51   22   48 1  
    52   22   49 1  
    53   24   50 1  
    54   24   51 1  
    55   24   52 1  
    56   25   53 1  
    57   25   54 1  
    58   25   55 1  
    59   26   56 1  
    60   26   57 1  
    61   26   58 1  
    62   27   59 1  
    63   29   60 1  
    64   31   61 1  
@<TRIPOS>SUBSTRUCTURE
     1 DIW         1

