### 
### Created by X-TOOL on Mon Sep 10 21:13:07 2018
### 

@<TRIPOS>MOLECULE
3t19_ligand
   46    50     1     0     0
SMALL
GAST_HUCK


@<TRIPOS>ATOM
      1 C          11.3870   12.3610   15.3650 C.ar      1 5MA         0.0626
      2 N           7.3070   12.5430   15.1800 N.pl3     1 5MA        -0.1390
      3 O          11.1930   11.9960   17.6970 O.3       1 5MA        -0.2568
      4 C1         10.8630   12.6530   14.0860 C.ar      1 5MA        -0.0651
      5 CL1        13.0790   12.2250   15.5890 Cl        1 5MA        -0.0883
      6 C2          9.4630   12.6800   13.8960 C.ar      1 5MA        -0.0423
      7 CL2        10.6900   16.4660   19.9800 Cl        1 5MA        -0.0749
      8 C3          8.6530   12.5210   15.0010 C.ar      1 5MA         0.1125
      9 CL3        10.1380   10.3050   19.7970 Cl        1 5MA        -0.0839
     10 C4          9.1410   12.2940   16.2680 C.ar      1 5MA         0.1140
     11 C5         10.5510   12.2230   16.4720 C.ar      1 5MA         0.1455
     12 C6         10.9250   14.0770   18.8440 C.ar      1 5MA        -0.0205
     13 C7         10.7920   12.7110   18.8120 C.ar      1 5MA         0.1257
     14 C8         10.2640   12.0120   19.9180 C.ar      1 5MA         0.0784
     15 C9          9.8560   12.6620   21.1000 C.ar      1 5MA         0.0081
     16 C10         9.9930   14.0700   21.1620 C.ar      1 5MA        -0.0511
     17 C11        10.5190   14.7490   20.0180 C.ar      1 5MA         0.0269
     18 N12         6.9790   12.3500   16.5090 N.2       1 5MA        -0.0769
     19 N13         8.1080   12.1730   17.1640 N.2       1 5MA        -0.2013
     20 C14         6.2360   12.6060   14.1440 C.3       1 5MA         0.1715
     21 C15         6.2490   11.0760   13.8690 C.2       1 5MA         0.1811
     22 N16         6.6750   10.6380   12.6720 N.pl3     1 5MA        -0.2521
     23 N17         6.6550    9.2840   12.7590 N.2       1 5MA        -0.3797
     24 C18         6.2670    8.7940   13.9660 C.ar      1 5MA         0.0383
     25 C19         5.9720    9.9290   14.7460 C.ar      1 5MA         0.0803
     26 N20         6.1700    7.4620   14.3640 N.ar      1 5MA        -0.2979
     27 C21         5.7460    7.2680   15.6980 C.ar      1 5MA         0.0112
     28 C22         5.3980    8.3070   16.6000 C.ar      1 5MA        -0.0320
     29 C23         5.5220    9.6450   16.1100 C.ar      1 5MA        -0.0221
     30 C24         9.2650   11.8870   22.2500 C.3       1 5MA        -0.0033
     31 N26        10.1720   11.2490   23.2260 N.4       1 5MA         0.2308
     32 H          11.5340   12.8561   13.2514 H         1 5MA         0.0557
     33 H           9.0351   12.8225   12.9037 H         1 5MA         0.0464
     34 H          11.3300   14.6241   17.9927 H         1 5MA         0.0503
     35 H           9.7055   14.6215   22.0571 H         1 5MA         0.0478
     36 H           6.3940   13.2719   13.2956 H         1 5MA         0.1000
     37 H           5.2861   13.0589   14.4280 H         1 5MA         0.1000
     38 H           6.9538   11.2027   11.8696 H         1 5MA         0.2723
     39 H           5.6813    6.2425   16.0618 H         1 5MA         0.0827
     40 H           5.0544    8.0964   17.6128 H         1 5MA         0.0713
     41 H           5.2746   10.4762   16.7703 H         1 5MA         0.0755
     42 H           8.7277   11.0607   21.7846 H         1 5MA         0.0979
     43 H           8.7058   12.6237   22.8267 H         1 5MA         0.0979
     44 H           9.6207   10.7676   23.9364 H         1 5MA         0.2008
     45 H          10.7694   10.5770   22.7444 H         1 5MA         0.2008
     46 H          10.7500   11.9634   23.6687 H         1 5MA         0.2008
@<TRIPOS>BOND
     1    1    4 ar 
     2    1    5 1  
     3   11    1 ar 
     4    8    2 1  
     5    2   18 1  
     6    2   20 1  
     7    3   11 1  
     8   13    3 1  
     9    4    6 ar 
    10    8    6 ar 
    11   17    7 1  
    12   10    8 ar 
    13   14    9 1  
    14   11   10 ar 
    15   10   19 1  
    16   13   12 ar 
    17   12   17 ar 
    18   13   14 ar 
    19   14   15 ar 
    20   15   16 ar 
    21   15   30 1  
    22   16   17 ar 
    23   18   19 2  
    24   20   21 1  
    25   21   22 1  
    26   21   25 2  
    27   22   23 1  
    28   23   24 2  
    29   24   25 ar 
    30   24   26 ar 
    31   25   29 ar 
    32   26   27 ar 
    33   27   28 ar 
    34   28   29 ar 
    35   30   31 1  
    36    4   32 1  
    37    6   33 1  
    38   12   34 1  
    39   16   35 1  
    40   20   36 1  
    41   20   37 1  
    42   22   38 1  
    43   27   39 1  
    44   28   40 1  
    45   29   41 1  
    46   30   42 1  
    47   30   43 1  
    48   31   44 1  
    49   31   45 1  
    50   31   46 1  
@<TRIPOS>SUBSTRUCTURE
     1 5MA         1

