### 
### Created by X-TOOL on Mon Sep 10 21:13:07 2018
### 

@<TRIPOS>MOLECULE
3t1a_ligand
   46    50     1     0     0
SMALL
GAST_HUCK


@<TRIPOS>ATOM
      1 C          11.4080   12.3660   15.5530 C.ar      1 5MA         0.0626
      2 N           7.2630   12.6130   15.4030 N.pl3     1 5MA        -0.1390
      3 O          11.2640   12.1160   17.8480 O.3       1 5MA        -0.2568
      4 C1         10.8530   12.6120   14.2850 C.ar      1 5MA        -0.0651
      5 CL1        13.0820   12.2060   15.7200 Cl        1 5MA        -0.0883
      6 C2          9.4610   12.6660   14.1140 C.ar      1 5MA        -0.0423
      7 CL2        10.7730   16.5220   20.1850 Cl        1 5MA        -0.0749
      8 C3          8.6380   12.5630   15.2060 C.ar      1 5MA         0.1125
      9 CL3        10.0370   10.4940   19.9580 Cl        1 5MA        -0.0839
     10 C4          9.1530   12.3540   16.4660 C.ar      1 5MA         0.1140
     11 C5         10.6050   12.2760   16.6450 C.ar      1 5MA         0.1455
     12 C6         10.9570   14.1900   19.0090 C.ar      1 5MA        -0.0205
     13 C7         10.8060   12.8470   18.9610 C.ar      1 5MA         0.1257
     14 C8         10.2340   12.1840   20.0430 C.ar      1 5MA         0.0784
     15 C9          9.8010   12.8410   21.2080 C.ar      1 5MA         0.0081
     16 C10         9.9730   14.2300   21.2680 C.ar      1 5MA        -0.0511
     17 C11        10.5600   14.8460   20.1640 C.ar      1 5MA         0.0269
     18 N12         6.9380   12.4490   16.7120 N.2       1 5MA        -0.0769
     19 N13         8.1230   12.2960   17.3600 N.2       1 5MA        -0.2013
     20 C14         6.1970   12.6620   14.4410 C.3       1 5MA         0.1715
     21 C15         6.2050   11.1540   14.0800 C.2       1 5MA         0.1811
     22 N16         6.5770   10.7610   12.8400 N.pl3     1 5MA        -0.2521
     23 N17         6.5230    9.4050   12.8480 N.2       1 5MA        -0.3797
     24 C18         6.1700    8.8790   14.0340 C.ar      1 5MA         0.0383
     25 C19         5.9430    9.9850   14.8960 C.ar      1 5MA         0.0803
     26 N20         6.0760    7.5410   14.3510 N.ar      1 5MA        -0.2979
     27 C21         5.7170    7.3070   15.6800 C.ar      1 5MA         0.0112
     28 C22         5.4210    8.2970   16.6630 C.ar      1 5MA        -0.0320
     29 C23         5.5570    9.6550   16.2430 C.ar      1 5MA        -0.0221
     30 C24         9.1700   12.1090   22.3640 C.3       1 5MA        -0.0033
     31 N26        10.0950   11.1680   22.9820 N.4       1 5MA         0.2308
     32 H1         11.5055   12.7612   13.4324 H         1 5MA         0.0557
     33 H2          9.0384   12.7886   13.1233 H         1 5MA         0.0464
     34 H3         11.3751   14.7361   18.1712 H         1 5MA         0.0503
     35 H4          9.6629   14.8011   22.1356 H         1 5MA         0.0478
     36 H5          6.4358   13.3029   13.5795 H         1 5MA         0.1000
     37 H6          5.2434   12.9842   14.8846 H         1 5MA         0.1000
     38 H7          6.8460   11.3668   12.0516 H         1 5MA         0.2723
     39 H8          5.6575    6.2716   15.9954 H         1 5MA         0.0827
     40 H9          5.1115    8.0345   17.6682 H         1 5MA         0.0713
     41 H10         5.3660   10.4525   16.9519 H         1 5MA         0.0755
     42 H11         8.2921   11.5562   21.9982 H         1 5MA         0.0979
     43 H12         8.8526   12.8432   23.1191 H         1 5MA         0.0979
     44 H13         9.6365   10.7003   23.7482 H         1 5MA         0.2008
     45 H14        10.9009   11.6660   23.3262 H         1 5MA         0.2008
     46 H15        10.3874   10.4866   22.2991 H         1 5MA         0.2008
@<TRIPOS>BOND
     1    1    4 ar 
     2    1    5 1  
     3   11    1 ar 
     4    8    2 1  
     5    2   18 1  
     6    2   20 1  
     7    3   11 1  
     8   13    3 1  
     9    4    6 ar 
    10    8    6 ar 
    11   17    7 1  
    12   10    8 ar 
    13   14    9 1  
    14   11   10 ar 
    15   10   19 1  
    16   13   12 ar 
    17   12   17 ar 
    18   13   14 ar 
    19   14   15 ar 
    20   15   16 ar 
    21   15   30 1  
    22   16   17 ar 
    23   18   19 2  
    24   20   21 1  
    25   21   22 1  
    26   21   25 2  
    27   22   23 1  
    28   23   24 2  
    29   24   25 ar 
    30   24   26 ar 
    31   25   29 ar 
    32   26   27 ar 
    33   27   28 ar 
    34   28   29 ar 
    35   30   31 1  
    36    4   32 1  
    37    6   33 1  
    38   12   34 1  
    39   16   35 1  
    40   20   36 1  
    41   20   37 1  
    42   22   38 1  
    43   27   39 1  
    44   28   40 1  
    45   29   41 1  
    46   30   42 1  
    47   30   43 1  
    48   31   44 1  
    49   31   45 1  
    50   31   46 1  
@<TRIPOS>SUBSTRUCTURE
     1 5MA         1

