### 
### Created by X-TOOL on Fri Sep 26 17:34:50 2014
### 

@<TRIPOS>MOLECULE
3t1l_ligand
   47    48     1     0     0
SMALL
GAST_HUCK


@<TRIPOS>ATOM
      1 C1         20.5750   -8.7620   -1.5340 C.3       1 MQT         0.1927
      2 O1         21.5150   -9.8170   -1.3540 O.3       1 MQT        -0.3517
      3 C2         19.1550   -9.2830   -1.3740 C.3       1 MQT         0.1707
      4 O2         19.0100   -9.8730   -0.0790 O.3       1 MQT        -0.2655
      5 C3         18.1500   -8.1480   -1.5300 C.3       1 MQT         0.1498
      6 O3         16.8560   -8.6510   -1.1850 O.3       1 MQT        -0.2693
      7 C4         18.5060   -6.9590   -0.6360 C.3       1 MQT         0.1168
      8 O4         18.1620   -7.2740    0.7170 O.3       1 MQT        -0.3861
      9 C5         19.9900   -6.5950   -0.7610 C.3       1 MQT         0.1134
     10 O5         20.8010   -7.7520   -0.5550 O.3       1 MQT        -0.3402
     11 C6         20.4420   -5.5190    0.2280 C.3       1 MQT         0.0730
     12 O6         21.8600   -5.3220    0.0940 O.3       1 MQT        -0.3924
     13 OAA        15.8780   -7.3990   -2.8880 O.2       1 MQT        -0.3602
     14 CAB        15.7420   -8.2700   -2.0440 C.2       1 MQT         0.2584
     15 CAC        14.4220   -8.9660   -1.8660 C.ar      1 MQT         0.0549
     16 CAD        14.3730  -10.2320   -1.2830 C.ar      1 MQT        -0.0472
     17 CAE        13.1490  -10.8770   -1.1130 C.ar      1 MQT        -0.0544
     18 CAF        11.9730  -10.2600   -1.5250 C.ar      1 MQT        -0.0411
     19 CAG        10.6520  -10.9590   -1.3430 C.3       1 MQT        -0.0288
     20 CAH        12.0200   -8.9960   -2.1050 C.ar      1 MQT        -0.0544
     21 CAI        13.2410   -8.3500   -2.2750 C.ar      1 MQT        -0.0472
     22 CAN        18.4360  -11.2120   -0.0370 C.2       1 MQT         0.2311
     23 OAO        18.1700  -11.8890   -1.1520 O.2       1 MQT        -0.3707
     24 CAP        18.1770  -11.7650    1.1360 C.3       1 MQT         0.0372
     25 CAS        22.8310   -9.4080   -1.7260 C.3       1 MQT         0.0396
     26 H1         20.6971   -8.3350   -2.5404 H         1 MQT         0.0941
     27 H2         18.9612  -10.0438   -2.1445 H         1 MQT         0.0732
     28 H3         18.1445   -7.8129   -2.5777 H         1 MQT         0.0706
     29 H4         17.9121   -6.0900   -0.9555 H         1 MQT         0.0650
     30 H5         18.6475   -8.0416    0.9955 H         1 MQT         0.2100
     31 H6         20.1590   -6.2181   -1.7805 H         1 MQT         0.0647
     32 H7         20.2103   -5.8411    1.2539 H         1 MQT         0.0584
     33 H8         19.9173   -4.5766    0.0122 H         1 MQT         0.0584
     34 H9         22.3108   -6.1373    0.2800 H         1 MQT         0.2095
     35 H10        15.2885  -10.7153   -0.9615 H         1 MQT         0.0655
     36 H11        13.1139  -11.8608   -0.6591 H         1 MQT         0.0570
     37 H12         9.8430  -10.3196   -1.7260 H         1 MQT         0.0401
     38 H13        10.4868  -11.1583   -0.2739 H         1 MQT         0.0401
     39 H14        10.6609  -11.9097   -1.8962 H         1 MQT         0.0401
     40 H15        11.1036   -8.5134   -2.4251 H         1 MQT         0.0570
     41 H16        13.2733   -7.3651   -2.7267 H         1 MQT         0.0655
     42 H17        17.7508  -12.7674    0.9827 H         1 MQT         0.0483
     43 H18        17.4568  -11.1404    1.6848 H         1 MQT         0.0483
     44 H19        19.1079  -11.8472    1.7162 H         1 MQT         0.0483
     45 H20        23.5308  -10.2432   -1.5755 H         1 MQT         0.0525
     46 H21        23.1394   -8.5547   -1.1040 H         1 MQT         0.0525
     47 H22        22.8370   -9.1109   -2.7851 H         1 MQT         0.0525
@<TRIPOS>BOND
     1    1    2 1  
     2    1    3 1  
     3    1   10 1  
     4    2   25 1  
     5    3    4 1  
     6    3    5 1  
     7    4   22 1  
     8    5    6 1  
     9    5    7 1  
    10    6   14 1  
    11    7    8 1  
    12    7    9 1  
    13    9   10 1  
    14    9   11 1  
    15   11   12 1  
    16   14   13 2  
    17   14   15 1  
    18   15   16 ar 
    19   15   21 ar 
    20   16   17 ar 
    21   17   18 ar 
    22   18   19 1  
    23   18   20 ar 
    24   20   21 ar 
    25   22   23 2  
    26   22   24 1  
    27    1   26 1  
    28    3   27 1  
    29    5   28 1  
    30    7   29 1  
    31    8   30 1  
    32    9   31 1  
    33   11   32 1  
    34   11   33 1  
    35   12   34 1  
    36   16   35 1  
    37   17   36 1  
    38   19   37 1  
    39   19   38 1  
    40   19   39 1  
    41   20   40 1  
    42   21   41 1  
    43   24   42 1  
    44   24   43 1  
    45   24   44 1  
    46   25   45 1  
    47   25   46 1  
    48   25   47 1  
@<TRIPOS>SUBSTRUCTURE
     1 MQT         1

