### 
### Created by X-TOOL on Mon Sep 10 21:13:05 2018
### 

@<TRIPOS>MOLECULE
3t1m_ligand
   58    60     1     0     0
SMALL
GAST_HUCK


@<TRIPOS>ATOM
      1 C1         20.2030   -8.7660   -1.5000 C.3       1 DQT         0.1919
      2 O1         21.0260   -9.9140   -1.2970 O.3       1 DQT        -0.3517
      3 C2         18.7260   -9.1380   -1.3820 C.3       1 DQT         0.1620
      4 O2         18.5920   -9.8760   -0.1750 O.3       1 DQT        -0.2676
      5 C3         17.7870   -7.9360   -1.3150 C.3       1 DQT         0.1048
      6 N3         16.5370   -8.2950   -0.6750 N.am      1 DQT        -0.2785
      7 C4         18.3630   -6.8080   -0.4590 C.3       1 DQT         0.1092
      8 O4         18.1180   -7.1120    0.9200 O.3       1 DQT        -0.3868
      9 C5         19.8560   -6.5790   -0.6850 C.3       1 DQT         0.1128
     10 O5         20.5660   -7.8050   -0.5100 O.3       1 DQT        -0.3402
     11 C6         20.4300   -5.5470    0.2810 C.3       1 DQT         0.0730
     12 O6         21.8210   -5.3590    0.0280 O.3       1 DQT        -0.3924
     13 CA1        18.2100  -11.2480   -0.2750 C.2       1 DQT         0.2585
     14 OA1        18.2850  -11.8620   -1.3330 O.2       1 DQT        -0.3602
     15 CA2        17.7230  -11.9000    0.9830 C.ar      1 DQT         0.0549
     16 CA3        17.4350  -13.2640    1.0300 C.ar      1 DQT        -0.0472
     17 CA4        16.9860  -13.8340    2.2190 C.ar      1 DQT        -0.0544
     18 CA5        16.8280  -13.0430    3.3550 C.ar      1 DQT        -0.0411
     19 CA6        17.1160  -11.6860    3.3050 C.ar      1 DQT        -0.0544
     20 CA7        17.5650  -11.1150    2.1230 C.ar      1 DQT        -0.0472
     21 CA8        16.3440  -13.6410    4.6470 C.3       1 DQT        -0.0288
     22 CB1        15.3180   -8.2210   -1.2150 C.2       1 DQT         0.2003
     23 OB1        15.1440   -7.9690   -2.3990 O.2       1 DQT        -0.3878
     24 CB2        14.1160   -8.3930   -0.3130 C.ar      1 DQT         0.0427
     25 CB3        14.2060   -8.0930    1.0510 C.ar      1 DQT        -0.0485
     26 CB4        13.1040   -8.2380    1.8860 C.ar      1 DQT        -0.0547
     27 CB5        11.8920   -8.6790    1.3730 C.ar      1 DQT        -0.0414
     28 CB6        11.7860   -8.9760    0.0150 C.ar      1 DQT        -0.0547
     29 CB7        12.8920   -8.8310   -0.8250 C.ar      1 DQT        -0.0485
     30 CB8        10.7100   -8.8250    2.2960 C.3       1 DQT        -0.0289
     31 CME        22.3850   -9.6440   -1.6390 C.3       1 DQT         0.0396
     32 H1         20.3876   -8.3509   -2.5018 H         1 DQT         0.0941
     33 H2         18.4418   -9.7609   -2.2429 H         1 DQT         0.0723
     34 H3         17.6002   -7.5739   -2.3367 H         1 DQT         0.0613
     35 H4         16.5931   -8.6318    0.2649 H         1 DQT         0.1848
     36 H5         17.8356   -5.8779   -0.7171 H         1 DQT         0.0644
     37 H6         17.1821   -7.1844    1.0657 H         1 DQT         0.2100
     38 H7         20.0020   -6.2198   -1.7144 H         1 DQT         0.0647
     39 H8         20.2926   -5.8995    1.3139 H         1 DQT         0.0584
     40 H9         19.9034   -4.5906    0.1468 H         1 DQT         0.0584
     41 H10        22.2773   -6.1840    0.1450 H         1 DQT         0.2095
     42 H11        17.5600  -13.8777    0.1452 H         1 DQT         0.0655
     43 H12        16.7595  -14.8933    2.2605 H         1 DQT         0.0570
     44 H13        16.9901  -11.0723    4.1897 H         1 DQT         0.0570
     45 H14        17.7933  -10.0559    2.0864 H         1 DQT         0.0655
     46 H15        16.1656  -14.7176    4.5086 H         1 DQT         0.0401
     47 H16        15.4074  -13.1502    4.9501 H         1 DQT         0.0401
     48 H17        17.1049  -13.4928    5.4274 H         1 DQT         0.0401
     49 H18        15.1464   -7.7433    1.4614 H         1 DQT         0.0652
     50 H19        13.1915   -8.0059    2.9412 H         1 DQT         0.0570
     51 H20        10.8416   -9.3207   -0.3903 H         1 DQT         0.0570
     52 H21        12.8004   -9.0596   -1.8807 H         1 DQT         0.0652
     53 H22        11.0051   -8.5419    3.3172 H         1 DQT         0.0401
     54 H23        10.3669   -9.8701    2.2899 H         1 DQT         0.0401
     55 H24         9.8952   -8.1695    1.9548 H         1 DQT         0.0401
     56 H25        22.9914  -10.5464   -1.4717 H         1 DQT         0.0525
     57 H26        22.7654   -8.8250   -1.0109 H         1 DQT         0.0525
     58 H27        22.4457   -9.3526   -2.6979 H         1 DQT         0.0525
@<TRIPOS>BOND
     1    1    2 1  
     2    1    3 1  
     3    1   10 1  
     4    2   31 1  
     5    3    4 1  
     6    3    5 1  
     7    4   13 1  
     8    5    6 1  
     9    5    7 1  
    10    6   22 am 
    11    7    8 1  
    12    7    9 1  
    13    9   10 1  
    14    9   11 1  
    15   11   12 1  
    16   13   14 2  
    17   13   15 1  
    18   15   16 ar 
    19   15   20 ar 
    20   16   17 ar 
    21   17   18 ar 
    22   18   19 ar 
    23   18   21 1  
    24   19   20 ar 
    25   22   23 2  
    26   22   24 1  
    27   24   25 ar 
    28   24   29 ar 
    29   25   26 ar 
    30   26   27 ar 
    31   27   28 ar 
    32   27   30 1  
    33   28   29 ar 
    34    1   32 1  
    35    3   33 1  
    36    5   34 1  
    37    6   35 1  
    38    7   36 1  
    39    8   37 1  
    40    9   38 1  
    41   11   39 1  
    42   11   40 1  
    43   12   41 1  
    44   16   42 1  
    45   17   43 1  
    46   19   44 1  
    47   20   45 1  
    48   21   46 1  
    49   21   47 1  
    50   21   48 1  
    51   25   49 1  
    52   26   50 1  
    53   28   51 1  
    54   29   52 1  
    55   30   53 1  
    56   30   54 1  
    57   30   55 1  
    58   31   56 1  
    59   31   57 1  
    60   31   58 1  
@<TRIPOS>SUBSTRUCTURE
     1 DQT         1

