### 
### Created by X-TOOL on Mon Sep 10 21:13:09 2018
### 

@<TRIPOS>MOLECULE
3t2p_ligand
   33    33     1     0     0
SMALL
GAST_HUCK


@<TRIPOS>ATOM
      1 C1        -14.2450  -28.2200  -26.3620 C.3       1 IPT         0.1332
      2 C2        -12.9980  -27.9940  -25.5100 C.3       1 IPT         0.1189
      3 O2        -13.1910  -26.8410  -24.6820 O.3       1 IPT        -0.3857
      4 C3        -11.7560  -27.7990  -26.3900 C.3       1 IPT         0.1126
      5 O3        -10.5790  -27.8620  -25.5740 O.3       1 IPT        -0.3865
      6 C4        -11.6490  -28.8220  -27.5240 C.3       1 IPT         0.1118
      7 O4        -11.2280  -30.0880  -26.9940 O.3       1 IPT        -0.3865
      8 C5        -13.0010  -28.9390  -28.2340 C.3       1 IPT         0.1115
      9 O5        -13.9870  -29.2940  -27.2670 O.3       1 IPT        -0.3553
     10 C6        -13.0800  -29.9470  -29.3780 C.3       1 IPT         0.0730
     11 O6        -11.9180  -29.9000  -30.2200 O.3       1 IPT        -0.3924
     12 S1        -15.6310  -28.6300  -25.3530 S.3       1 IPT        -0.1243
     13 C1'       -17.0790  -28.2580  -26.3050 C.3       1 IPT         0.0021
     14 C2'       -17.2620  -29.2510  -27.4540 C.3       1 IPT        -0.0535
     15 C3'       -18.3000  -28.2780  -25.3860 C.3       1 IPT        -0.0535
     16 H         -14.4760  -27.3039  -26.9057 H         1 IPT         0.0740
     17 H         -12.8385  -28.8749  -24.8882 H         1 IPT         0.0655
     18 H         -12.4073  -26.6984  -24.1461 H         1 IPT         0.2100
     19 H         -11.8512  -26.8197  -26.8590 H         1 IPT         0.0647
     20 H          -9.8023  -27.7400  -26.1247 H         1 IPT         0.2100
     21 H         -10.9064  -28.4953  -28.2519 H         1 IPT         0.0647
     22 H         -11.1621  -30.7266  -27.7079 H         1 IPT         0.2100
     23 H         -13.1643  -27.9641  -28.6934 H         1 IPT         0.0646
     24 H         -13.9510  -29.7034  -29.9864 H         1 IPT         0.0584
     25 H         -13.1476  -30.9459  -28.9471 H         1 IPT         0.0584
     26 H         -11.8344  -29.0221  -30.5994 H         1 IPT         0.2095
     27 H         -16.9636  -27.2674  -26.7449 H         1 IPT         0.0407
     28 H         -16.3941  -29.2073  -28.1120 H         1 IPT         0.0240
     29 H         -17.3626  -30.2582  -27.0495 H         1 IPT         0.0240
     30 H         -18.1593  -28.9926  -28.0164 H         1 IPT         0.0240
     31 H         -18.3992  -29.2664  -24.9372 H         1 IPT         0.0240
     32 H         -18.1747  -27.5321  -24.6011 H         1 IPT         0.0240
     33 H         -19.1939  -28.0497  -25.9665 H         1 IPT         0.0240
@<TRIPOS>BOND
     1    1    2 1  
     2    1    9 1  
     3    1   12 1  
     4    2    3 1  
     5    2    4 1  
     6    4    5 1  
     7    4    6 1  
     8    6    7 1  
     9    6    8 1  
    10    8    9 1  
    11    8   10 1  
    12   10   11 1  
    13   12   13 1  
    14   13   14 1  
    15   13   15 1  
    16    1   16 1  
    17    2   17 1  
    18    3   18 1  
    19    4   19 1  
    20    5   20 1  
    21    6   21 1  
    22    7   22 1  
    23    8   23 1  
    24   10   24 1  
    25   10   25 1  
    26   11   26 1  
    27   13   27 1  
    28   14   28 1  
    29   14   29 1  
    30   14   30 1  
    31   15   31 1  
    32   15   32 1  
    33   15   33 1  
@<TRIPOS>SUBSTRUCTURE
     1 IPT         1

