### 
### Created by X-TOOL on Mon Sep 10 21:13:09 2018
### 

@<TRIPOS>MOLECULE
3t2q_ligand
   22    22     1     0     0
SMALL
GAST_HUCK


@<TRIPOS>ATOM
      1 C1        -11.9280  -27.2400  -25.5050 C.2       1 149         0.2660
      2 C2        -10.8350  -28.1550  -25.0040 C.3       1 149         0.1832
      3 C3        -10.0170  -28.7070  -26.1670 C.3       1 149         0.1280
      4 C4        -10.9060  -29.1120  -27.3420 C.3       1 149         0.1183
      5 C5        -11.7940  -27.9640  -27.8250 C.3       1 149         0.1389
      6 C6        -12.7100  -28.3930  -28.9700 C.3       1 149         0.0774
      7 O1        -12.2640  -26.2620  -24.8630 O.2       1 149        -0.3674
      8 O2         -9.9570  -27.4860  -24.0850 O.3       1 149        -0.3674
      9 O3         -9.2660  -29.8330  -25.6960 O.3       1 149        -0.3840
     10 O4        -11.7350  -30.2020  -26.9470 O.3       1 149        -0.3860
     11 O5        -12.6280  -27.5010  -26.7590 O.3       1 149        -0.2665
     12 O6        -11.9660  -28.9120  -30.0820 O.3       1 149        -0.3920
     13 H1        -11.3096  -28.9969  -24.4788 H         1 149         0.0881
     14 H2         -9.3199  -27.9288  -26.5112 H         1 149         0.0673
     15 H3        -10.2613  -29.4303  -28.1745 H         1 149         0.0652
     16 H4        -11.1484  -27.1424  -28.1686 H         1 149         0.0700
     17 H5        -13.2915  -27.5219  -29.3062 H         1 149         0.0587
     18 H6        -13.3950  -29.1725  -28.6051 H         1 149         0.0587
     19 H7         -9.5160  -26.7732  -24.5321 H         1 149         0.2136
     20 H8         -9.8638  -30.5143  -25.4114 H         1 149         0.2102
     21 H9        -12.2552  -30.4878  -27.6888 H         1 149         0.2100
     22 H10       -11.3755  -28.2424  -30.4067 H         1 149         0.2095
@<TRIPOS>BOND
     1    1    2 1  
     2    1    7 2  
     3    1   11 1  
     4    2    3 1  
     5    2    8 1  
     6    3    4 1  
     7    3    9 1  
     8    4    5 1  
     9    4   10 1  
    10    5    6 1  
    11    5   11 1  
    12    6   12 1  
    13    2   13 1  
    14    3   14 1  
    15    4   15 1  
    16    5   16 1  
    17    6   17 1  
    18    6   18 1  
    19    8   19 1  
    20    9   20 1  
    21   10   21 1  
    22   12   22 1  
@<TRIPOS>SUBSTRUCTURE
     1 149         1

