### 
### Created by X-TOOL on Mon Sep 10 21:13:06 2018
### 

@<TRIPOS>MOLECULE
3t2t_ligand
   47    48     1     0     0
SMALL
GAST_HUCK


@<TRIPOS>ATOM
      1 C1         23.4040    0.6600   19.0450 C.3       1 MQT         0.1927
      2 O1         24.3500   -0.4120   18.9810 O.3       1 MQT        -0.3517
      3 C2         23.8970    1.7930   18.1680 C.3       1 MQT         0.1707
      4 O2         24.0470    1.2990   16.8390 O.3       1 MQT        -0.2655
      5 C3         22.9450    2.9830   18.1340 C.3       1 MQT         0.1498
      6 O3         23.2580    3.6890   16.9380 O.3       1 MQT        -0.2693
      7 C4         21.4740    2.5740   18.1050 C.3       1 MQT         0.1168
      8 O4         21.0990    2.3900   16.7390 O.3       1 MQT        -0.3861
      9 C5         21.1590    1.2810   18.8470 C.3       1 MQT         0.1134
     10 O5         22.1290    0.2840   18.5310 O.3       1 MQT        -0.3402
     11 C6         19.7780    0.7520   18.4610 C.3       1 MQT         0.0730
     12 O6         19.4300   -0.3430   19.3170 O.3       1 MQT        -0.3924
     13 OAA        22.4750    5.5700   18.0150 O.2       1 MQT        -0.3602
     14 CAB        22.9670    5.1010   17.0010 C.2       1 MQT         0.2584
     15 CAC        23.3040    5.9240   15.7950 C.ar      1 MQT         0.0549
     16 CAD        23.3610    7.3060   15.8630 C.ar      1 MQT        -0.0472
     17 CAE        23.6840    8.0320   14.7250 C.ar      1 MQT        -0.0544
     18 CAF        23.9540    7.3860   13.5240 C.ar      1 MQT        -0.0411
     19 CAG        24.2990    8.1790   12.2910 C.3       1 MQT        -0.0288
     20 CAH        23.8990    6.0010   13.4590 C.ar      1 MQT        -0.0544
     21 CAI        23.5710    5.2760   14.5940 C.ar      1 MQT        -0.0472
     22 CAN        25.3440    1.7380   16.3560 C.2       1 MQT         0.2311
     23 OAO        25.6950    3.0130   16.5130 O.2       1 MQT        -0.3707
     24 CAP        26.1750    0.8810   15.7940 C.3       1 MQT         0.0372
     25 CAS        23.7810   -1.6820   19.3070 C.3       1 MQT         0.0396
     26 H1         23.3020    0.9948   20.0878 H         1 MQT         0.0941
     27 H2         24.8717    2.1333   18.5477 H         1 MQT         0.0732
     28 H3         23.1201    3.6208   19.0129 H         1 MQT         0.0706
     29 H4         20.8787    3.3849   18.5500 H         1 MQT         0.0650
     30 H5         21.2249    3.2035   16.2649 H         1 MQT         0.2100
     31 H6         21.1800    1.4788   19.9289 H         1 MQT         0.0647
     32 H7         19.7955    0.4093   17.4159 H         1 MQT         0.0584
     33 H8         19.0339    1.5545   18.5713 H         1 MQT         0.0584
     34 H9         20.0733   -1.0355   19.2209 H         1 MQT         0.2095
     35 H10        23.1551    7.8164   16.7969 H         1 MQT         0.0655
     36 H11        23.7262    9.1141   14.7732 H         1 MQT         0.0570
     37 H12        24.4769    7.4916   11.4509 H         1 MQT         0.0401
     38 H13        25.2065    8.7717   12.4782 H         1 MQT         0.0401
     39 H14        23.4656    8.8528   12.0432 H         1 MQT         0.0401
     40 H15        24.1111    5.4895   12.5271 H         1 MQT         0.0570
     41 H16        23.5222    4.1942   14.5449 H         1 MQT         0.0655
     42 H17        27.0962    1.4041   15.4978 H         1 MQT         0.0483
     43 H18        25.7013    0.4405   14.9043 H         1 MQT         0.0483
     44 H19        26.4204    0.0840   16.5113 H         1 MQT         0.0483
     45 H20        24.5563   -2.4594   19.2393 H         1 MQT         0.0525
     46 H21        22.9688   -1.9119   18.6017 H         1 MQT         0.0525
     47 H22        23.3800   -1.6522   20.3309 H         1 MQT         0.0525
@<TRIPOS>BOND
     1    1    2 1  
     2    1    3 1  
     3    1   10 1  
     4    2   25 1  
     5    3    4 1  
     6    3    5 1  
     7    4   22 1  
     8    5    6 1  
     9    5    7 1  
    10    6   14 1  
    11    7    8 1  
    12    7    9 1  
    13    9   10 1  
    14    9   11 1  
    15   11   12 1  
    16   14   13 2  
    17   14   15 1  
    18   15   16 ar 
    19   15   21 ar 
    20   16   17 ar 
    21   17   18 ar 
    22   18   19 1  
    23   18   20 ar 
    24   20   21 ar 
    25   22   23 2  
    26   22   24 1  
    27    1   26 1  
    28    3   27 1  
    29    5   28 1  
    30    7   29 1  
    31    8   30 1  
    32    9   31 1  
    33   11   32 1  
    34   11   33 1  
    35   12   34 1  
    36   16   35 1  
    37   17   36 1  
    38   19   37 1  
    39   19   38 1  
    40   19   39 1  
    41   20   40 1  
    42   21   41 1  
    43   24   42 1  
    44   24   43 1  
    45   24   44 1  
    46   25   45 1  
    47   25   46 1  
    48   25   47 1  
@<TRIPOS>SUBSTRUCTURE
     1 MQT         1

