### 
### Created by X-TOOL on Mon Sep 10 21:13:07 2018
### 

@<TRIPOS>MOLECULE
3t2v_ligand
   47    46     1     0     0
SMALL
GAST_HUCK


@<TRIPOS>ATOM
      1 O1        -33.9510  -17.3520  -41.2190 O.3       1 KKJ        -0.3898
      2 C2        -34.0330  -18.4540  -40.3110 C.3       1 KKJ         0.0694
      3 C3        -34.5280  -19.7330  -41.0620 C.3       1 KKJ         0.0377
      4 C4        -36.0100  -19.5200  -41.4330 C.2       1 KKJ         0.0403
      5 O5        -36.6450  -18.5410  -40.9570 O.co2     1 KKJ        -0.5686
      6 O6        -36.6040  -20.3100  -42.2120 O.co2     1 KKJ        -0.5686
      7 C7        -32.6790  -18.6280  -39.6050 C.3       1 KKJ        -0.0250
      8 C8        -32.8450  -19.2280  -38.1980 C.3       1 KKJ        -0.0506
      9 C9        -31.7820  -20.2770  -37.8220 C.3       1 KKJ        -0.0530
     10 C10       -31.7050  -21.4470  -38.8130 C.3       1 KKJ        -0.0533
     11 C11       -31.9950  -22.7980  -38.1760 C.3       1 KKJ        -0.0559
     12 C12       -32.4830  -23.7830  -39.2280 C.3       1 KKJ        -0.0653
     13 C13       -33.5930  -20.1050  -42.2560 C.3       1 KKJ        -0.0362
     14 C14       -33.9360  -21.3460  -43.1040 C.3       1 KKJ        -0.0512
     15 C15       -34.4300  -22.6070  -42.3520 C.3       1 KKJ        -0.0530
     16 C16       -35.6900  -23.2020  -42.9770 C.3       1 KKJ        -0.0533
     17 C17       -35.8720  -24.6740  -42.6200 C.3       1 KKJ        -0.0559
     18 C18       -35.7650  -25.5280  -43.8770 C.3       1 KKJ        -0.0653
     19 H1        -33.3397  -17.5617  -41.9153 H         1 KKJ         0.2099
     20 H2        -34.7810  -18.2141  -39.5410 H         1 KKJ         0.0614
     21 H3        -34.4857  -20.5768  -40.3576 H         1 KKJ         0.0491
     22 H4        -32.1929  -17.6450  -39.5184 H         1 KKJ         0.0291
     23 H5        -32.0468  -19.2980  -40.2061 H         1 KKJ         0.0291
     24 H6        -33.8341  -19.7061  -38.1428 H         1 KKJ         0.0266
     25 H7        -32.7926  -18.4082  -37.4664 H         1 KKJ         0.0266
     26 H8        -32.0242  -20.6781  -36.8268 H         1 KKJ         0.0265
     27 H9        -30.8000  -19.7825  -37.7890 H         1 KKJ         0.0265
     28 H10       -30.6927  -21.4741  -39.2426 H         1 KKJ         0.0265
     29 H11       -32.4388  -21.2745  -39.6140 H         1 KKJ         0.0265
     30 H12       -32.7700  -22.6769  -37.4049 H         1 KKJ         0.0263
     31 H13       -31.0754  -23.1864  -37.7139 H         1 KKJ         0.0263
     32 H14       -32.6885  -24.7540  -38.7538 H         1 KKJ         0.0230
     33 H15       -31.7094  -23.9083  -39.9999 H         1 KKJ         0.0230
     34 H16       -33.4040  -23.3989  -39.6908 H         1 KKJ         0.0230
     35 H17       -32.5862  -20.2635  -41.8421 H         1 KKJ         0.0286
     36 H18       -33.5777  -19.2413  -42.9370 H         1 KKJ         0.0286
     37 H19       -33.0294  -21.6270  -43.6599 H         1 KKJ         0.0266
     38 H20       -34.7249  -21.0540  -43.8127 H         1 KKJ         0.0266
     39 H21       -34.6485  -22.3334  -41.3092 H         1 KKJ         0.0265
     40 H22       -33.6335  -23.3654  -42.3730 H         1 KKJ         0.0265
     41 H23       -35.6204  -23.1091  -44.0708 H         1 KKJ         0.0265
     42 H24       -36.5637  -22.6396  -42.6160 H         1 KKJ         0.0265
     43 H25       -36.8622  -24.8191  -42.1634 H         1 KKJ         0.0263
     44 H26       -35.0913  -24.9757  -41.9063 H         1 KKJ         0.0263
     45 H27       -35.8971  -26.5876  -43.6127 H         1 KKJ         0.0230
     46 H28       -34.7749  -25.3849  -44.3344 H         1 KKJ         0.0230
     47 H29       -36.5458  -25.2283  -44.5915 H         1 KKJ         0.0230
@<TRIPOS>BOND
     1    1    2 1  
     2    2    3 1  
     3    2    7 1  
     4    3    4 1  
     5    3   13 1  
     6    4    5 ar 
     7    4    6 ar 
     8    7    8 1  
     9    8    9 1  
    10    9   10 1  
    11   10   11 1  
    12   11   12 1  
    13   13   14 1  
    14   14   15 1  
    15   15   16 1  
    16   16   17 1  
    17   17   18 1  
    18    1   19 1  
    19    2   20 1  
    20    3   21 1  
    21    7   22 1  
    22    7   23 1  
    23    8   24 1  
    24    8   25 1  
    25    9   26 1  
    26    9   27 1  
    27   10   28 1  
    28   10   29 1  
    29   11   30 1  
    30   11   31 1  
    31   12   32 1  
    32   12   33 1  
    33   12   34 1  
    34   13   35 1  
    35   13   36 1  
    36   14   37 1  
    37   14   38 1  
    38   15   39 1  
    39   15   40 1  
    40   16   41 1  
    41   16   42 1  
    42   17   43 1  
    43   17   44 1  
    44   18   45 1  
    45   18   46 1  
    46   18   47 1  
@<TRIPOS>SUBSTRUCTURE
     1 KKJ         1

