### 
### Created by X-TOOL on Mon Sep 10 21:13:09 2018
### 

@<TRIPOS>MOLECULE
3t2w_ligand
   31    32     1     0     0
SMALL
GAST_HUCK


@<TRIPOS>ATOM
      1 C11        -6.4190  -26.4210   -3.9230 C.2       1 BTN         0.0348
      2 O11        -6.6420  -27.6440   -3.7260 O.co2     1 BTN        -0.5690
      3 O12        -6.9470  -25.8890   -4.9220 O.co2     1 BTN        -0.5690
      4 C10        -5.5200  -25.6040   -3.0020 C.3       1 BTN         0.0002
      5 C9         -5.5530  -25.9500   -1.5090 C.3       1 BTN        -0.0414
      6 C8         -6.9470  -25.8560   -0.8700 C.3       1 BTN        -0.0505
      7 C7         -6.9460  -26.2140    0.6170 C.3       1 BTN        -0.0389
      8 C2         -8.3630  -25.9720    1.2150 C.3       1 BTN         0.0302
      9 S1         -8.8250  -24.3380    1.3950 S.3       1 BTN        -0.1527
     10 C6        -10.3160  -24.9010    2.2590 C.3       1 BTN         0.0190
     11 C5         -9.8080  -25.9850    3.2360 C.3       1 BTN         0.0750
     12 N1         -9.2650  -25.4600    4.4710 N.am      1 BTN        -0.2671
     13 C3         -7.9570  -25.7900    4.5540 C.2       1 BTN         0.2580
     14 O3         -7.1920  -25.4290    5.6400 O.2       1 BTN        -0.4008
     15 N2         -7.5250  -26.4390    3.4910 N.am      1 BTN        -0.2668
     16 C4         -8.6090  -26.6730    2.5540 C.3       1 BTN         0.0775
     17 H1         -5.8122  -24.5485   -3.1043 H         1 BTN         0.0430
     18 H2         -4.4843  -25.7331   -3.3494 H         1 BTN         0.0430
     19 H3         -4.8836  -25.2561   -0.9795 H         1 BTN         0.0283
     20 H4         -5.1860  -26.9796   -1.3855 H         1 BTN         0.0283
     21 H5         -7.6218  -26.5468   -1.3967 H         1 BTN         0.0267
     22 H6         -7.3159  -24.8259   -0.9826 H         1 BTN         0.0267
     23 H7         -6.2141  -25.5846    1.1443 H         1 BTN         0.0277
     24 H8         -6.6738  -27.2729    0.7382 H         1 BTN         0.0277
     25 H9         -9.0617  -26.4160    0.4906 H         1 BTN         0.0435
     26 H10       -11.0404  -25.3260    1.5487 H         1 BTN         0.0399
     27 H11       -10.7845  -24.0709    2.8081 H         1 BTN         0.0399
     28 H12       -10.6172  -26.6984    3.4509 H         1 BTN         0.0584
     29 H13        -9.7758  -24.9370    5.1533 H         1 BTN         0.1849
     30 H14        -6.5790  -26.7306    3.3493 H         1 BTN         0.1849
     31 H15        -8.7800  -27.7484    2.3985 H         1 BTN         0.0587
@<TRIPOS>BOND
     1    1    2 ar 
     2    1    3 ar 
     3    1    4 1  
     4    4    5 1  
     5    5    6 1  
     6    6    7 1  
     7    7    8 1  
     8    8    9 1  
     9    8   16 1  
    10    9   10 1  
    11   10   11 1  
    12   11   12 1  
    13   11   16 1  
    14   12   13 am 
    15   13   14 2  
    16   13   15 am 
    17   15   16 1  
    18    4   17 1  
    19    4   18 1  
    20    5   19 1  
    21    5   20 1  
    22    6   21 1  
    23    6   22 1  
    24    7   23 1  
    25    7   24 1  
    26    8   25 1  
    27   10   26 1  
    28   10   27 1  
    29   11   28 1  
    30   12   29 1  
    31   15   30 1  
    32   16   31 1  
@<TRIPOS>SUBSTRUCTURE
     1 BTN         1

