### 
### Created by X-TOOL on Mon Sep 10 21:13:09 2018
### 

@<TRIPOS>MOLECULE
3t3c_ligand
   75    78     1     0     0
SMALL
GAST_HUCK


@<TRIPOS>ATOM
      1 N1          3.3050   -4.2660  -15.0220 N.pl3     1 017        -0.3369
      2 C2          2.6160   -4.2360  -16.1970 C.ar      1 017         0.0353
      3 C3          2.3110   -3.0130  -16.7860 C.ar      1 017        -0.0429
      4 C4          1.5900   -2.9700  -17.9810 C.ar      1 017        -0.0471
      5 C5          1.1690   -4.1540  -18.5870 C.ar      1 017         0.0949
      6 C6          1.5020   -5.3820  -17.9940 C.ar      1 017        -0.0471
      7 C7          2.2040   -5.4310  -16.7920 C.ar      1 017        -0.0429
      8 S8          0.3150   -4.0970  -19.9710 S.o2      1 017         0.0648
      9 O9          0.6080   -2.8440  -20.5850 O.2       1 017        -0.1518
     10 O10         0.6330   -5.2220  -20.7970 O.2       1 017        -0.1518
     11 N11        -1.3030   -4.1990  -19.6640 N.am      1 017        -0.2327
     12 C12        -1.6920   -5.4440  -18.9770 C.3       1 017         0.0319
     13 C13        -3.1360   -5.8630  -19.2860 C.3       1 017        -0.0296
     14 C14        -3.3380   -6.1830  -20.7700 C.3       1 017        -0.0612
     15 C15        -3.4520   -7.0960  -18.4560 C.3       1 017        -0.0612
     16 C16        -1.9040   -3.0010  -19.0250 C.3       1 017         0.0578
     17 C17        -2.9740   -2.4690  -20.0000 C.3       1 017         0.0967
     18 O18        -3.8070   -1.5360  -19.3160 O.3       1 017        -0.3877
     19 C19        -2.4070   -1.9000  -21.3390 C.3       1 017         0.0807
     20 N20        -3.5550   -1.7210  -22.2370 N.am      1 017        -0.2550
     21 C21        -3.8040   -2.5380  -23.2620 C.2       1 017         0.3203
     22 O22        -3.1420   -3.5230  -23.6000 O.2       1 017        -0.3775
     23 O23        -4.9850   -2.1960  -24.0060 O.3       1 017        -0.2578
     24 C24        -5.2090   -2.7480  -25.3070 C.3       1 017         0.1189
     25 C25        -6.7100   -2.9650  -25.3350 C.3       1 017         0.0815
     26 O26        -7.2140   -1.6480  -25.4850 O.3       1 017        -0.3480
     27 C27        -6.3350   -0.9210  -26.3590 C.3       1 017         0.1648
     28 O28        -6.1010    0.3900  -25.8560 O.3       1 017        -0.3509
     29 C29        -4.7370    0.5830  -25.4490 C.3       1 017         0.0512
     30 C30        -3.9560   -0.6000  -26.0190 C.3       1 017        -0.0191
     31 C31        -5.0080   -1.6600  -26.3520 C.3       1 017         0.0449
     32 C32        -1.7110   -0.5290  -21.2690 C.3       1 017         0.0064
     33 C33        -1.7310    1.0070  -23.2960 C.ar      1 017        -0.0603
     34 C34        -1.3160    1.3780  -24.5850 C.ar      1 017        -0.0686
     35 C35        -0.3970    0.5930  -25.2800 C.ar      1 017        -0.0687
     36 C36         0.1170   -0.5570  -24.6730 C.ar      1 017        -0.0686
     37 C37        -0.2900   -0.9280  -23.3760 C.ar      1 017        -0.0603
     38 C38        -1.2240   -0.1400  -22.6780 C.ar      1 017        -0.0408
     39 H1          3.6099   -3.3864  -14.5812 H         1 017         0.1719
     40 H2          3.5210   -5.1682  -14.5745 H         1 017         0.1719
     41 H3          2.6339   -2.0911  -16.3160 H         1 017         0.0515
     42 H4          1.3571   -2.0153  -18.4385 H         1 017         0.0602
     43 H5          1.2084   -6.3060  -18.4788 H         1 017         0.0602
     44 H6          2.4276   -6.3832  -16.3247 H         1 017         0.0515
     45 H7         -1.5937   -5.2930  -17.8919 H         1 017         0.0480
     46 H8         -1.0152   -6.2496  -19.2979 H         1 017         0.0480
     47 H9         -3.8154   -5.0449  -19.0048 H         1 017         0.0311
     48 H10        -4.3838   -6.4772  -20.9426 H         1 017         0.0233
     49 H11        -2.6721   -7.0087  -21.0610 H         1 017         0.0233
     50 H12        -3.1033   -5.2930  -21.3723 H         1 017         0.0233
     51 H13        -3.3072   -6.8672  -17.3898 H         1 017         0.0233
     52 H14        -2.7813   -7.9171  -18.7491 H         1 017         0.0233
     53 H15        -4.4962   -7.3961  -18.6281 H         1 017         0.0233
     54 H16        -1.1329   -2.2355  -18.8538 H         1 017         0.0504
     55 H17        -2.3678   -3.2752  -18.0660 H         1 017         0.0504
     56 H18        -3.6057   -3.3261  -20.2763 H         1 017         0.0634
     57 H19        -3.2774   -0.8144  -18.9976 H         1 017         0.2100
     58 H20        -1.6988   -2.6314  -21.7555 H         1 017         0.0604
     59 H21        -4.1762   -0.9546  -22.0734 H         1 017         0.1873
     60 H22        -4.6135   -3.6521  -25.5018 H         1 017         0.0675
     61 H23        -7.0624   -3.4198  -24.3975 H         1 017         0.0590
     62 H24        -7.0029   -3.6005  -26.1837 H         1 017         0.0590
     63 H25        -6.7555   -0.8710  -27.3742 H         1 017         0.0913
     64 H26        -4.6638    0.5961  -24.3515 H         1 017         0.0561
     65 H27        -4.3475    1.5287  -25.8538 H         1 017         0.0561
     66 H28        -3.2438   -0.9854  -25.2745 H         1 017         0.0293
     67 H29        -3.4114   -0.3001  -26.9265 H         1 017         0.0293
     68 H30        -4.7800   -2.1136  -27.3278 H         1 017         0.0380
     69 H31        -0.8516   -0.5864  -20.5848 H         1 017         0.0449
     70 H32        -2.4214    0.2268  -20.9029 H         1 017         0.0449
     71 H33        -2.4558    1.6194  -22.7719 H         1 017         0.0557
     72 H34        -1.7116    2.2781  -25.0415 H         1 017         0.0599
     73 H35        -0.0844    0.8711  -26.2800 H         1 017         0.0559
     74 H36         0.8358   -1.1692  -25.2055 H         1 017         0.0599
     75 H37         0.1167   -1.8211  -22.9155 H         1 017         0.0557
@<TRIPOS>BOND
     1    2    1 1  
     2    3    2 ar 
     3    7    2 ar 
     4    4    3 ar 
     5    5    4 ar 
     6    5    6 ar 
     7    8    5 1  
     8    6    7 ar 
     9    8    9 2  
    10    8   10 2  
    11   11    8 am 
    12   11   12 1  
    13   16   11 1  
    14   12   13 1  
    15   13   14 1  
    16   13   15 1  
    17   17   16 1  
    18   17   18 1  
    19   19   17 1  
    20   19   20 1  
    21   32   19 1  
    22   20   21 am 
    23   21   22 2  
    24   21   23 1  
    25   23   24 1  
    26   24   25 1  
    27   24   31 1  
    28   25   26 1  
    29   27   26 1  
    30   27   28 1  
    31   31   27 1  
    32   29   28 1  
    33   30   29 1  
    34   31   30 1  
    35   38   32 1  
    36   33   34 ar 
    37   33   38 ar 
    38   34   35 ar 
    39   35   36 ar 
    40   36   37 ar 
    41   37   38 ar 
    42    1   39 1  
    43    1   40 1  
    44    3   41 1  
    45    4   42 1  
    46    6   43 1  
    47    7   44 1  
    48   12   45 1  
    49   12   46 1  
    50   13   47 1  
    51   14   48 1  
    52   14   49 1  
    53   14   50 1  
    54   15   51 1  
    55   15   52 1  
    56   15   53 1  
    57   16   54 1  
    58   16   55 1  
    59   17   56 1  
    60   18   57 1  
    61   19   58 1  
    62   20   59 1  
    63   24   60 1  
    64   25   61 1  
    65   25   62 1  
    66   27   63 1  
    67   29   64 1  
    68   29   65 1  
    69   30   66 1  
    70   30   67 1  
    71   31   68 1  
    72   32   69 1  
    73   32   70 1  
    74   33   71 1  
    75   34   72 1  
    76   35   73 1  
    77   36   74 1  
    78   37   75 1  
@<TRIPOS>SUBSTRUCTURE
     1 017         1

