### 
### Created by X-TOOL on Mon Sep 10 21:13:08 2018
### 

@<TRIPOS>MOLECULE
3t3d_ligand
   33    34     1     0     0
SMALL
GAST_HUCK


@<TRIPOS>ATOM
      1 N1         34.2160   23.4570   28.6970 N.am      1 CJB        -0.1592
      2 O2         32.4240   24.1830   29.9280 O.2       1 CJB        -0.3815
      3 C2         33.6310   24.1580   29.7470 C.2       1 CJB         0.3328
      4 N3         34.4330   24.8720   30.6190 N.am      1 CJB        -0.1865
      5 C4         35.8140   24.8820   30.4440 C.2       1 CJB         0.1822
      6 O4         36.4180   25.5650   31.2620 O.2       1 CJB        -0.4124
      7 C5         36.4450   24.1850   29.4000 C.2       1 CJB         0.0062
      8 C6         35.6360   23.4910   28.5160 C.2       1 CJB         0.0591
      9 C1'        33.3180   22.7340   27.7870 C.3       1 CJB         0.2058
     10 O5'        33.2840   21.3050   28.0060 O.3       1 CJB        -0.3367
     11 C5'        32.1950   20.7060   27.3030 C.3       1 CJB         0.1134
     12 C6'        32.2430   19.2710   27.8060 C.3       1 CJB         0.0730
     13 O6'        33.2610   18.5140   27.1470 O.3       1 CJB        -0.3924
     14 C4'        32.4560   20.8860   25.7680 C.3       1 CJB         0.1119
     15 O4'        31.4070   20.2670   24.9980 O.3       1 CJB        -0.3865
     16 C3'        32.6280   22.3660   25.3840 C.3       1 CJB         0.1145
     17 O3'        33.0300   22.4610   24.0630 O.3       1 CJB        -0.3864
     18 C2'        33.7050   23.0060   26.3090 C.3       1 CJB         0.1387
     19 O2'        33.8950   24.4130   26.0910 O.3       1 CJB        -0.3836
     20 H1         34.0209   25.3808   31.3748 H         1 CJB         0.2259
     21 H2         37.5284   24.1903   29.2902 H         1 CJB         0.0258
     22 H3         36.0845   22.9655   27.6742 H         1 CJB         0.1178
     23 H4         32.3020   23.1207   27.9548 H         1 CJB         0.0997
     24 H5         31.2327   21.1707   27.5638 H         1 CJB         0.0647
     25 H6         31.2686   18.7954   27.6206 H         1 CJB         0.0584
     26 H7         32.4476   19.2786   28.8868 H         1 CJB         0.0584
     27 H8         34.1066   18.9161   27.3070 H         1 CJB         0.2095
     28 H9         33.3975   20.3703   25.5278 H         1 CJB         0.0647
     29 H10        30.5748   20.6689   25.2180 H         1 CJB         0.2100
     30 H11        31.6715   22.8935   25.5135 H         1 CJB         0.0648
     31 H12        33.1350   23.3760   23.8301 H         1 CJB         0.2100
     32 H13        34.6638   22.5079   26.1027 H         1 CJB         0.0676
     33 H14        34.1706   24.5589   25.1937 H         1 CJB         0.2101
@<TRIPOS>BOND
     1    1    3 am 
     2    1    8 1  
     3    1    9 1  
     4    3    2 2  
     5    3    4 am 
     6    4    5 am 
     7    5    6 2  
     8    5    7 1  
     9    7    8 2  
    10    9   10 1  
    11    9   18 1  
    12   10   11 1  
    13   11   12 1  
    14   11   14 1  
    15   12   13 1  
    16   14   15 1  
    17   14   16 1  
    18   16   17 1  
    19   16   18 1  
    20   18   19 1  
    21    4   20 1  
    22    7   21 1  
    23    8   22 1  
    24    9   23 1  
    25   11   24 1  
    26   12   25 1  
    27   12   26 1  
    28   13   27 1  
    29   14   28 1  
    30   15   29 1  
    31   16   30 1  
    32   17   31 1  
    33   18   32 1  
    34   19   33 1  
@<TRIPOS>SUBSTRUCTURE
     1 CJB         1

