### 
### Created by X-TOOL on Mon Sep 10 21:13:09 2018
### 

@<TRIPOS>MOLECULE
3t3e_ligand
   33    34     1     0     0
SMALL
GAST_HUCK


@<TRIPOS>ATOM
      1 N1         34.0910   23.4150   28.7620 N.am      1 GPQ        -0.1575
      2 CL1        37.9410   23.9470   29.6410 Cl        1 GPQ        -0.1088
      3 C2         33.4180   24.1410   29.7510 C.2       1 GPQ         0.3337
      4 O2         32.1990   24.1990   29.7530 O.2       1 GPQ        -0.3810
      5 N3         34.1320   24.8450   30.6820 N.am      1 GPQ        -0.1859
      6 C4         35.5290   24.8180   30.6560 C.2       1 GPQ         0.1964
      7 O4         36.0900   25.4830   31.5090 O.2       1 GPQ        -0.4116
      8 C5         36.2170   24.0770   29.6870 C.2       1 GPQ         0.1037
      9 C6         35.4960   23.3800   28.7350 C.2       1 GPQ         0.0744
     10 C1'        33.2680   22.7260   27.8040 C.3       1 GPQ         0.2064
     11 C2'        33.6950   23.0390   26.3370 C.3       1 GPQ         0.1388
     12 O2'        33.8200   24.4520   26.1690 O.3       1 GPQ        -0.3836
     13 C3'        32.6370   22.4050   25.3900 C.3       1 GPQ         0.1145
     14 O3'        33.0680   22.3430   24.0410 O.3       1 GPQ        -0.3864
     15 C4'        32.3680   20.9530   25.8460 C.3       1 GPQ         0.1119
     16 O4'        31.2900   20.4790   25.0900 O.3       1 GPQ        -0.3865
     17 C5'        32.0650   20.7990   27.3690 C.3       1 GPQ         0.1134
     18 O5'        33.1990   21.2880   28.0890 O.3       1 GPQ        -0.3365
     19 C6'        32.0500   19.3520   27.8050 C.3       1 GPQ         0.0730
     20 O6'        33.2080   18.6560   27.3040 O.3       1 GPQ        -0.3924
     21 H1         33.6546   25.3783   31.3804 H         1 GPQ         0.2259
     22 H2         36.0142   22.8066   27.9678 H         1 GPQ         0.1197
     23 H3         32.2471   23.1182   27.9221 H         1 GPQ         0.0999
     24 H4         34.6726   22.5775   26.1336 H         1 GPQ         0.0676
     25 H5         34.0801   24.6417   25.2753 H         1 GPQ         0.2101
     26 H6         31.7106   22.9954   25.4466 H         1 GPQ         0.0648
     27 H7         33.2482   23.2212   23.7266 H         1 GPQ         0.2100
     28 H8         33.2598   20.3499   25.6205 H         1 GPQ         0.0647
     29 H9         30.5297   21.0266   25.2467 H         1 GPQ         0.2100
     30 H10        31.1322   21.3184   27.6338 H         1 GPQ         0.0647
     31 H11        31.1419   18.8675   27.4169 H         1 GPQ         0.0584
     32 H12        32.0490   19.3062   28.9040 H         1 GPQ         0.0584
     33 H13        33.9945   19.0698   27.6395 H         1 GPQ         0.2095
@<TRIPOS>BOND
     1    3    1 am 
     2    1    9 1  
     3    1   10 1  
     4    8    2 1  
     5    3    4 2  
     6    5    3 am 
     7    6    5 am 
     8    6    7 2  
     9    6    8 1  
    10    8    9 2  
    11   10   11 1  
    12   10   18 1  
    13   11   12 1  
    14   11   13 1  
    15   13   14 1  
    16   13   15 1  
    17   15   16 1  
    18   15   17 1  
    19   17   18 1  
    20   17   19 1  
    21   19   20 1  
    22    5   21 1  
    23    9   22 1  
    24   10   23 1  
    25   11   24 1  
    26   12   25 1  
    27   13   26 1  
    28   14   27 1  
    29   15   28 1  
    30   16   29 1  
    31   17   30 1  
    32   19   31 1  
    33   19   32 1  
    34   20   33 1  
@<TRIPOS>SUBSTRUCTURE
     1 GPQ         1

