### 
### Created by X-TOOL on Mon Sep 10 21:13:09 2018
### 

@<TRIPOS>MOLECULE
3t3g_ligand
   33    34     1     0     0
SMALL
GAST_HUCK


@<TRIPOS>ATOM
      1 N1         34.0340   23.5280   28.9300 N.am      1 GPU        -0.1534
      2 BR1        38.0860   23.9480   29.9230 Br        1 GPU        -0.0876
      3 C2         33.3570   24.3680   29.8510 C.2       1 GPU         0.3361
      4 O2         32.1300   24.4920   29.8320 O.2       1 GPU        -0.3799
      5 N3         34.1310   25.1020   30.8030 N.am      1 GPU        -0.1863
      6 C4         35.5310   24.9760   30.8270 C.2       1 GPU         0.1888
      7 O4         36.1480   25.6520   31.6370 O.2       1 GPU        -0.4134
      8 C5         36.1830   24.1420   29.9100 C.2       1 GPU         0.0775
      9 C6         35.4410   23.4270   28.9630 C.2       1 GPU         0.0731
     10 C1'        33.2410   22.7710   27.9410 C.3       1 GPU         0.2081
     11 C2'        33.6860   23.1110   26.5190 C.3       1 GPU         0.1392
     12 O2'        33.8200   24.5510   26.3780 O.3       1 GPU        -0.3836
     13 C3'        32.6670   22.4490   25.5770 C.3       1 GPU         0.1146
     14 O3'        33.1710   22.4480   24.2510 O.3       1 GPU        -0.3864
     15 C4'        32.3800   20.9790   25.9870 C.3       1 GPU         0.1119
     16 O4'        31.2850   20.4980   25.2420 O.3       1 GPU        -0.3865
     17 C5'        32.1340   20.7860   27.4910 C.3       1 GPU         0.1135
     18 O5'        33.3270   21.3250   28.0360 O.3       1 GPU        -0.3363
     19 C6'        32.1720   19.3620   28.0130 C.3       1 GPU         0.0730
     20 O6'        33.3050   18.6850   27.4530 O.3       1 GPU        -0.3924
     21 H1         33.6745   25.7077   31.4547 H         1 GPU         0.2259
     22 H2         35.9536   22.7876   28.2459 H         1 GPU         0.1255
     23 H3         32.1889   23.0634   28.0731 H         1 GPU         0.1003
     24 H4         34.6729   22.6644   26.3280 H         1 GPU         0.0676
     25 H5         34.0966   24.7570   25.4929 H         1 GPU         0.2101
     26 H6         31.7285   23.0217   25.6119 H         1 GPU         0.0648
     27 H7         33.3242   23.3427   23.9710 H         1 GPU         0.2100
     28 H8         33.2653   20.3823   25.7220 H         1 GPU         0.0647
     29 H9         30.5218   21.0349   25.4203 H         1 GPU         0.2100
     30 H10        31.2159   21.2998   27.8120 H         1 GPU         0.0647
     31 H11        31.2495   18.8385   27.7215 H         1 GPU         0.0584
     32 H12        32.2558   19.3742   29.1097 H         1 GPU         0.0584
     33 H13        34.1004   19.1391   27.7054 H         1 GPU         0.2095
@<TRIPOS>BOND
     1    3    1 am 
     2    1    9 1  
     3    1   10 1  
     4    8    2 1  
     5    3    4 2  
     6    5    3 am 
     7    6    5 am 
     8    6    7 2  
     9    6    8 1  
    10    8    9 2  
    11   10   11 1  
    12   10   18 1  
    13   11   12 1  
    14   11   13 1  
    15   13   14 1  
    16   13   15 1  
    17   15   16 1  
    18   15   17 1  
    19   17   18 1  
    20   17   19 1  
    21   19   20 1  
    22    5   21 1  
    23    9   22 1  
    24   10   23 1  
    25   11   24 1  
    26   12   25 1  
    27   13   26 1  
    28   14   27 1  
    29   15   28 1  
    30   16   29 1  
    31   17   30 1  
    32   19   31 1  
    33   19   32 1  
    34   20   33 1  
@<TRIPOS>SUBSTRUCTURE
     1 GPU         1

