### 
### Created by X-TOOL on Mon Sep 10 21:13:08 2018
### 

@<TRIPOS>MOLECULE
3t3h_ligand
   33    34     1     0     0
SMALL
GAST_HUCK


@<TRIPOS>ATOM
      1 I          38.1540   23.5600   30.1550 I         1 GPV        -0.0847
      2 N1         33.9570   23.4420   28.9090 N.am      1 GPV        -0.1540
      3 C2         33.2990   24.3500   29.7320 C.2       1 GPV         0.3355
      4 O2         32.0870   24.5350   29.6100 O.2       1 GPV        -0.3802
      5 N3         34.0290   25.0860   30.6810 N.am      1 GPV        -0.1861
      6 C4         35.4100   24.8850   30.8160 C.2       1 GPV         0.1904
      7 O4         36.0100   25.5320   31.6600 O.2       1 GPV        -0.4130
      8 C5         36.0700   23.9760   29.9920 C.2       1 GPV         0.0751
      9 C6         35.3230   23.2640   29.0430 C.2       1 GPV         0.0735
     10 C1'        33.1890   22.7020   27.8670 C.3       1 GPV         0.2077
     11 C2'        33.6510   23.0250   26.4160 C.3       1 GPV         0.1391
     12 O2'        33.6920   24.4600   26.1840 O.3       1 GPV        -0.3836
     13 C3'        32.6460   22.3380   25.4780 C.3       1 GPV         0.1146
     14 O3'        32.9630   22.4940   24.1160 O.3       1 GPV        -0.3864
     15 C4'        32.3990   20.8900   25.8260 C.3       1 GPV         0.1119
     16 O4'        31.2280   20.5070   25.1000 O.3       1 GPV        -0.3865
     17 C5'        32.1260   20.7190   27.3290 C.3       1 GPV         0.1135
     18 O5'        33.2280   21.2730   27.9590 O.3       1 GPV        -0.3364
     19 C6'        32.1550   19.2830   27.9090 C.3       1 GPV         0.0730
     20 O6'        33.0890   18.4730   27.2030 O.3       1 GPV        -0.3924
     21 H1         33.5627   25.7541   31.2609 H         1 GPV         0.2259
     22 H2         35.8310   22.5521   28.3941 H         1 GPV         0.1247
     23 H3         32.1409   23.0178   27.9751 H         1 GPV         0.1002
     24 H4         34.6564   22.6118   26.2473 H         1 GPV         0.0676
     25 H5         33.9764   24.6276   25.2932 H         1 GPV         0.2101
     26 H6         31.6886   22.8575   25.6314 H         1 GPV         0.0648
     27 H7         32.9737   23.4188   23.8984 H         1 GPV         0.2100
     28 H8         33.2611   20.2735   25.5317 H         1 GPV         0.0647
     29 H9         30.4987   21.0545   25.3660 H         1 GPV         0.2100
     30 H10        31.1820   21.2190   27.5913 H         1 GPV         0.0647
     31 H11        31.1528   18.8380   27.8214 H         1 GPV         0.0584
     32 H12        32.4450   19.3277   28.9691 H         1 GPV         0.0584
     33 H13        32.8401   18.4296   26.2872 H         1 GPV         0.2095
@<TRIPOS>BOND
     1    8    1 1  
     2    3    2 am 
     3    2    9 1  
     4    2   10 1  
     5    3    4 2  
     6    5    3 am 
     7    6    5 am 
     8    6    7 2  
     9    6    8 1  
    10    8    9 2  
    11   10   11 1  
    12   10   18 1  
    13   11   12 1  
    14   11   13 1  
    15   13   14 1  
    16   13   15 1  
    17   15   16 1  
    18   15   17 1  
    19   17   18 1  
    20   17   19 1  
    21   19   20 1  
    22    5   21 1  
    23    9   22 1  
    24   10   23 1  
    25   11   24 1  
    26   12   25 1  
    27   13   26 1  
    28   14   27 1  
    29   15   28 1  
    30   16   29 1  
    31   17   30 1  
    32   19   31 1  
    33   19   32 1  
    34   20   33 1  
@<TRIPOS>SUBSTRUCTURE
     1 GPV         1

