### 
### Created by X-TOOL on Mon Sep 10 21:13:08 2018
### 

@<TRIPOS>MOLECULE
3t3i_ligand
   36    37     1     0     0
SMALL
GAST_HUCK


@<TRIPOS>ATOM
      1 F1         38.4630   25.0800   29.9080 F         1 GPW        -0.2741
      2 N1         34.1360   23.5760   29.0840 N.am      1 GPW        -0.1015
      3 C2         33.4320   24.4210   29.9760 C.2       1 GPW         0.3738
      4 F2         38.0880   23.6760   31.4960 F         1 GPW        -0.2741
      5 O2         32.2030   24.5150   29.8800 O.2       1 GPW        -0.3602
      6 F3         38.1470   22.9950   29.5230 F         1 GPW        -0.2741
      7 N3         34.1260   25.1690   30.9520 N.am      1 GPW        -0.1717
      8 C4         35.5350   25.0470   31.0260 C.2       1 GPW         0.2214
      9 O4         36.1460   25.6910   31.8730 O.2       1 GPW        -0.3862
     10 C5         36.2370   24.2020   30.1390 C.2       1 GPW         0.1264
     11 C6         35.5320   23.4710   29.1690 C.2       1 GPW         0.1412
     12 C7         37.7740   24.0210   30.2480 C.3       1 GPW         0.3302
     13 C1'        33.3590   22.8260   28.0450 C.3       1 GPW         0.2316
     14 C2'        33.8120   23.0720   26.5670 C.3       1 GPW         0.1451
     15 O2'        34.0130   24.4840   26.3240 O.3       1 GPW        -0.3830
     16 C3'        32.7760   22.4310   25.5950 C.3       1 GPW         0.1151
     17 O3'        33.1630   22.5040   24.2090 O.3       1 GPW        -0.3864
     18 C4'        32.5270   20.9550   25.9730 C.3       1 GPW         0.1120
     19 O4'        31.3750   20.4920   25.2400 O.3       1 GPW        -0.3865
     20 C5'        32.3290   20.7520   27.5130 C.3       1 GPW         0.1140
     21 O5'        33.3170   21.4150   28.3100 O.3       1 GPW        -0.3316
     22 C6'        32.4490   19.3460   28.0630 C.3       1 GPW         0.0730
     23 O6'        33.0860   18.4500   27.1620 O.3       1 GPW        -0.3924
     24 H1         33.6326   25.7726   31.5783 H         1 GPW         0.2277
     25 H2         36.0706   22.8210   28.4811 H         1 GPW         0.1833
     26 H3         32.3257   23.1962   28.1175 H         1 GPW         0.1079
     27 H4         34.7769   22.5669   26.4125 H         1 GPW         0.0683
     28 H5         34.2871   24.6134   25.4236 H         1 GPW         0.2102
     29 H6         31.8310   22.9824   25.7085 H         1 GPW         0.0648
     30 H7         33.2636   23.4144   23.9570 H         1 GPW         0.2100
     31 H8         33.4028   20.3650   25.6649 H         1 GPW         0.0647
     32 H9         30.6205   21.0210   25.4710 H         1 GPW         0.2100
     33 H10        31.3300   21.1453   27.7522 H         1 GPW         0.0647
     34 H11        31.4394   18.9668   28.2793 H         1 GPW         0.0584
     35 H12        33.0343   19.3823   28.9937 H         1 GPW         0.0584
     36 H13        32.5850   18.4036   26.3562 H         1 GPW         0.2095
@<TRIPOS>BOND
     1   12    1 1  
     2    2    3 am 
     3   11    2 1  
     4    2   13 1  
     5    3    5 2  
     6    7    3 am 
     7   12    4 1  
     8   12    6 1  
     9    8    7 am 
    10    8    9 2  
    11   10    8 1  
    12   10   11 2  
    13   10   12 1  
    14   13   14 1  
    15   13   21 1  
    16   14   15 1  
    17   14   16 1  
    18   16   17 1  
    19   16   18 1  
    20   18   19 1  
    21   18   20 1  
    22   20   21 1  
    23   20   22 1  
    24   22   23 1  
    25    7   24 1  
    26   11   25 1  
    27   13   26 1  
    28   14   27 1  
    29   15   28 1  
    30   16   29 1  
    31   17   30 1  
    32   18   31 1  
    33   19   32 1  
    34   20   33 1  
    35   22   34 1  
    36   22   35 1  
    37   23   36 1  
@<TRIPOS>SUBSTRUCTURE
     1 GPW         1

