### 
### Created by X-TOOL on Mon Sep 10 21:13:10 2018
### 

@<TRIPOS>MOLECULE
3t3u_ligand
   54    58     1     0     0
SMALL
GAST_HUCK


@<TRIPOS>ATOM
      1 N1         21.5610   12.4820   63.8090 N.ar      1 BK6        -0.2656
      2 C2         22.7250   13.1140   63.6140 C.ar      1 BK6         0.0565
      3 N3         22.7860   14.4420   63.5800 N.ar      1 BK6        -0.2675
      4 C4         21.6650   15.1730   63.7270 C.ar      1 BK6         0.1633
      5 C5         20.4330   14.5580   63.9430 C.ar      1 BK6         0.0869
      6 C6         20.4040   13.1540   63.9870 C.ar      1 BK6         0.1274
      7 CAA        11.3180   15.3120   65.6420 C.3       1 BK6         0.0598
      8 NAB        19.2780   12.4500   64.1820 N.pl3     1 BK6        -0.3126
      9 CAC        14.4590   14.0080   67.0670 C.ar      1 BK6        -0.0274
     10 CAD        17.2700   16.3190   63.5590 C.ar      1 BK6        -0.0571
     11 CAE        15.8160   14.0710   66.7710 C.ar      1 BK6        -0.0563
     12 CAF        15.8970   16.2790   63.8460 C.ar      1 BK6        -0.0594
     13 CAH        14.0360   15.4850   65.2110 C.ar      1 BK6        -0.0289
     14 CAI        17.6670   14.8430   65.4160 C.ar      1 BK6        -0.0505
     15 CAJ        24.4330   19.0180   60.5210 C.3       1 BK6        -0.0333
     16 CAK        22.2180   18.4930   59.7240 C.3       1 BK6        -0.0333
     17 CAL        24.0460   18.7430   61.9830 C.3       1 BK6        -0.0070
     18 CAM        21.8050   17.9810   61.1280 C.3       1 BK6        -0.0070
     19 CAN        22.4990   17.4990   63.5420 C.3       1 BK6         0.0735
     20 NAQ        20.2480   16.7590   63.9460 N.2       1 BK6        -0.1943
     21 NAR        23.2440   19.5490   59.8300 N.4       1 BK6         0.2270
     22 OAS        12.2270   14.6540   66.5740 O.3       1 BK6        -0.3204
     23 CAT        13.5600   14.7260   66.2790 C.ar      1 BK6         0.0922
     24 CAU        18.1670   15.5720   64.3270 C.ar      1 BK6        -0.0104
     25 CAW        19.5360   15.6320   64.0730 C.2       1 BK6         0.0707
     26 CAX        15.4050   15.5250   64.9210 C.ar      1 BK6        -0.0285
     27 CAY        16.2980   14.8110   65.7070 C.ar      1 BK6        -0.0244
     28 CBB        22.9870   17.6320   62.0540 C.3       1 BK6        -0.0028
     29 NBC        21.4410   16.4820   63.7340 N.pl3     1 BK6        -0.1833
     30 H1         23.6315   12.5344   63.4818 H         1 BK6         0.1030
     31 H2         10.2818   15.1833   65.9879 H         1 BK6         0.0578
     32 H3         11.4294   14.8644   64.6434 H         1 BK6         0.0578
     33 H4         11.5572   16.3845   65.5919 H         1 BK6         0.0578
     34 H5         18.3822   12.9392   64.3203 H         1 BK6         0.1842
     35 H6         19.3097   11.4205   64.1933 H         1 BK6         0.1842
     36 H7         14.1049   13.4093   67.8984 H         1 BK6         0.0590
     37 H8         17.6349   16.9297   62.7411 H         1 BK6         0.0611
     38 H9         16.5163   13.5243   67.3922 H         1 BK6         0.0618
     39 H10        15.2060   16.8397   63.2270 H         1 BK6         0.0592
     40 H11        13.3404   16.0489   64.6000 H         1 BK6         0.0499
     41 H12        18.3558   14.2922   66.0462 H         1 BK6         0.0618
     42 H13        24.7598   18.0848   60.0389 H         1 BK6         0.0814
     43 H14        25.2481   19.7556   60.4825 H         1 BK6         0.0814
     44 H15        21.3326   18.9008   59.2144 H         1 BK6         0.0814
     45 H16        22.6236   17.6541   59.1395 H         1 BK6         0.0814
     46 H17        23.6384   19.6619   62.4296 H         1 BK6         0.0320
     47 H18        24.9397   18.4287   62.5421 H         1 BK6         0.0320
     48 H19        21.1922   17.0769   60.9975 H         1 BK6         0.0320
     49 H20        21.2053   18.7632   61.6163 H         1 BK6         0.0320
     50 H21        22.1063   18.4738   63.8669 H         1 BK6         0.0628
     51 H22        23.3616   17.2245   64.1669 H         1 BK6         0.0628
     52 H23        23.5033   19.8582   58.9063 H         1 BK6         0.2013
     53 H24        22.8719   20.3265   60.3526 H         1 BK6         0.2013
     54 H25        23.4310   16.6795   61.7292 H         1 BK6         0.0332
@<TRIPOS>BOND
     1    1    2 ar 
     2    6    1 ar 
     3    3    2 ar 
     4    4    3 ar 
     5    5    4 ar 
     6   29    4 1  
     7    5    6 ar 
     8   25    5 1  
     9    6    8 1  
    10   22    7 1  
    11   11    9 ar 
    12    9   23 ar 
    13   10   12 ar 
    14   24   10 ar 
    15   27   11 ar 
    16   12   26 ar 
    17   13   23 ar 
    18   26   13 ar 
    19   24   14 ar 
    20   14   27 ar 
    21   17   15 1  
    22   15   21 1  
    23   18   16 1  
    24   16   21 1  
    25   28   17 1  
    26   28   18 1  
    27   19   28 1  
    28   29   19 1  
    29   25   20 2  
    30   20   29 1  
    31   23   22 1  
    32   24   25 1  
    33   26   27 ar 
    34    2   30 1  
    35    7   31 1  
    36    7   32 1  
    37    7   33 1  
    38    8   34 1  
    39    8   35 1  
    40    9   36 1  
    41   10   37 1  
    42   11   38 1  
    43   12   39 1  
    44   13   40 1  
    45   14   41 1  
    46   15   42 1  
    47   15   43 1  
    48   16   44 1  
    49   16   45 1  
    50   17   46 1  
    51   17   47 1  
    52   18   48 1  
    53   18   49 1  
    54   19   50 1  
    55   19   51 1  
    56   21   52 1  
    57   21   53 1  
    58   28   54 1  
@<TRIPOS>SUBSTRUCTURE
     1 BK6         1

