### 
### Created by X-TOOL on Mon Sep 10 21:13:10 2018
### 

@<TRIPOS>MOLECULE
3t3v_ligand
   44    47     1     0     0
SMALL
GAST_HUCK


@<TRIPOS>ATOM
      1 N1         16.6860   11.6230   62.7000 N.ar      1 BK4        -0.2656
      2 C2         17.8850   12.1170   62.3690 C.ar      1 BK4         0.0565
      3 N3         18.0170   13.4350   62.2370 N.ar      1 BK4        -0.2675
      4 C4         16.9710   14.2700   62.4460 C.ar      1 BK4         0.1635
      5 C5         15.7240   13.7780   62.8070 C.ar      1 BK4         0.0869
      6 C6         15.5970   12.3920   62.9250 C.ar      1 BK4         0.1274
      7 CAA         6.8550   14.7480   64.6840 C.3       1 BK4         0.0598
      8 CAB        17.8850   17.8650   62.7010 C.3       1 BK4        -0.0338
      9 CAC        18.0400   16.6460   60.5130 C.3       1 BK4        -0.0338
     10 NAD        14.4590   11.7960   63.2550 N.pl3     1 BK4        -0.3126
     11 CAF         9.9480   13.5400   66.1590 C.ar      1 BK4        -0.0274
     12 CAG        12.6770   15.6350   62.5240 C.ar      1 BK4        -0.0571
     13 CAH        11.2900   13.5470   65.8390 C.ar      1 BK4        -0.0563
     14 CAI        11.3180   15.6600   62.8480 C.ar      1 BK4        -0.0594
     15 CAJ         9.4920   14.9730   64.2820 C.ar      1 BK4        -0.0289
     16 CAK        13.1130   14.2080   64.4130 C.ar      1 BK4        -0.0505
     17 NAN        15.6940   15.9700   62.6590 N.2       1 BK4        -0.1941
     18 OAO         7.7340   14.2360   65.7280 O.3       1 BK4        -0.3204
     19 CAP         9.0440   14.2530   65.3790 C.ar      1 BK4         0.0922
     20 CAQ        13.5810   14.9030   63.2960 C.ar      1 BK4        -0.0104
     21 CAS        14.9310   14.9120   62.9470 C.2       1 BK4         0.0707
     22 CAT        10.8480   14.9590   63.9550 C.ar      1 BK4        -0.0285
     23 CAU        11.7540   14.2350   64.7370 C.ar      1 BK4        -0.0244
     24 CAX        17.9820   16.4920   62.0380 C.3       1 BK4         0.0755
     25 NAY        16.8490   15.5990   62.3930 N.pl3     1 BK4        -0.1810
     26 H          18.7356   11.4540   62.2108 H         1 BK4         0.1030
     27 H           7.1231   15.7803   64.4590 H         1 BK4         0.0578
     28 H           6.9653   14.1388   63.7869 H         1 BK4         0.0578
     29 H           5.8216   14.7064   65.0282 H         1 BK4         0.0578
     30 H          18.7592   18.4587   62.4338 H         1 BK4         0.0259
     31 H          16.9823   18.3701   62.3573 H         1 BK4         0.0259
     32 H          17.8445   17.7424   63.7833 H         1 BK4         0.0259
     33 H          17.1376   17.1489   60.1653 H         1 BK4         0.0259
     34 H          18.9145   17.2375   60.2418 H         1 BK4         0.0259
     35 H          18.1090   15.6607   60.0520 H         1 BK4         0.0259
     36 H          13.6247   12.3542   63.4357 H         1 BK4         0.1842
     37 H          14.4182   10.7794   63.3281 H         1 BK4         0.1842
     38 H           9.5964   12.9758   67.0228 H         1 BK4         0.0590
     39 H          13.0352   16.1932   61.6590 H         1 BK4         0.0611
     40 H          11.9943   13.0007   66.4664 H         1 BK4         0.0618
     41 H          10.6233   16.2306   62.2316 H         1 BK4         0.0592
     42 H           8.7886   15.5467   63.6785 H         1 BK4         0.0499
     43 H          13.8090   13.6434   65.0334 H         1 BK4         0.0618
     44 H          18.8964   16.0303   62.4107 H         1 BK4         0.0655
@<TRIPOS>BOND
     1    2    1 ar 
     2    6    1 ar 
     3    3    2 ar 
     4    4    3 ar 
     5    4    5 ar 
     6   25    4 1  
     7    5    6 ar 
     8   21    5 1  
     9    6   10 1  
    10   18    7 1  
    11   24    8 1  
    12   24    9 1  
    13   13   11 ar 
    14   11   19 ar 
    15   12   14 ar 
    16   20   12 ar 
    17   23   13 ar 
    18   14   22 ar 
    19   15   19 ar 
    20   22   15 ar 
    21   20   16 ar 
    22   16   23 ar 
    23   17   21 2  
    24   25   17 1  
    25   19   18 1  
    26   21   20 1  
    27   23   22 ar 
    28   24   25 1  
    29    2   26 1  
    30    7   27 1  
    31    7   28 1  
    32    7   29 1  
    33    8   30 1  
    34    8   31 1  
    35    8   32 1  
    36    9   33 1  
    37    9   34 1  
    38    9   35 1  
    39   10   36 1  
    40   10   37 1  
    41   11   38 1  
    42   12   39 1  
    43   13   40 1  
    44   14   41 1  
    45   15   42 1  
    46   16   43 1  
    47   24   44 1  
@<TRIPOS>SUBSTRUCTURE
     1 BK4         1

