### 
### Created by X-TOOL on Mon Sep 10 21:13:09 2018
### 

@<TRIPOS>MOLECULE
3t3y_ligand
   19    19     1     0     0
SMALL
GAST_HUCK


@<TRIPOS>ATOM
      1 C          -4.5550    2.0150   -1.0340 C.2       1 MD6         0.1074
      2 N          -3.3510    2.3330    1.0150 N.2       1 MD6        -0.2130
      3 O          -4.3460    3.2900   -1.3020 O.co2     1 MD6        -0.5469
      4 CA         -4.2540    1.5010    0.3520 C.2       1 MD6         0.0826
      5 N2         -1.5960    2.4280    4.2610 N.ar      1 MD6        -0.2873
      6 OXT        -4.9610    1.2460   -1.8950 O.co2     1 MD6        -0.5469
      7 C3         -2.9920    2.0360    2.3550 C.2       1 MD6         0.2340
      8 O3         -3.4660    1.0410    2.8880 O.2       1 MD6        -0.3541
      9 C4         -2.0390    2.8830    3.0840 C.ar      1 MD6         0.1476
     10 O4         -2.1360    4.5090    1.3480 O.3       1 MD6        -0.3195
     11 C5         -0.7130    3.1390    4.9650 C.ar      1 MD6         0.0057
     12 C6         -0.2720    4.3590    4.4890 C.ar      1 MD6        -0.0380
     13 C7         -0.7400    4.8560    3.2640 C.ar      1 MD6        -0.0070
     14 C8         -1.6430    4.0900    2.5440 C.ar      1 MD6         0.1370
     15 H          -4.6861    0.5965    0.7802 H         1 MD6         0.1304
     16 H          -1.7553    5.3622    1.1274 H         1 MD6         0.2537
     17 H          -0.3397    2.7575    5.9154 H         1 MD6         0.0750
     18 H           0.4449    4.9393    5.0699 H         1 MD6         0.0715
     19 H          -0.4017    5.8213    2.8873 H         1 MD6         0.0677
@<TRIPOS>BOND
     1    1    3 ar 
     2    4    1 1  
     3    1    6 ar 
     4    2    4 2  
     5    7    2 1  
     6    9    5 ar 
     7    5   11 ar 
     8    7    8 2  
     9    7    9 1  
    10    9   14 ar 
    11   14   10 1  
    12   11   12 ar 
    13   12   13 ar 
    14   13   14 ar 
    15    4   15 1  
    16   10   16 1  
    17   11   17 1  
    18   12   18 1  
    19   13   19 1  
@<TRIPOS>SUBSTRUCTURE
     1 MD6         1

