### 
### Created by X-TOOL on Mon Sep 10 21:13:08 2018
### 

@<TRIPOS>MOLECULE
3t4h_ligand
   32    32     1     0     0
SMALL
GAST_HUCK


@<TRIPOS>ATOM
      1 C          -4.1580    1.3920   -0.8140 C.2       1 MD5         0.0611
      2 N          -3.2520    0.3820    1.1900 N.am      1 MD5        -0.2624
      3 OXT        -4.4760    2.3710   -1.5030 O.co2     1 MD5        -0.5666
      4 CA         -3.7560    1.6610    0.6620 C.3       1 MD5         0.1042
      5 CB         -2.5490    2.6300    0.6760 C.3       1 MD5         0.0308
      6 CAA        -2.8990   -1.2870    2.8840 C.2       1 MD5         0.1433
      7 CAB        -3.4690    0.0420    2.4750 C.2       1 MD5         0.2454
      8 OAH        -4.0980    0.7110    3.2780 O.2       1 MD5        -0.3655
      9 OAI        -3.0490   -1.6930    4.0630 O.co2     1 MD5        -0.5457
     10 OAJ        -2.3020   -1.9900    2.0410 O.co2     1 MD5        -0.5457
     11 SAL        -1.6770    2.9870    2.2780 S.3       1 MD5        -0.1429
     12 CAM        -2.7150    4.0820    3.2620 C.3       1 MD5         0.0288
     13 CAN        -2.2250    4.2980    4.5690 C.ar      1 MD5        -0.0253
     14 CAO        -1.1060    3.6620    5.1100 C.ar      1 MD5        -0.0542
     15 CAP        -0.7140    3.9290    6.4330 C.ar      1 MD5        -0.0603
     16 CAQ        -1.4410    4.8210    7.2370 C.ar      1 MD5        -0.0258
     17 CAR        -2.5620    5.4530    6.6850 C.ar      1 MD5         0.1930
     18 CAS        -2.9330    5.1740    5.3790 C.ar      1 MD5        -0.0169
     19 NAT        -3.3610    6.3270    7.3040 N.2       1 MD5         0.3131
     20 OAU        -3.1520    6.6820    8.5050 O.2       1 MD5         0.1781
     21 OAV        -4.4630    6.8510    6.5510 O.2       1 MD5         0.1781
     22 O          -4.1060    0.2190   -1.2520 O.co2     1 MD5        -0.5666
     23 H1         -2.7455   -0.2379    0.5907 H         1 MD5         0.1889
     24 H2         -4.6001    2.0514    1.2495 H         1 MD5         0.0736
     25 H3         -2.9085    3.5938    0.2863 H         1 MD5         0.0419
     26 H4         -1.7974    2.2141   -0.0110 H         1 MD5         0.0419
     27 H5         -3.7186    3.6377    3.3354 H         1 MD5         0.0539
     28 H6         -2.7805    5.0532    2.7497 H         1 MD5         0.0539
     29 H7         -0.5386    2.9610    4.5086 H         1 MD5         0.0600
     30 H8          0.1634    3.4385    6.8389 H         1 MD5         0.0614
     31 H9         -1.1418    5.0159    8.2605 H         1 MD5         0.0634
     32 H10        -3.8129    5.6604    4.9737 H         1 MD5         0.0630
@<TRIPOS>BOND
     1    1    3 ar 
     2    1    4 1  
     3    1   22 ar 
     4    4    2 1  
     5    2    7 am 
     6    4    5 1  
     7    5   11 1  
     8    7    6 1  
     9    6    9 ar 
    10    6   10 ar 
    11    7    8 2  
    12   11   12 1  
    13   12   13 1  
    14   13   14 ar 
    15   13   18 ar 
    16   14   15 ar 
    17   15   16 ar 
    18   16   17 ar 
    19   17   18 ar 
    20   17   19 1  
    21   19   20 2  
    22   19   21 2  
    23    2   23 1  
    24    4   24 1  
    25    5   25 1  
    26    5   26 1  
    27   12   27 1  
    28   12   28 1  
    29   14   29 1  
    30   15   30 1  
    31   16   31 1  
    32   18   32 1  
@<TRIPOS>SUBSTRUCTURE
     1 MD5         1

