### 
### Created by X-TOOL on Mon Sep 10 21:13:09 2018
### 

@<TRIPOS>MOLECULE
3t4p_ligand
   69    70     1     0     0
SMALL
GAST_HUCK


@<TRIPOS>ATOM
      1 N         -20.2060   -0.2040   13.0130 N.4       1 ASP         0.2391
      2 CA        -20.6690   -0.0310   11.5950 C.3       1 ASP         0.0765
      3 C         -19.6890    0.9030   10.8080 C.2       1 ASP         0.2285
      4 O         -18.4360    0.8270   10.9610 O.2       1 ASP        -0.3906
      5 CB        -22.1190    0.5660   11.5530 C.3       1 ASP         0.0607
      6 CG        -22.9120    0.1590   10.2830 C.2       1 ASP         0.0425
      7 OD1       -22.3780    0.1710    9.1500 O.co2     1 ASP        -0.5686
      8 OD2       -24.0920   -0.1970   10.4150 O.co2     1 ASP        -0.5686
      9 N         -20.2680    1.7820    9.9710 N.am      1 TRP        -0.2599
     10 CA        -19.7180    1.8400    8.6190 C.3       1 TRP         0.1353
     11 C         -18.5530    2.7490    8.4690 C.2       1 TRP         0.2052
     12 O         -18.3730    3.7290    9.2360 O.2       1 TRP        -0.3942
     13 CB        -20.7520    1.9940    7.5130 C.3       1 TRP         0.0042
     14 CG        -21.5630    3.1130    7.7690 C.2       1 TRP        -0.0418
     15 CD1       -22.6790    3.1800    8.6210 C.2       1 TRP         0.0167
     16 CD2       -21.3330    4.4180    7.2910 C.ar      1 TRP        -0.0214
     17 NE1       -23.1570    4.4610    8.6360 N.pl3     1 TRP        -0.2890
     18 CE2       -22.3540    5.2440    7.8330 C.ar      1 TRP         0.0603
     19 CE3       -20.3870    4.9770    6.4190 C.ar      1 TRP        -0.0747
     20 CZ2       -22.4350    6.5980    7.5510 C.ar      1 TRP        -0.0443
     21 CZ3       -20.4700    6.3090    6.1440 C.ar      1 TRP        -0.0792
     22 CH2       -21.4950    7.1120    6.6900 C.ar      1 TRP        -0.0768
     23 N         -17.7020    2.3240    7.5440 N.am      1 SER        -0.2615
     24 CA        -16.4540    2.9560    7.3910 C.3       1 SER         0.1539
     25 C         -16.2440    3.0210    5.8820 C.2       1 SER         0.2056
     26 O         -15.9120    1.9950    5.2580 O.2       1 SER        -0.3943
     27 CB        -15.3660    2.1130    8.0410 C.3       1 SER         0.0843
     28 OG        -14.1560    2.8130    7.9080 O.3       1 SER        -0.3903
     29 N         -16.5130    4.1920    5.3140 N.am      1 ILE        -0.2692
     30 CA        -16.5600    4.2950    3.8020 C.3       1 ILE         0.0969
     31 C         -15.8560    5.6430    3.3970 C.2       1 ILE         0.0604
     32 O         -16.3460    6.7480    3.8180 O.co2     1 ILE        -0.5666
     33 CB        -18.0570    4.2330    3.2670 C.3       1 ILE        -0.0092
     34 CG1       -18.6850    2.8400    3.5400 C.3       1 ILE        -0.0497
     35 CG2       -18.0840    4.5690    1.6980 C.3       1 ILE        -0.0588
     36 CD1       -20.2490    2.7180    3.1590 C.3       1 ILE        -0.0649
     37 OXT       -14.8440    5.5730    2.6160 O.co2     1 ILE        -0.5666
     38 H         -19.2629   -0.5926   13.0165 H         1 ASP         0.2016
     39 H         -20.2034    0.7020   13.4815 H         1 ASP         0.2016
     40 H         -20.8383   -0.8385   13.5008 H         1 ASP         0.2016
     41 H         -20.6802   -1.0131   11.1222 H         1 ASP         0.1117
     42 H         -22.0287    1.6523   11.5517 H         1 ASP         0.0512
     43 H         -22.6597    0.1805   12.4173 H         1 ASP         0.0512
     44 H         -21.0458    2.3737   10.2632 H         1 TRP         0.1886
     45 H         -19.3140    0.8381    8.4735 H         1 TRP         0.0815
     46 H         -21.3743    1.0999    7.4755 H         1 TRP         0.0397
     47 H         -20.2413    2.1306    6.5598 H         1 TRP         0.0397
     48 H         -23.0971    2.3435    9.1809 H         1 TRP         0.0795
     49 H         -23.9731    4.7844    9.1555 H         1 TRP         0.2216
     50 H         -19.6057    4.3617    5.9729 H         1 TRP         0.0540
     51 H         -23.2086    7.2268    7.9917 H         1 TRP         0.0541
     52 H         -19.7285    6.7648    5.4878 H         1 TRP         0.0510
     53 H         -21.5421    8.1674    6.4216 H         1 TRP         0.0530
     54 H         -17.9526    1.5386    6.9434 H         1 SER         0.1884
     55 H         -16.4188    3.9410    7.8565 H         1 SER         0.0823
     56 H         -15.2983    1.1383    7.5578 H         1 SER         0.0606
     57 H         -15.5938    1.9407    9.0929 H         1 SER         0.0606
     58 H         -14.2298    3.6637    8.3468 H         1 SER         0.2097
     59 H         -16.6865    5.0152    5.8908 H         1 ILE         0.1875
     60 H         -16.0396    3.4517    3.3480 H         1 ILE         0.0729
     61 H         -18.6513    4.9755    3.7995 H         1 ILE         0.0338
     62 H         -18.6050    2.6608    4.6122 H         1 ILE         0.0267
     63 H         -18.1500    2.1234    2.9168 H         1 ILE         0.0267
     64 H         -17.6821    5.5690    1.5349 H         1 ILE         0.0234
     65 H         -17.4769    3.8401    1.1611 H         1 ILE         0.0234
     66 H         -19.1112    4.5254    1.3360 H         1 ILE         0.0234
     67 H         -20.8208    3.4413    3.7404 H         1 ILE         0.0230
     68 H         -20.3795    2.9200    2.0959 H         1 ILE         0.0230
     69 H         -20.5990    1.7106    3.3844 H         1 ILE         0.0230
@<TRIPOS>BOND
     1    1    2 1  
     2    2    3 1  
     3    2    5 1  
     4    3    4 2  
     5    3    9 am 
     6    5    6 1  
     7    6    7 ar 
     8    6    8 ar 
     9    9   10 1  
    10   10   11 1  
    11   10   13 1  
    12   11   12 2  
    13   11   23 am 
    14   13   14 1  
    15   14   15 2  
    16   14   16 1  
    17   15   17 1  
    18   16   18 ar 
    19   16   19 ar 
    20   17   18 1  
    21   18   20 ar 
    22   19   21 ar 
    23   20   22 ar 
    24   21   22 ar 
    25   23   24 1  
    26   24   25 1  
    27   24   27 1  
    28   25   26 2  
    29   25   29 am 
    30   27   28 1  
    31   29   30 1  
    32   30   31 1  
    33   30   33 1  
    34   31   32 ar 
    35   31   37 ar 
    36   33   34 1  
    37   33   35 1  
    38   34   36 1  
    39    1   38 1  
    40    1   39 1  
    41    1   40 1  
    42    2   41 1  
    43    5   42 1  
    44    5   43 1  
    45    9   44 1  
    46   10   45 1  
    47   13   46 1  
    48   13   47 1  
    49   15   48 1  
    50   17   49 1  
    51   19   50 1  
    52   20   51 1  
    53   21   52 1  
    54   22   53 1  
    55   23   54 1  
    56   24   55 1  
    57   27   56 1  
    58   27   57 1  
    59   28   58 1  
    60   29   59 1  
    61   30   60 1  
    62   33   61 1  
    63   34   62 1  
    64   34   63 1  
    65   35   64 1  
    66   35   65 1  
    67   35   66 1  
    68   36   67 1  
    69   36   68 1  
    70   36   69 1  
@<TRIPOS>SUBSTRUCTURE
     1 ASP         1

