### 
### Created by X-TOOL on Mon Sep 10 21:13:09 2018
### 

@<TRIPOS>MOLECULE
3t4v_ligand
   36    37     1     0     0
SMALL
GAST_HUCK


@<TRIPOS>ATOM
      1 C16        -1.7340    5.2050    6.3600 C.ar      1 MD3        -0.0578
      2 N          -3.3650    0.5850    1.0330 N.am      1 MD3        -0.2624
      3 O05        -1.5000   -1.2090    1.8320 O.co2     1 MD3        -0.5457
      4 SG         -3.0860    3.9080    0.1400 S.3       1 MD3        -0.1427
      5 C01        -2.1510   -0.6860    2.7790 C.2       1 MD3         0.1433
      6 OXT        -4.1270    0.0620   -1.4300 O.co2     1 MD3        -0.5666
      7 C02        -3.2460    0.2300    2.4010 C.2       1 MD3         0.2454
      8 O          -4.7060    2.1220   -1.7700 O.co2     1 MD3        -0.5666
      9 CA         -4.3950    1.4060    0.4960 C.3       1 MD3         0.1042
     10 O03        -4.0120    0.6340    3.2280 O.2       1 MD3        -0.3655
     11 C          -4.4070    1.1960   -0.9840 C.2       1 MD3         0.0611
     12 O04        -1.9180   -0.9550    3.9970 O.co2     1 MD3        -0.5457
     13 CB         -4.3410    2.8650    0.8490 C.3       1 MD3         0.0308
     14 C06        -2.6680    4.9440    1.5220 C.3       1 MD3         0.0278
     15 C07        -2.0630    4.3640    2.7620 C.ar      1 MD3        -0.0324
     16 C08        -1.3280    3.1830    2.7080 C.ar      1 MD3        -0.0558
     17 C09        -0.7400    2.6940    3.8680 C.ar      1 MD3        -0.0567
     18 C10        -0.8740    3.3530    5.0910 C.ar      1 MD3        -0.0222
     19 C11        -2.1910    5.0380    3.9700 C.ar      1 MD3        -0.0541
     20 C12        -1.5940    4.5390    5.1390 C.ar      1 MD3        -0.0258
     21 C13        -0.2890    2.8320    6.2630 C.ar      1 MD3        -0.0568
     22 C14        -0.4140    3.5120    7.4730 C.ar      1 MD3        -0.0634
     23 C15        -1.1550    4.7010    7.5180 C.ar      1 MD3        -0.0637
     24 H1         -2.3020    6.1272    6.4039 H         1 MD3         0.0603
     25 H2         -2.6752    0.2328    0.4005 H         1 MD3         0.1889
     26 H3         -5.3470    1.0298    0.8986 H         1 MD3         0.0736
     27 H4         -5.3113    3.2967    0.5625 H         1 MD3         0.0419
     28 H5         -4.2219    2.9229    1.9410 H         1 MD3         0.0419
     29 H6         -3.5978    5.4438    1.8314 H         1 MD3         0.0540
     30 H7         -1.9558    5.6939    1.1473 H         1 MD3         0.0540
     31 H8         -1.2156    2.6504    1.7706 H         1 MD3         0.0586
     32 H9         -0.1627    1.7777    3.8220 H         1 MD3         0.0620
     33 H10        -2.7587    5.9605    4.0107 H         1 MD3         0.0531
     34 H11         0.2604    1.8984    6.2229 H         1 MD3         0.0619
     35 H12         0.0567    3.1256    8.3697 H         1 MD3         0.0598
     36 H13        -1.2764    5.2279    8.4575 H         1 MD3         0.0611
@<TRIPOS>BOND
     1   20    1 ar 
     2    1   23 ar 
     3    2    7 am 
     4    9    2 1  
     5    5    3 ar 
     6    4   13 1  
     7   14    4 1  
     8    7    5 1  
     9    5   12 ar 
    10   11    6 ar 
    11    7   10 2  
    12   11    8 ar 
    13    9   11 1  
    14   13    9 1  
    15   15   14 1  
    16   16   15 ar 
    17   15   19 ar 
    18   17   16 ar 
    19   18   17 ar 
    20   18   20 ar 
    21   18   21 ar 
    22   19   20 ar 
    23   21   22 ar 
    24   22   23 ar 
    25    1   24 1  
    26    2   25 1  
    27    9   26 1  
    28   13   27 1  
    29   13   28 1  
    30   14   29 1  
    31   14   30 1  
    32   16   31 1  
    33   17   32 1  
    34   19   33 1  
    35   21   34 1  
    36   22   35 1  
    37   23   36 1  
@<TRIPOS>SUBSTRUCTURE
     1 MD3         1

