### 
### Created by X-TOOL on Mon Sep 10 21:13:06 2018
### 

@<TRIPOS>MOLECULE
3t5i_ligand
   40    39     1     0     0
SMALL
GAST_HUCK


@<TRIPOS>ATOM
      1 N          34.1860   -9.5890   13.3900 N.4       1 SER         0.2396
      2 CA         32.8120   -9.8620   13.7930 C.3       1 SER         0.0885
      3 C          32.7480  -11.0160   14.7880 C.2       1 SER         0.2290
      4 O          31.7930  -11.1340   15.5560 O.2       1 SER        -0.3906
      5 CB         31.9460  -10.1730   12.5710 C.3       1 SER         0.1041
      6 OG         32.7380  -10.6290   11.4880 O.3       1 SER        -0.3870
      7 N          33.7710  -11.8650   14.7690 N.am      1 SER        -0.2588
      8 CA         33.8330  -13.0100   15.6690 C.3       1 SER         0.1540
      9 C          34.4540  -12.6260   17.0070 C.2       1 SER         0.2063
     10 O          34.3810  -13.3820   17.9760 O.2       1 SER        -0.3943
     11 CB         34.6260  -14.1510   15.0290 C.3       1 SER         0.0843
     12 OG         35.9710  -14.1510   15.4750 O.3       1 SER        -0.3903
     13 N          35.0190  -11.4650   17.0660 N.am      1 CMT        -0.2615
     14 CA         35.6810  -10.9550   18.2760 C.3       1 CMT         0.1509
     15 C          35.1930   -9.5330   18.5640 C.2       1 CMT         0.2601
     16 O          35.1170   -8.6960   17.6660 O.2       1 CMT        -0.3678
     17 CB         37.2010  -10.9480   18.1080 C.3       1 CMT         0.0324
     18 SG         38.0660  -10.0630   19.4570 S.3       1 CMT        -0.1734
     19 OXT        34.8610   -9.2910   19.8600 O.3       1 CMT        -0.2784
     20 C1         34.0660   -8.1040   19.9350 C.3       1 CMT         0.0658
     21 H          34.7472   -9.3842   14.2167 H         1 SER         0.2016
     22 H          34.5676  -10.4055   12.9123 H         1 SER         0.2016
     23 H          34.2013   -8.7870   12.7600 H         1 SER         0.2016
     24 H          32.4250   -8.9681   14.2822 H         1 SER         0.1122
     25 H          31.4308   -9.2617   12.2673 H         1 SER         0.0640
     26 H          31.2349  -10.9551   12.8370 H         1 SER         0.0640
     27 H          32.1719  -10.8166   10.7357 H         1 SER         0.2099
     28 H          34.5321  -11.7112   14.1076 H         1 SER         0.1885
     29 H          32.8126  -13.3469   15.8515 H         1 SER         0.0823
     30 H          34.6174  -14.0176   13.9472 H         1 SER         0.0606
     31 H          34.1650  -15.0974   15.3117 H         1 SER         0.0606
     32 H          36.3854  -13.3180   15.2383 H         1 SER         0.2097
     33 H          35.0050  -10.8748   16.2342 H         1 CMT         0.1885
     34 H          35.4293  -11.6114   19.1090 H         1 CMT         0.0825
     35 H          37.4294  -10.4344   17.1741 H         1 CMT         0.0423
     36 H          37.5410  -11.9836   18.1189 H         1 CMT         0.0423
     37 H          39.3777  -10.1008   19.2402 H         1 CMT         0.1019
     38 H          34.6351   -7.2616   19.5417 H         1 CMT         0.0577
     39 H          33.1588   -8.2380   19.3458 H         1 CMT         0.0577
     40 H          33.8005   -7.9111   20.9744 H         1 CMT         0.0577
@<TRIPOS>BOND
     1    1    2 1  
     2    2    3 1  
     3    2    5 1  
     4    3    4 2  
     5    3    7 am 
     6    5    6 1  
     7    7    8 1  
     8    8    9 1  
     9    8   11 1  
    10    9   10 2  
    11    9   13 am 
    12   11   12 1  
    13   13   14 1  
    14   14   15 1  
    15   14   17 1  
    16   15   16 2  
    17   15   19 1  
    18   17   18 1  
    19   19   20 1  
    20    1   21 1  
    21    1   22 1  
    22    1   23 1  
    23    2   24 1  
    24    5   25 1  
    25    5   26 1  
    26    6   27 1  
    27    7   28 1  
    28    8   29 1  
    29   11   30 1  
    30   11   31 1  
    31   12   32 1  
    32   13   33 1  
    33   14   34 1  
    34   17   35 1  
    35   17   36 1  
    36   18   37 1  
    37   20   38 1  
    38   20   39 1  
    39   20   40 1  
@<TRIPOS>SUBSTRUCTURE
     1 SER         1

