### 
### Created by X-TOOL on Mon Sep 10 21:13:09 2018
### 

@<TRIPOS>MOLECULE
3t5u_ligand
   18    18     1     0     0
SMALL
GAST_HUCK


@<TRIPOS>ATOM
      1 C1         -5.7290    2.5010   16.0620 C.ar      1 A09         0.1103
      2 N1         -5.3440   -0.2420   15.9170 N.am      1 A09        -0.1271
      3 O1         -7.4220    0.7610   16.8340 O.2       1 A09        -0.1484
      4 S1         -5.9960    0.9500   16.8370 S.o2      1 A09         0.0895
      5 C2         -6.1530    3.6760   16.7270 C.ar      1 A09        -0.0350
      6 O2         -5.3020    0.9690   18.0930 O.2       1 A09        -0.1484
      7 C3         -5.9430    4.9200   16.1000 C.ar      1 A09        -0.0599
      8 O3         -3.9270   -0.2150   15.9740 O.3       1 A09        -0.2816
      9 C4         -5.3300    4.9880   14.8430 C.ar      1 A09        -0.0616
     10 C5         -4.9160    3.8230   14.1940 C.ar      1 A09        -0.0599
     11 C6         -5.1080    2.5600   14.7900 C.ar      1 A09        -0.0350
     12 H1         -5.8760   -0.9012   15.3856 H         1 A09         0.2016
     13 H2         -6.6296    3.6200   17.6990 H         1 A09         0.0637
     14 H3         -6.2584    5.8316   16.5946 H         1 A09         0.0618
     15 H4         -3.6450   -0.3361   16.8731 H         1 A09         0.2429
     16 H5         -5.1758    5.9514   14.3706 H         1 A09         0.0618
     17 H6         -4.4419    3.8905   13.2215 H         1 A09         0.0618
     18 H7         -4.7879    1.6549   14.2867 H         1 A09         0.0637
@<TRIPOS>BOND
     1    1    4 1  
     2    1    5 ar 
     3    1   11 ar 
     4    4    2 am 
     5    2    8 1  
     6    4    3 2  
     7    4    6 2  
     8    5    7 ar 
     9    7    9 ar 
    10    9   10 ar 
    11   10   11 ar 
    12    2   12 1  
    13    5   13 1  
    14    7   14 1  
    15    8   15 1  
    16    9   16 1  
    17   10   17 1  
    18   11   18 1  
@<TRIPOS>SUBSTRUCTURE
     1 A09         1

