### 
### Created by X-TOOL on Mon Sep 10 21:13:10 2018
### 

@<TRIPOS>MOLECULE
3t60_ligand
   63    67     1     0     0
SMALL
GAST_HUCK


@<TRIPOS>ATOM
      1 N1         -5.6520   25.7220   -1.0160 N.am      1 DUA        -0.1618
      2 O1         -9.0410   28.3750    0.5650 O.3       1 DUA        -0.3888
      3 C2         -5.1560   24.5720   -1.6280 C.2       1 DUA         0.3327
      4 N2         -9.2460   26.9770   -3.9140 N.4       1 DUA         0.1484
      5 O2         -5.8610   23.5750   -1.6300 O.2       1 DUA        -0.3815
      6 N3         -3.9330   24.5570   -2.1750 N.am      1 DUA        -0.1865
      7 C4         -3.1820   25.6630   -2.1410 C.2       1 DUA         0.1822
      8 O4         -2.0680   25.6520   -2.6660 O.2       1 DUA        -0.4124
      9 C5         -3.6510   26.8560   -1.5580 C.2       1 DUA         0.0062
     10 C6         -4.9260   26.8740   -0.9960 C.2       1 DUA         0.0590
     11 C1'        -6.9960   25.7970   -0.5180 C.3       1 DUA         0.1801
     12 C17        -8.7140   27.4210   -5.1760 C.3       1 DUA         0.0009
     13 C18        -9.5340   26.4380   -6.0870 C.ar      1 DUA        -0.0360
     14 C19       -10.8330   26.0010   -5.7150 C.ar      1 DUA        -0.0512
     15 C2'        -7.4030   26.5020    0.7230 C.3       1 DUA         0.0317
     16 C20       -11.6090   25.1370   -6.5420 C.ar      1 DUA        -0.0433
     17 C21       -11.1410   24.6460   -7.7600 C.ar      1 DUA        -0.0437
     18 C22        -9.8590   25.0720   -8.1510 C.ar      1 DUA        -0.0433
     19 C23        -9.1120   25.9460   -7.3370 C.ar      1 DUA        -0.0512
     20 C24        -7.2600   27.2370   -5.3730 C.ar      1 DUA        -0.0360
     21 C25        -6.2920   28.2180   -5.6750 C.ar      1 DUA        -0.0512
     22 C26        -4.9290   27.9200   -5.6980 C.ar      1 DUA        -0.0433
     23 C27        -4.5070   26.6340   -5.4300 C.ar      1 DUA        -0.0437
     24 C28        -5.4380   25.6500   -5.1130 C.ar      1 DUA        -0.0433
     25 C29        -6.7980   25.9400   -5.0600 C.ar      1 DUA        -0.0512
     26 C3'        -8.1150   27.5720   -0.1510 C.3       1 DUA         0.0915
     27 C30        -9.1990   28.7660   -5.7100 C.ar      1 DUA        -0.0360
     28 C31        -9.3860   29.8140   -4.8000 C.ar      1 DUA        -0.0512
     29 C32        -9.8450   31.0780   -5.1940 C.ar      1 DUA        -0.0433
     30 C33       -10.1150   31.3640   -6.5390 C.ar      1 DUA        -0.0437
     31 C34        -9.9170   30.3790   -7.4980 C.ar      1 DUA        -0.0433
     32 C35        -9.4340   29.1210   -7.0620 C.ar      1 DUA        -0.0512
     33 C4'        -8.8120   26.8910   -1.3450 C.3       1 DUA         0.1276
     34 O4'        -8.0780   25.6840   -1.4460 O.3       1 DUA        -0.3360
     35 C5'        -8.7670   27.6680   -2.6810 C.3       1 DUA        -0.0112
     36 H1         -9.4371   29.0038   -0.0268 H         1 DUA         0.2099
     37 H2         -9.0203   25.9992   -3.8187 H         1 DUA         0.1950
     38 H3        -10.2471   27.0886   -3.9526 H         1 DUA         0.1950
     39 H4         -3.5842   23.7246   -2.6057 H         1 DUA         0.2259
     40 H5         -3.0280   27.7491   -1.5466 H         1 DUA         0.0258
     41 H6         -5.3303   27.7832   -0.5535 H         1 DUA         0.1178
     42 H7         -7.0241   24.7752   -0.1118 H         1 DUA         0.0970
     43 H8        -11.2482   26.3354   -4.7711 H         1 DUA         0.0762
     44 H9         -6.5641   26.8896    1.3197 H         1 DUA         0.0345
     45 H10        -8.0782   25.9244    1.3714 H         1 DUA         0.0345
     46 H11       -12.6008   24.8509   -6.2111 H         1 DUA         0.0669
     47 H12       -11.7320   23.9737   -8.3713 H         1 DUA         0.0772
     48 H13        -9.4412   24.7241   -9.0888 H         1 DUA         0.0669
     49 H14        -8.1409   26.2631   -7.6996 H         1 DUA         0.0762
     50 H15        -6.6154   29.2290   -5.8948 H         1 DUA         0.0762
     51 H16        -4.2056   28.6947   -5.9252 H         1 DUA         0.0669
     52 H17        -3.4513   26.3906   -5.4664 H         1 DUA         0.0772
     53 H18        -5.0988   24.6419   -4.9041 H         1 DUA         0.0669
     54 H19        -7.5047   25.1680   -4.7776 H         1 DUA         0.0762
     55 H20        -7.3381   28.2429   -0.5464 H         1 DUA         0.0623
     56 H21        -9.1677   29.6410   -3.7524 H         1 DUA         0.0762
     57 H22        -9.9938   31.8478   -4.4455 H         1 DUA         0.0669
     58 H23       -10.4750   32.3447   -6.8282 H         1 DUA         0.0772
     59 H24       -10.1252   30.5668   -8.5451 H         1 DUA         0.0669
     60 H25        -9.2285   28.3732   -7.8194 H         1 DUA         0.0762
     61 H26        -9.8657   26.6921   -1.0998 H         1 DUA         0.0677
     62 H27        -9.3812   28.5716   -2.5538 H         1 DUA         0.0842
     63 H28        -7.7202   27.9576   -2.8549 H         1 DUA         0.0842
@<TRIPOS>BOND
     1    1    3 am 
     2    1   10 1  
     3   11    1 1  
     4   26    2 1  
     5    3    5 2  
     6    3    6 am 
     7    4   12 1  
     8   35    4 1  
     9    6    7 am 
    10    7    8 2  
    11    9    7 1  
    12   10    9 2  
    13   11   15 1  
    14   34   11 1  
    15   12   13 1  
    16   12   20 1  
    17   12   27 1  
    18   13   14 ar 
    19   13   19 ar 
    20   14   16 ar 
    21   26   15 1  
    22   16   17 ar 
    23   18   17 ar 
    24   19   18 ar 
    25   20   21 ar 
    26   20   25 ar 
    27   21   22 ar 
    28   22   23 ar 
    29   24   23 ar 
    30   25   24 ar 
    31   33   26 1  
    32   27   28 ar 
    33   27   32 ar 
    34   28   29 ar 
    35   29   30 ar 
    36   31   30 ar 
    37   32   31 ar 
    38   33   34 1  
    39   33   35 1  
    40    2   36 1  
    41    4   37 1  
    42    4   38 1  
    43    6   39 1  
    44    9   40 1  
    45   10   41 1  
    46   11   42 1  
    47   14   43 1  
    48   15   44 1  
    49   15   45 1  
    50   16   46 1  
    51   17   47 1  
    52   18   48 1  
    53   19   49 1  
    54   21   50 1  
    55   22   51 1  
    56   23   52 1  
    57   24   53 1  
    58   25   54 1  
    59   26   55 1  
    60   28   56 1  
    61   29   57 1  
    62   30   58 1  
    63   31   59 1  
    64   32   60 1  
    65   33   61 1  
    66   35   62 1  
    67   35   63 1  
@<TRIPOS>SUBSTRUCTURE
     1 DUA         1

