### 
### Created by X-TOOL on Mon Sep 10 21:13:10 2018
### 

@<TRIPOS>MOLECULE
3t64_ligand
   53    56     1     0     0
SMALL
GAST_HUCK


@<TRIPOS>ATOM
      1 N1         -5.9640   25.7710   -0.8820 N.am      1 DU3        -0.1618
      2 C2         -5.4540   24.6600   -1.5370 C.2       1 DU3         0.3327
      3 O2         -6.1020   23.6150   -1.6120 O.2       1 DU3        -0.3815
      4 N3         -4.1800   24.7290   -2.1160 N.am      1 DU3        -0.1865
      5 C4         -3.4520   25.9080   -2.0460 C.2       1 DU3         0.1822
      6 O4         -2.3450   25.9210   -2.5750 O.2       1 DU3        -0.4124
      7 C5         -3.9510   27.0320   -1.3800 C.2       1 DU3         0.0062
      8 C6         -5.2280   26.9610   -0.7950 C.2       1 DU3         0.0590
      9 C1'        -7.3370   25.6430   -0.3210 C.3       1 DU3         0.1801
     10 C17        -8.9150   27.3350   -5.2680 C.3       1 DU3         0.0443
     11 C18        -9.4370   26.5790   -6.5100 C.ar      1 DU3         0.0157
     12 C19        -9.4420   27.2280   -7.7440 C.ar      1 DU3        -0.0530
     13 C2'        -7.7150   26.8020    0.5760 C.3       1 DU3         0.0317
     14 C20        -9.8990   26.5880   -8.8910 C.ar      1 DU3        -0.0680
     15 C21       -10.3380   25.2760   -8.8070 C.ar      1 DU3        -0.0685
     16 C22       -10.3250   24.6220   -7.5830 C.ar      1 DU3        -0.0680
     17 C23        -9.8740   25.2660   -6.4370 C.ar      1 DU3        -0.0530
     18 C24        -7.4060   27.1260   -5.2960 C.ar      1 DU3         0.0157
     19 C25        -6.5960   28.1430   -5.8020 C.ar      1 DU3        -0.0530
     20 C26        -5.2150   27.9510   -5.8340 C.ar      1 DU3        -0.0680
     21 C27        -4.6520   26.7590   -5.3860 C.ar      1 DU3        -0.0685
     22 C28        -5.4650   25.7480   -4.9060 C.ar      1 DU3        -0.0680
     23 C29        -6.8420   25.9210   -4.8550 C.ar      1 DU3        -0.0530
     24 C3'        -8.4930   27.7450   -0.3210 C.3       1 DU3         0.0915
     25 O3'        -9.5870   28.2850    0.4360 O.3       1 DU3        -0.3888
     26 C4'        -9.0440   26.9030   -1.4640 C.3       1 DU3         0.1275
     27 O4'        -8.1510   25.7350   -1.5210 O.3       1 DU3        -0.3360
     28 C5'        -9.1460   27.7540   -2.8030 C.3       1 DU3        -0.0012
     29 N5'        -9.5240   26.8980   -3.9780 N.4       1 DU3         0.2547
     30 H1         -3.7962   23.9300   -2.5788 H         1 DU3         0.2259
     31 H2         -3.3616   27.9454   -1.3156 H         1 DU3         0.0258
     32 H3         -5.6425   27.8250   -0.2777 H         1 DU3         0.1178
     33 H4         -7.4696   24.6885    0.2094 H         1 DU3         0.0970
     34 H5         -9.1346   28.4062   -5.3871 H         1 DU3         0.1178
     35 H6         -9.0836   28.2489   -7.8105 H         1 DU3         0.0563
     36 H7         -6.8152   27.2964    0.9710 H         1 DU3         0.0345
     37 H8         -8.3410   26.4573    1.4122 H         1 DU3         0.0345
     38 H9         -9.9117   27.1099   -9.8410 H         1 DU3         0.0600
     39 H10       -10.6903   24.7625   -9.6943 H         1 DU3         0.0561
     40 H11       -10.6708   23.5966   -7.5201 H         1 DU3         0.0600
     41 H12        -9.8641   24.7423   -5.4880 H         1 DU3         0.0563
     42 H13        -7.0326   29.0667   -6.1641 H         1 DU3         0.0563
     43 H14        -4.5729   28.7384   -6.2118 H         1 DU3         0.0600
     44 H15        -3.5769   26.6233   -5.4133 H         1 DU3         0.0561
     45 H16        -5.0253   24.8165   -4.5682 H         1 DU3         0.0600
     46 H17        -7.4772   25.1284   -4.4762 H         1 DU3         0.0563
     47 H18        -7.8495   28.5519   -0.7016 H         1 DU3         0.0623
     48 H19       -10.0866   28.8794   -0.1114 H         1 DU3         0.2099
     49 H20       -10.0586   26.5594   -1.2141 H         1 DU3         0.0677
     50 H21        -8.1711   28.2228   -3.0025 H         1 DU3         0.0841
     51 H22        -9.9087   28.5356   -2.6714 H         1 DU3         0.0841
     52 H23        -9.2262   25.9534   -3.7908 H         1 DU3         0.2046
     53 H24       -10.5268   26.9208   -4.0771 H         1 DU3         0.2046
@<TRIPOS>BOND
     1    1    2 am 
     2    1    8 1  
     3    9    1 1  
     4    2    3 2  
     5    2    4 am 
     6    4    5 am 
     7    5    6 2  
     8    7    5 1  
     9    8    7 2  
    10    9   13 1  
    11   27    9 1  
    12   10   11 1  
    13   10   18 1  
    14   29   10 1  
    15   11   12 ar 
    16   11   17 ar 
    17   12   14 ar 
    18   24   13 1  
    19   14   15 ar 
    20   16   15 ar 
    21   17   16 ar 
    22   18   19 ar 
    23   18   23 ar 
    24   19   20 ar 
    25   20   21 ar 
    26   22   21 ar 
    27   23   22 ar 
    28   24   25 1  
    29   26   24 1  
    30   26   27 1  
    31   28   26 1  
    32   28   29 1  
    33    4   30 1  
    34    7   31 1  
    35    8   32 1  
    36    9   33 1  
    37   10   34 1  
    38   12   35 1  
    39   13   36 1  
    40   13   37 1  
    41   14   38 1  
    42   15   39 1  
    43   16   40 1  
    44   17   41 1  
    45   19   42 1  
    46   20   43 1  
    47   21   44 1  
    48   22   45 1  
    49   23   46 1  
    50   24   47 1  
    51   25   48 1  
    52   26   49 1  
    53   28   50 1  
    54   28   51 1  
    55   29   52 1  
    56   29   53 1  
@<TRIPOS>SUBSTRUCTURE
     1 DU3         1

