### 
### Created by X-TOOL on Mon Sep 10 21:13:10 2018
### 

@<TRIPOS>MOLECULE
3t6b_ligand
   94    97     1     0     0
SMALL
GAST_HUCK


@<TRIPOS>ATOM
      1 N          22.6620   14.8870   56.5560 N.4       1 VAL         0.2381
      2 CA         21.9220   16.1400   56.4230 C.3       1 VAL         0.0673
      3 C          21.6820   16.5190   54.9610 C.2       1 VAL         0.2270
      4 O          22.5490   16.3480   54.1050 O.2       1 VAL        -0.3907
      5 CB         22.6340   17.3000   57.1240 C.3       1 VAL         0.0139
      6 CG1        21.8320   18.5630   56.9450 C.3       1 VAL        -0.0553
      7 CG2        22.8120   16.9930   58.5990 C.3       1 VAL        -0.0553
      8 N          20.5010   17.0510   54.6840 N.am      1 VAL        -0.2608
      9 CA         20.0580   17.2340   53.3110 C.3       1 VAL         0.1334
     10 C          19.9000   18.7040   52.9200 C.2       1 VAL         0.2043
     11 O          19.6540   19.5620   53.7670 O.2       1 VAL        -0.3944
     12 CB         18.7280   16.4790   53.0850 C.3       1 VAL        -0.0063
     13 CG1        17.8770   17.1760   52.0560 C.3       1 VAL        -0.0584
     14 CG2        18.9940   15.0180   52.7040 C.3       1 VAL        -0.0584
     15 N          20.0950   18.9860   51.6340 N.am      1 TYR        -0.2621
     16 CA         19.6810   20.2480   51.0370 C.3       1 TYR         0.1392
     17 C          18.5990   19.9510   50.0020 C.2       1 TYR         0.2082
     18 O          18.8740   19.3250   48.9770 O.2       1 TYR        -0.3940
     19 CB         20.8580   20.9520   50.3660 C.3       1 TYR         0.0164
     20 CG         20.5330   22.3520   49.8830 C.ar      1 TYR        -0.0493
     21 CD1        20.9330   23.4690   50.6070 C.ar      1 TYR        -0.0685
     22 CD2        19.8150   22.5550   48.7090 C.ar      1 TYR        -0.0685
     23 CE1        20.6350   24.7450   50.1710 C.ar      1 TYR        -0.0398
     24 CE2        19.5150   23.8240   48.2640 C.ar      1 TYR        -0.0398
     25 CZ         19.9250   24.9170   48.9970 C.ar      1 TYR         0.0805
     26 OH         19.6220   26.1860   48.5540 O.3       1 TYR        -0.3376
     27 N          17.3600   20.3870   50.2710 N.am      1 PRO        -0.2497
     28 CA         16.2200   20.1250   49.3890 C.3       1 PRO         0.1337
     29 C          16.2120   21.0490   48.1780 C.2       1 PRO         0.2036
     30 O          16.7760   22.1390   48.2350 O.2       1 PRO        -0.3944
     31 CB         15.0290   20.4560   50.2810 C.3       1 PRO        -0.0104
     32 CG         15.5330   21.5740   51.1240 C.3       1 PRO        -0.0281
     33 CD         16.9730   21.2220   51.4220 C.3       1 PRO         0.0369
     34 N          15.5690   20.6280   47.0980 N.am      1 TRP        -0.2684
     35 CA         15.4040   21.5100   45.9510 C.3       1 TRP         0.0986
     36 C          14.1120   22.3030   46.1010 C.2       1 TRP         0.0613
     37 O          13.6180   22.4530   47.2190 O.co2     1 TRP        -0.5665
     38 CB         15.4240   20.7260   44.6370 C.3       1 TRP        -0.0013
     39 CG         14.5810   19.4960   44.6520 C.2       1 TRP        -0.0424
     40 CD1        14.9780   18.2370   44.9940 C.2       1 TRP         0.0166
     41 CD2        13.1930   19.4010   44.3120 C.ar      1 TRP        -0.0214
     42 NE1        13.9230   17.3620   44.8870 N.pl3     1 TRP        -0.2891
     43 CE2        12.8160   18.0510   44.4690 C.ar      1 TRP         0.0603
     44 CE3        12.2320   20.3270   43.8920 C.ar      1 TRP        -0.0747
     45 CZ2        11.5230   17.6020   44.2200 C.ar      1 TRP        -0.0443
     46 CZ3        10.9450   19.8800   43.6460 C.ar      1 TRP        -0.0792
     47 CH2        10.6030   18.5290   43.8080 C.ar      1 TRP        -0.0768
     48 OXT        13.5430   22.8180   45.1350 O.co2     1 TRP        -0.5665
     49 H1         22.1627   14.1501   56.0830 H         1 VAL         0.2015
     50 H2         22.7575   14.6551   57.5323 H         1 VAL         0.2015
     51 H3         23.5762   14.9913   56.1444 H         1 VAL         0.2015
     52 H4         20.9429   15.9981   56.9039 H         1 VAL         0.1101
     53 H5         23.6256   17.4387   56.6686 H         1 VAL         0.0376
     54 H6         22.3434   19.3965   57.4486 H         1 VAL         0.0236
     55 H7         20.8322   18.4278   57.3834 H         1 VAL         0.0236
     56 H8         21.7349   18.7868   55.8724 H         1 VAL         0.0236
     57 H9         23.3986   16.0695   58.7131 H         1 VAL         0.0236
     58 H10        21.8257   16.8611   59.0677 H         1 VAL         0.0236
     59 H11        23.3408   17.8257   59.0857 H         1 VAL         0.0236
     60 H12        19.9022   17.3324   55.4338 H         1 VAL         0.1885
     61 H13        20.8212   16.7942   52.6522 H         1 VAL         0.0802
     62 H14        18.1728   16.4820   54.0346 H         1 VAL         0.0343
     63 H15        16.9396   16.6176   51.9164 H         1 VAL         0.0234
     64 H16        18.4212   17.2234   51.1012 H         1 VAL         0.0234
     65 H17        17.6486   18.1959   52.3989 H         1 VAL         0.0234
     66 H18        19.6166   14.5449   53.4776 H         1 VAL         0.0234
     67 H19        19.5185   14.9807   51.7378 H         1 VAL         0.0234
     68 H20        18.0379   14.4802   52.6233 H         1 VAL         0.0234
     69 H21        20.5432   18.3047   51.0552 H         1 TYR         0.1885
     70 H22        19.2718   20.9034   51.8200 H         1 TYR         0.0821
     71 H23        21.1756   20.3509   49.5013 H         1 TYR         0.0453
     72 H24        21.6832   21.0170   51.0904 H         1 TYR         0.0453
     73 H25        21.4878   23.3364   51.5288 H         1 TYR         0.0530
     74 H26        19.4851   21.6980   48.1330 H         1 TYR         0.0530
     75 H27        20.9557   25.6064   50.7456 H         1 TYR         0.0525
     76 H28        18.9600   23.9620   47.3431 H         1 TYR         0.0525
     77 H29        20.0080   26.3215   47.6966 H         1 TYR         0.2458
     78 H30        16.2044   19.0756   49.0595 H         1 PRO         0.0802
     79 H31        14.7480   19.5913   50.9002 H         1 PRO         0.0313
     80 H32        14.1636   20.7741   49.6810 H         1 PRO         0.0313
     81 H33        14.9525   21.6478   52.0554 H         1 PRO         0.0287
     82 H34        15.4732   22.5271   50.5781 H         1 PRO         0.0287
     83 H35        17.5962   22.1265   51.4806 H         1 PRO         0.0524
     84 H36        17.0548   20.6588   52.3633 H         1 PRO         0.0524
     85 H37        15.1956   19.7007   47.0707 H         1 TRP         0.1876
     86 H38        16.2452   22.2186   45.9361 H         1 TRP         0.0741
     87 H39        16.4625   20.4311   44.4259 H         1 TRP         0.0390
     88 H40        15.0598   21.3852   43.8352 H         1 TRP         0.0390
     89 H41        15.9849   17.9642   45.3066 H         1 TRP         0.0795
     90 H42        13.9594   16.3525   45.0885 H         1 TRP         0.2216
     91 H43        12.4896   21.3719   43.7620 H         1 TRP         0.0540
     92 H44        11.2543   16.5595   44.3471 H         1 TRP         0.0541
     93 H45        10.1886   20.5859   43.3227 H         1 TRP         0.0510
     94 H46         9.5871   18.2116   43.6023 H         1 TRP         0.0530
@<TRIPOS>BOND
     1    1    2 1  
     2    2    3 1  
     3    2    5 1  
     4    3    4 2  
     5    3    8 am 
     6    5    6 1  
     7    5    7 1  
     8    8    9 1  
     9    9   10 1  
    10    9   12 1  
    11   10   11 2  
    12   10   15 am 
    13   12   13 1  
    14   12   14 1  
    15   15   16 1  
    16   16   17 1  
    17   16   19 1  
    18   17   18 2  
    19   17   27 am 
    20   19   20 1  
    21   20   21 ar 
    22   20   22 ar 
    23   21   23 ar 
    24   22   24 ar 
    25   23   25 ar 
    26   24   25 ar 
    27   25   26 1  
    28   27   28 1  
    29   27   33 1  
    30   28   29 1  
    31   28   31 1  
    32   29   30 2  
    33   29   34 am 
    34   31   32 1  
    35   32   33 1  
    36   34   35 1  
    37   35   36 1  
    38   35   38 1  
    39   36   37 ar 
    40   36   48 ar 
    41   38   39 1  
    42   39   40 2  
    43   39   41 1  
    44   40   42 1  
    45   41   43 ar 
    46   41   44 ar 
    47   42   43 1  
    48   43   45 ar 
    49   44   46 ar 
    50   45   47 ar 
    51   46   47 ar 
    52    1   49 1  
    53    1   50 1  
    54    1   51 1  
    55    2   52 1  
    56    5   53 1  
    57    6   54 1  
    58    6   55 1  
    59    6   56 1  
    60    7   57 1  
    61    7   58 1  
    62    7   59 1  
    63    8   60 1  
    64    9   61 1  
    65   12   62 1  
    66   13   63 1  
    67   13   64 1  
    68   13   65 1  
    69   14   66 1  
    70   14   67 1  
    71   14   68 1  
    72   15   69 1  
    73   16   70 1  
    74   19   71 1  
    75   19   72 1  
    76   21   73 1  
    77   22   74 1  
    78   23   75 1  
    79   24   76 1  
    80   26   77 1  
    81   28   78 1  
    82   31   79 1  
    83   31   80 1  
    84   32   81 1  
    85   32   82 1  
    86   33   83 1  
    87   33   84 1  
    88   34   85 1  
    89   35   86 1  
    90   38   87 1  
    91   38   88 1  
    92   40   89 1  
    93   42   90 1  
    94   44   91 1  
    95   45   92 1  
    96   46   93 1  
    97   47   94 1  
@<TRIPOS>SUBSTRUCTURE
     1 VAL         1

