### 
### Created by X-TOOL on Mon Sep 10 21:13:11 2018
### 

@<TRIPOS>MOLECULE
3t6j_ligand
   94    97     1     0     0
SMALL
GAST_HUCK


@<TRIPOS>ATOM
      1 N         -36.2570  -15.7390   25.0410 N.4       1 VAL         0.2381
      2 CA        -35.8150  -16.5270   23.9000 C.3       1 VAL         0.0673
      3 C         -37.0020  -17.2640   23.2850 C.2       1 VAL         0.2270
      4 O         -37.8840  -17.7510   23.9930 O.2       1 VAL        -0.3907
      5 CB        -34.6890  -17.5110   24.2810 C.3       1 VAL         0.0139
      6 CG1       -35.2340  -18.6390   25.1400 C.3       1 VAL        -0.0553
      7 CG2       -34.0150  -18.0570   23.0320 C.3       1 VAL        -0.0553
      8 N         -37.0030  -17.3510   21.9610 N.am      1 VAL        -0.2608
      9 CA        -38.2020  -17.6940   21.2030 C.3       1 VAL         0.1334
     10 C         -38.5040  -19.1840   21.0460 C.2       1 VAL         0.2043
     11 O         -37.6150  -19.9880   20.7790 O.2       1 VAL        -0.3944
     12 CB        -38.1470  -17.0600   19.7970 C.3       1 VAL        -0.0063
     13 CG1       -39.1600  -17.7140   18.8690 C.3       1 VAL        -0.0584
     14 CG2       -38.3670  -15.5570   19.8870 C.3       1 VAL        -0.0584
     15 N         -39.7720  -19.5310   21.2440 N.am      1 TYR        -0.2621
     16 CA        -40.3360  -20.7850   20.7610 C.3       1 TYR         0.1392
     17 C         -41.4250  -20.4320   19.7580 C.2       1 TYR         0.2082
     18 O         -42.4270  -19.8190   20.1260 O.2       1 TYR        -0.3940
     19 CB        -40.9260  -21.6070   21.9070 C.3       1 TYR         0.0164
     20 CG        -41.5130  -22.9330   21.4630 C.ar      1 TYR        -0.0493
     21 CD1       -40.6990  -24.0410   21.2550 C.ar      1 TYR        -0.0685
     22 CD2       -42.8780  -23.0760   21.2510 C.ar      1 TYR        -0.0685
     23 CE1       -41.2280  -25.2540   20.8490 C.ar      1 TYR        -0.0398
     24 CE2       -43.4180  -24.2870   20.8430 C.ar      1 TYR        -0.0398
     25 CZ        -42.5870  -25.3710   20.6450 C.ar      1 TYR         0.0805
     26 OH        -43.1140  -26.5760   20.2390 O.3       1 TYR        -0.3376
     27 N         -41.2410  -20.8190   18.4860 N.am      1 PRO        -0.2497
     28 CA        -42.1290  -20.3530   17.4170 C.3       1 PRO         0.1337
     29 C         -43.3960  -21.1920   17.2730 C.2       1 PRO         0.2036
     30 O         -43.5650  -22.1930   17.9700 O.2       1 PRO        -0.3944
     31 CB        -41.2600  -20.4950   16.1660 C.3       1 PRO        -0.0104
     32 CG        -40.2240  -21.5530   16.5170 C.3       1 PRO        -0.0281
     33 CD        -40.2980  -21.8360   17.9990 C.3       1 PRO         0.0369
     34 N         -44.2690  -20.7820   16.3580 N.am      1 TRP        -0.2684
     35 CA        -45.5280  -21.4800   16.1300 C.3       1 TRP         0.0986
     36 C         -45.4300  -22.4530   14.9600 C.2       1 TRP         0.0613
     37 O         -44.3420  -22.7350   14.4570 O.co2     1 TRP        -0.5665
     38 CB        -46.6710  -20.4850   15.9070 C.3       1 TRP        -0.0013
     39 CG        -46.3280  -19.3420   14.9940 C.2       1 TRP        -0.0424
     40 CD1       -45.7600  -18.1550   15.3510 C.2       1 TRP         0.0166
     41 CD2       -46.5440  -19.2740   13.5780 C.ar      1 TRP        -0.0214
     42 NE1       -45.6020  -17.3540   14.2460 N.pl3     1 TRP        -0.2891
     43 CE2       -46.0750  -18.0170   13.1450 C.ar      1 TRP         0.0603
     44 CE3       -47.0850  -20.1530   12.6340 C.ar      1 TRP        -0.0747
     45 CZ2       -46.1300  -17.6190   11.8090 C.ar      1 TRP        -0.0443
     46 CZ3       -47.1380  -19.7550   11.3080 C.ar      1 TRP        -0.0792
     47 CH2       -46.6630  -18.4990   10.9090 C.ar      1 TRP        -0.0768
     48 OXT       -46.4410  -22.9880   14.5020 O.co2     1 TRP        -0.5665
     49 H         -36.9990  -15.1039   24.7471 H         1 VAL         0.2015
     50 H         -36.6094  -16.3625   25.7673 H         1 VAL         0.2015
     51 H         -35.4713  -15.2003   25.4055 H         1 VAL         0.2015
     52 H         -35.4001  -15.8438   23.1589 H         1 VAL         0.1101
     53 H         -33.9411  -16.9732   24.8637 H         1 VAL         0.0376
     54 H         -35.9654  -19.2093   24.5673 H         1 VAL         0.0236
     55 H         -34.4156  -19.2933   25.4403 H         1 VAL         0.0236
     56 H         -35.7108  -18.2210   26.0266 H         1 VAL         0.0236
     57 H         -33.1900  -18.7081   23.3210 H         1 VAL         0.0236
     58 H         -34.7398  -18.6242   22.4480 H         1 VAL         0.0236
     59 H         -33.6337  -17.2287   22.4348 H         1 VAL         0.0236
     60 H         -36.1355  -17.1719   21.4553 H         1 VAL         0.1885
     61 H         -39.0121  -17.2899   21.8101 H         1 VAL         0.0802
     62 H         -37.1567  -17.2322   19.3753 H         1 VAL         0.0343
     63 H         -38.9391  -18.7780   18.7841 H         1 VAL         0.0234
     64 H         -40.1624  -17.5811   19.2759 H         1 VAL         0.0234
     65 H         -39.1016  -17.2498   17.8845 H         1 VAL         0.0234
     66 H         -39.3436  -15.3599   20.3292 H         1 VAL         0.0234
     67 H         -37.5891  -15.1138   20.5087 H         1 VAL         0.0234
     68 H         -38.3253  -15.1245   18.8874 H         1 VAL         0.0234
     69 H         -40.3776  -18.8905   21.7572 H         1 TYR         0.1885
     70 H         -39.5558  -21.3908   20.3001 H         1 TYR         0.0821
     71 H         -41.7342  -21.0224   22.3464 H         1 TYR         0.0453
     72 H         -40.1166  -21.8247   22.6038 H         1 TYR         0.0453
     73 H         -39.6244  -23.9527   21.4146 H         1 TYR         0.0530
     74 H         -43.5366  -22.2218   21.4079 H         1 TYR         0.0530
     75 H         -40.5742  -26.1118   20.6914 H         1 TYR         0.0525
     76 H         -44.4916  -24.3818   20.6799 H         1 TYR         0.0525
     77 H         -42.4069  -27.2191   20.1490 H         1 TYR         0.2458
     78 H         -42.4906  -19.3429   17.6092 H         1 PRO         0.0802
     79 H         -40.7919  -19.5494   15.8924 H         1 PRO         0.0313
     80 H         -41.8509  -20.7840   15.2969 H         1 PRO         0.0313
     81 H         -39.2278  -21.1935   16.2594 H         1 PRO         0.0287
     82 H         -40.4248  -22.4661   15.9566 H         1 PRO         0.0287
     83 H         -40.6245  -22.8526   18.2181 H         1 PRO         0.0524
     84 H         -39.3257  -21.7777   18.4882 H         1 PRO         0.0524
     85 H         -44.0517  -19.9562   15.8002 H         1 TRP         0.1876
     86 H         -45.7436  -22.0612   17.0265 H         1 TRP         0.0741
     87 H         -46.9166  -20.0563   16.8786 H         1 TRP         0.0390
     88 H         -47.4876  -21.0348   15.4390 H         1 TRP         0.0390
     89 H         -45.4728  -17.8812   16.3662 H         1 TRP         0.0795
     90 H         -45.1979  -16.4174   14.2457 H         1 TRP         0.2216
     91 H         -47.4576  -21.1319   12.9357 H         1 TRP         0.0540
     92 H         -45.7616  -16.6425   11.4945 H         1 TRP         0.0541
     93 H         -47.5566  -20.4309   10.5623 H         1 TRP         0.0510
     94 H         -46.7197  -18.2172    9.8576 H         1 TRP         0.0530
@<TRIPOS>BOND
     1    1    2 1  
     2    2    3 1  
     3    2    5 1  
     4    3    4 2  
     5    3    8 am 
     6    5    6 1  
     7    5    7 1  
     8    8    9 1  
     9    9   10 1  
    10    9   12 1  
    11   10   11 2  
    12   10   15 am 
    13   12   13 1  
    14   12   14 1  
    15   15   16 1  
    16   16   17 1  
    17   16   19 1  
    18   17   18 2  
    19   17   27 am 
    20   19   20 1  
    21   20   21 ar 
    22   20   22 ar 
    23   21   23 ar 
    24   22   24 ar 
    25   23   25 ar 
    26   24   25 ar 
    27   25   26 1  
    28   27   28 1  
    29   27   33 1  
    30   28   29 1  
    31   28   31 1  
    32   29   30 2  
    33   29   34 am 
    34   31   32 1  
    35   32   33 1  
    36   34   35 1  
    37   35   36 1  
    38   35   38 1  
    39   36   37 ar 
    40   36   48 ar 
    41   38   39 1  
    42   39   40 2  
    43   39   41 1  
    44   40   42 1  
    45   41   43 ar 
    46   41   44 ar 
    47   42   43 1  
    48   43   45 ar 
    49   44   46 ar 
    50   45   47 ar 
    51   46   47 ar 
    52    1   49 1  
    53    1   50 1  
    54    1   51 1  
    55    2   52 1  
    56    5   53 1  
    57    6   54 1  
    58    6   55 1  
    59    6   56 1  
    60    7   57 1  
    61    7   58 1  
    62    7   59 1  
    63    8   60 1  
    64    9   61 1  
    65   12   62 1  
    66   13   63 1  
    67   13   64 1  
    68   13   65 1  
    69   14   66 1  
    70   14   67 1  
    71   14   68 1  
    72   15   69 1  
    73   16   70 1  
    74   19   71 1  
    75   19   72 1  
    76   21   73 1  
    77   22   74 1  
    78   23   75 1  
    79   24   76 1  
    80   26   77 1  
    81   28   78 1  
    82   31   79 1  
    83   31   80 1  
    84   32   81 1  
    85   32   82 1  
    86   33   83 1  
    87   33   84 1  
    88   34   85 1  
    89   35   86 1  
    90   38   87 1  
    91   38   88 1  
    92   40   89 1  
    93   42   90 1  
    94   44   91 1  
    95   45   92 1  
    96   46   93 1  
    97   47   94 1  
@<TRIPOS>SUBSTRUCTURE
     1 VAL         1

