### 
### Created by X-TOOL on Mon Sep 10 21:13:08 2018
### 

@<TRIPOS>MOLECULE
3t6y_ligand
   53    56     1     0     0
SMALL
GAST_HUCK


@<TRIPOS>ATOM
      1 N1         -6.0010   25.7660   -0.9900 N.am      1 DU2        -0.1618
      2 C2         -5.4830   24.6610   -1.5510 C.2       1 DU2         0.3327
      3 O2         -6.1590   23.6410   -1.5360 O.2       1 DU2        -0.3815
      4 N3         -4.2150   24.6960   -2.1180 N.am      1 DU2        -0.1865
      5 C4         -3.4730   25.8920   -2.0900 C.2       1 DU2         0.1822
      6 O4         -2.3430   25.9120   -2.5830 O.2       1 DU2        -0.4124
      7 C5         -3.9830   27.0370   -1.4990 C.2       1 DU2         0.0062
      8 C6         -5.2400   26.9580   -0.9370 C.2       1 DU2         0.0590
      9 C1'        -7.3390   25.6510   -0.4070 C.3       1 DU2         0.1801
     10 C17        -8.8740   26.7450   -5.1960 C.3       1 DU2         0.0862
     11 C18        -7.5320   27.0900   -5.3840 C.ar      1 DU2         0.0221
     12 C19        -6.6400   26.0940   -4.9480 C.ar      1 DU2        -0.0524
     13 C2'        -7.5420   26.7690    0.5820 C.3       1 DU2         0.0317
     14 C20        -5.2710   26.2000   -4.9840 C.ar      1 DU2        -0.0679
     15 C21        -4.7540   27.3580   -5.5110 C.ar      1 DU2        -0.0684
     16 C22        -5.6240   28.3460   -5.9660 C.ar      1 DU2        -0.0679
     17 C23        -7.0130   28.2490   -5.9060 C.ar      1 DU2        -0.0524
     18 C24        -9.7610   26.1760   -6.1630 C.2       1 DU2         0.1750
     19 N25       -10.9300   25.6630   -5.7420 N.2       1 DU2        -0.3319
     20 C26       -11.8340   25.2760   -6.8470 C.2       1 DU2        -0.0356
     21 C27       -11.0280   25.6000   -8.0930 C.2       1 DU2         0.0283
     22 N28        -9.8000   26.1630   -7.5280 N.pl3     1 DU2        -0.2473
     23 C29        -8.8650   26.6520   -8.4510 C.3       1 DU2         0.0466
     24 C3'        -8.2530   27.8200   -0.2140 C.3       1 DU2         0.0915
     25 C4'        -8.9980   27.1100   -1.3370 C.3       1 DU2         0.1275
     26 O4'        -8.4050   25.7830   -1.4030 O.3       1 DU2        -0.3360
     27 O41        -9.1890   28.1880    0.7270 O.3       1 DU2        -0.3888
     28 C5'        -8.9470   27.7010   -2.7830 C.3       1 DU2        -0.0007
     29 N5'        -9.2580   26.5840   -3.7490 N.4       1 DU2         0.2596
     30 H1         -3.8317   23.8763   -2.5436 H         1 DU2         0.2259
     31 H2         -3.4126   27.9645   -1.4791 H         1 DU2         0.0258
     32 H3         -5.6567   27.8333   -0.4409 H         1 DU2         0.1178
     33 H4         -7.4265   24.6770    0.0966 H         1 DU2         0.0970
     34 H5         -9.2549   27.7690   -5.3238 H         1 DU2         0.1252
     35 H6         -7.0633   25.1766   -4.5553 H         1 DU2         0.0563
     36 H7         -6.5772   27.1441    0.9540 H         1 DU2         0.0345
     37 H8         -8.1577   26.4357    1.4304 H         1 DU2         0.0345
     38 H9         -4.6298   25.4080   -4.6144 H         1 DU2         0.0600
     39 H10        -3.6813   27.5015   -5.5722 H         1 DU2         0.0561
     40 H11        -5.1945   29.2452   -6.3928 H         1 DU2         0.0600
     41 H12        -7.6535   29.0509   -6.2550 H         1 DU2         0.0563
     42 H13       -12.8377   24.8585   -6.7826 H         1 DU2         0.0410
     43 H14       -11.2949   25.4517   -9.1383 H         1 DU2         0.0799
     44 H15        -7.9906   27.0468   -7.9129 H         1 DU2         0.0581
     45 H16        -9.3230   27.4558   -9.0460 H         1 DU2         0.0581
     46 H17        -8.5477   25.8371   -9.1182 H         1 DU2         0.0581
     47 H18        -7.6126   28.6391   -0.5730 H         1 DU2         0.0623
     48 H19       -10.0567   27.0416   -1.0464 H         1 DU2         0.0677
     49 H20        -8.7561   28.6354    1.4445 H         1 DU2         0.2099
     50 H21        -7.9441   28.1041   -2.9874 H         1 DU2         0.0841
     51 H22        -9.6926   28.5032   -2.8859 H         1 DU2         0.0841
     52 H23        -8.7889   25.7594   -3.4085 H         1 DU2         0.2051
     53 H24       -10.2551   26.4387   -3.7220 H         1 DU2         0.2051
@<TRIPOS>BOND
     1    1    2 am 
     2    1    8 1  
     3    9    1 1  
     4    2    3 2  
     5    2    4 am 
     6    4    5 am 
     7    5    6 2  
     8    7    5 1  
     9    8    7 2  
    10    9   13 1  
    11   26    9 1  
    12   10   11 1  
    13   10   18 1  
    14   29   10 1  
    15   11   12 ar 
    16   11   17 ar 
    17   12   14 ar 
    18   24   13 1  
    19   14   15 ar 
    20   16   15 ar 
    21   17   16 ar 
    22   18   19 2  
    23   18   22 1  
    24   19   20 1  
    25   21   20 2  
    26   22   21 1  
    27   22   23 1  
    28   25   24 1  
    29   24   27 1  
    30   25   26 1  
    31   28   25 1  
    32   28   29 1  
    33    4   30 1  
    34    7   31 1  
    35    8   32 1  
    36    9   33 1  
    37   10   34 1  
    38   12   35 1  
    39   13   36 1  
    40   13   37 1  
    41   14   38 1  
    42   15   39 1  
    43   16   40 1  
    44   17   41 1  
    45   20   42 1  
    46   21   43 1  
    47   23   44 1  
    48   23   45 1  
    49   23   46 1  
    50   24   47 1  
    51   25   48 1  
    52   27   49 1  
    53   28   50 1  
    54   28   51 1  
    55   29   52 1  
    56   29   53 1  
@<TRIPOS>SUBSTRUCTURE
     1 DU2         1

