### 
### Created by X-TOOL on Mon Sep 10 21:13:10 2018
### 

@<TRIPOS>MOLECULE
3t70_ligand
   56    59     1     0     0
SMALL
GAST_HUCK


@<TRIPOS>ATOM
      1 N1         -6.1200   25.7830   -1.1280 N.am      1 DU4        -0.1618
      2 C2         -5.5760   24.6530   -1.7560 C.2       1 DU4         0.3327
      3 O2         -6.2290   23.6150   -1.8780 O.2       1 DU4        -0.3815
      4 N3         -4.2700   24.7090   -2.2370 N.am      1 DU4        -0.1865
      5 C4         -3.5100   25.8750   -2.1140 C.2       1 DU4         0.1822
      6 O4         -2.3670   25.8690   -2.5650 O.2       1 DU4        -0.4124
      7 C5         -4.0420   27.0140   -1.4960 C.2       1 DU4         0.0062
      8 C6         -5.3540   26.9640   -1.0050 C.2       1 DU4         0.0590
      9 C1'        -7.5370   25.6960   -0.6470 C.3       1 DU4         0.1801
     10 C17        -8.8280   27.4690   -5.5480 C.3       1 DU4         0.0459
     11 C18        -9.3890   26.8000   -6.8320 C.ar      1 DU4         0.0158
     12 C19        -9.4790   27.5730   -7.9960 C.ar      1 DU4        -0.0530
     13 C2'        -8.0200   26.7940    0.2990 C.3       1 DU4         0.0317
     14 C20        -9.9770   27.0220   -9.1760 C.ar      1 DU4        -0.0680
     15 C21       -10.3820   25.6890   -9.1930 C.ar      1 DU4        -0.0685
     16 C22       -10.2910   24.9110   -8.0380 C.ar      1 DU4        -0.0680
     17 C23        -9.7920   25.4670   -6.8580 C.ar      1 DU4        -0.0530
     18 C24        -7.3180   27.1660   -5.4650 C.ar      1 DU4         0.0158
     19 C25        -6.4160   28.1670   -5.8230 C.ar      1 DU4        -0.0530
     20 C26        -5.0400   27.9450   -5.7610 C.ar      1 DU4        -0.0680
     21 C27        -4.5550   26.7070   -5.3430 C.ar      1 DU4        -0.0685
     22 C28        -5.4560   25.7020   -4.9940 C.ar      1 DU4        -0.0680
     23 C29        -6.8350   25.9220   -5.0480 C.ar      1 DU4        -0.0530
     24 C3'        -8.6940   27.8140   -0.5950 C.3       1 DU4         0.0915
     25 O3'        -9.8360   28.3330    0.1050 O.3       1 DU4        -0.3888
     26 C4'        -9.1570   27.0080   -1.8140 C.3       1 DU4         0.1275
     27 O4'        -8.3140   25.8140   -1.8790 O.3       1 DU4        -0.3360
     28 C41       -11.0080   27.4910   -4.4110 C.3       1 DU4        -0.0399
     29 C5'        -9.0360   27.8470   -3.1120 C.3       1 DU4         0.0004
     30 N5'        -9.5750   27.1260   -4.2960 N.4       1 DU4         0.2605
     31 H1         -3.8710   23.9040   -2.6762 H         1 DU4         0.2259
     32 H2         -3.4475   27.9212   -1.3988 H         1 DU4         0.0258
     33 H3         -5.7858   27.8412   -0.5255 H         1 DU4         0.1178
     34 H4         -7.6978   24.7214   -0.1630 H         1 DU4         0.0970
     35 H5         -8.9353   28.5560   -5.6776 H         1 DU4         0.1179
     36 H6         -9.1588   28.6085   -7.9796 H         1 DU4         0.0563
     37 H7         -7.1705   27.2475    0.8306 H         1 DU4         0.0345
     38 H8         -8.7351   26.3879    1.0295 H         1 DU4         0.0345
     39 H9        -10.0485   27.6261  -10.0733 H         1 DU4         0.0600
     40 H10       -10.7695   25.2543  -10.1073 H         1 DU4         0.0561
     41 H11       -10.6078   23.8745   -8.0567 H         1 DU4         0.0600
     42 H12        -9.7183   24.8610   -5.9622 H         1 DU4         0.0563
     43 H13        -6.7884   29.1298   -6.1537 H         1 DU4         0.0563
     44 H14        -4.3496   28.7337   -6.0373 H         1 DU4         0.0600
     45 H15        -3.4873   26.5273   -5.2898 H         1 DU4         0.0561
     46 H16        -5.0814   24.7357   -4.6761 H         1 DU4         0.0600
     47 H17        -7.5250   25.1340   -4.7687 H         1 DU4         0.0563
     48 H18        -8.0087   28.6249   -0.8826 H         1 DU4         0.0623
     49 H19       -10.2744   28.9763   -0.4396 H         1 DU4         0.2099
     50 H20       -10.2077   26.7104   -1.6819 H         1 DU4         0.0677
     51 H21       -11.5293   27.2279   -3.4788 H         1 DU4         0.0778
     52 H22       -11.4597   26.9429   -5.2510 H         1 DU4         0.0778
     53 H23       -11.0977   28.5729   -4.5884 H         1 DU4         0.0778
     54 H24        -7.9747   28.0759   -3.2889 H         1 DU4         0.0841
     55 H25        -9.5966   28.7845   -2.9821 H         1 DU4         0.0841
     56 H26        -9.4958   26.1330   -4.1420 H         1 DU4         0.2064
@<TRIPOS>BOND
     1    1    2 am 
     2    1    8 1  
     3    9    1 1  
     4    2    3 2  
     5    2    4 am 
     6    4    5 am 
     7    5    6 2  
     8    7    5 1  
     9    8    7 2  
    10    9   13 1  
    11   27    9 1  
    12   10   11 1  
    13   10   18 1  
    14   30   10 1  
    15   11   12 ar 
    16   11   17 ar 
    17   12   14 ar 
    18   24   13 1  
    19   14   15 ar 
    20   16   15 ar 
    21   17   16 ar 
    22   18   19 ar 
    23   18   23 ar 
    24   19   20 ar 
    25   20   21 ar 
    26   22   21 ar 
    27   23   22 ar 
    28   24   25 1  
    29   26   24 1  
    30   26   27 1  
    31   29   26 1  
    32   30   28 1  
    33   29   30 1  
    34    4   31 1  
    35    7   32 1  
    36    8   33 1  
    37    9   34 1  
    38   10   35 1  
    39   12   36 1  
    40   13   37 1  
    41   13   38 1  
    42   14   39 1  
    43   15   40 1  
    44   16   41 1  
    45   17   42 1  
    46   19   43 1  
    47   20   44 1  
    48   21   45 1  
    49   22   46 1  
    50   23   47 1  
    51   24   48 1  
    52   25   49 1  
    53   26   50 1  
    54   28   51 1  
    55   28   52 1  
    56   28   53 1  
    57   29   54 1  
    58   29   55 1  
    59   30   56 1  
@<TRIPOS>SUBSTRUCTURE
     1 DU4         1

