### 
### Created by X-TOOL on Mon Sep 10 21:13:05 2018
### 

@<TRIPOS>MOLECULE
3t82_ligand
   39    39     1     0     0
SMALL
GAST_HUCK


@<TRIPOS>ATOM
      1 C1         17.1480    2.3090   11.7260 C.3       1 SG4         0.1858
      2 O1         18.4300    1.9400   11.4020 O.3       1 SG4        -0.3649
      3 C2         16.5330    3.4750   10.9130 C.3       1 SG4         0.1390
      4 O2         16.4290    3.3320    9.5500 O.3       1 SG4        -0.3837
      5 C3         16.8610    4.8610   11.4680 C.3       1 SG4         0.1509
      6 O3         16.1600    5.9150   10.8620 O.3       1 SG4        -0.2679
      7 C4         17.0120    4.9480   12.9860 C.3       1 SG4         0.1488
      8 O4         17.5530    6.1170   13.5280 O.3       1 SG4        -0.2679
      9 C5         17.4140    3.6530   13.7080 C.3       1 SG4         0.1206
     10 O5         16.8020    2.4610   13.1430 O.3       1 SG4        -0.3402
     11 C6         17.3250    3.7730   15.2070 C.3       1 SG4         0.1073
     12 O6         16.0160    4.0260   15.6390 O.3       1 SG4        -0.2201
     13 OAB        16.1620    3.6880   17.9910 O.2       1 SG4        -0.1270
     14 NAH        15.7670    1.7370   16.5650 N.am      1 SG4        -0.2415
     15 SAI        15.4650    3.2520   16.7870 S.o2      1 SG4         0.1598
     16 OAQ        14.0320    3.5770   16.8710 O.2       1 SG4        -0.1270
     17 OAW        15.6090    7.1130   13.8150 O.2       1 SG4        -0.3707
     18 CAX        16.8720    7.1330   13.8620 C.2       1 SG4         0.2310
     19 CAY        16.7280    6.8170   10.1520 C.2       1 SG4         0.2310
     20 OAZ        17.9620    6.7480    9.9070 O.2       1 SG4        -0.3707
     21 CBA        17.5920    8.3480   14.3520 C.3       1 SG4         0.0372
     22 CBB        15.8970    7.9610    9.6240 C.3       1 SG4         0.0372
     23 H1         16.5658    1.4305   11.4108 H         1 SG4         0.0936
     24 H2         18.6234    1.0957   11.7920 H         1 SG4         0.2126
     25 H3         15.4736    3.3858   11.1954 H         1 SG4         0.0675
     26 H4         16.0378    4.1144    9.1796 H         1 SG4         0.2101
     27 H5         17.8909    5.0238   11.1176 H         1 SG4         0.0708
     28 H6         15.9592    5.0451   13.2897 H         1 SG4         0.0707
     29 H7         18.4880    3.5344   13.5022 H         1 SG4         0.0651
     30 H8         17.9728    4.5990   15.5358 H         1 SG4         0.0611
     31 H9         17.6721    2.8323   15.6594 H         1 SG4         0.0611
     32 H10        15.4682    1.0633   17.2409 H         1 SG4         0.1654
     33 H11        16.2593    1.4400   15.7468 H         1 SG4         0.1654
     34 H12        16.8615    9.1328   14.5979 H         1 SG4         0.0483
     35 H13        18.2718    8.7126   13.5678 H         1 SG4         0.0483
     36 H14        18.1724    8.0927   15.2508 H         1 SG4         0.0483
     37 H15        16.5360    8.6391    9.0393 H         1 SG4         0.0483
     38 H16        15.4530    8.5112   10.4667 H         1 SG4         0.0483
     39 H17        15.0964    7.5665    8.9811 H         1 SG4         0.0483
@<TRIPOS>BOND
     1    1    2 1  
     2    1    3 1  
     3    1   10 1  
     4    3    4 1  
     5    3    5 1  
     6    5    6 1  
     7    5    7 1  
     8    6   19 1  
     9    7    8 1  
    10    7    9 1  
    11    8   18 1  
    12    9   10 1  
    13    9   11 1  
    14   11   12 1  
    15   12   15 1  
    16   15   13 2  
    17   15   14 am 
    18   15   16 2  
    19   18   17 2  
    20   18   21 1  
    21   19   20 2  
    22   19   22 1  
    23    1   23 1  
    24    2   24 1  
    25    3   25 1  
    26    4   26 1  
    27    5   27 1  
    28    7   28 1  
    29    9   29 1  
    30   11   30 1  
    31   11   31 1  
    32   14   32 1  
    33   14   33 1  
    34   21   34 1  
    35   21   35 1  
    36   21   36 1  
    37   22   37 1  
    38   22   38 1  
    39   22   39 1  
@<TRIPOS>SUBSTRUCTURE
     1 SG4         1

