### 
### Created by X-TOOL on Mon Sep 10 21:13:05 2018
### 

@<TRIPOS>MOLECULE
3t83_ligand
   51    51     1     0     0
SMALL
GAST_HUCK


@<TRIPOS>ATOM
      1 C1         17.2500    0.1640   12.0210 C.2       1 SG5         0.2716
      2 O5         16.9470    0.2990   13.3080 O.3       1 SG5        -0.2657
      3 C2         16.5780    1.1660   11.2220 C.3       1 SG5         0.2199
      4 C3         17.0280    2.6100   11.5970 C.3       1 SG5         0.1696
      5 C4         17.2010    2.7990   13.2620 C.3       1 SG5         0.1556
      6 C5         17.6150    1.3570   13.9260 C.3       1 SG5         0.1466
      7 O1A        18.5050   -0.2200   11.6140 O.2       1 SG5        -0.3670
      8 O2A        16.6380    0.9710    9.8500 O.3       1 SG5        -0.2475
      9 C2B        15.6410    1.1640    9.0760 C.2       1 SG5         0.2362
     10 O2C        14.6960    1.9050    9.4540 O.2       1 SG5        -0.3702
     11 C2D        15.8760    0.9360    7.6080 C.3       1 SG5         0.0461
     12 C2E        15.9440    2.1330    6.7210 C.3       1 SG5        -0.0469
     13 O3A        16.3310    3.6600   10.9970 O.3       1 SG5        -0.2648
     14 C3B        16.8990    4.5000   10.2080 C.2       1 SG5         0.2340
     15 O3C        18.0100    4.2240    9.7000 O.2       1 SG5        -0.3704
     16 C3D        16.0330    5.5950    9.6370 C.3       1 SG5         0.0459
     17 C3E        16.4810    6.2490    8.3450 C.3       1 SG5        -0.0469
     18 O4A        17.9540    3.9120   13.6600 O.3       1 SG5        -0.2672
     19 C4B        17.3890    5.0340   13.9370 C.2       1 SG5         0.2339
     20 O4C        16.1500    5.1520   13.8350 O.2       1 SG5        -0.3704
     21 C4D        18.2450    6.2150   14.3090 C.3       1 SG5         0.0459
     22 C4E        19.3530    6.5700   13.3590 C.3       1 SG5        -0.0469
     23 C5A        17.4650    1.4870   15.4260 C.3       1 SG5         0.1116
     24 O5B        16.1520    1.8700   15.7610 O.3       1 SG5        -0.2198
     25 S5C        15.5310    1.1290   16.8980 S.o2      1 SG5         0.1598
     26 O5D        14.1040    1.4670   16.9110 O.2       1 SG5        -0.1270
     27 O5E        16.2480    1.5170   18.1050 O.2       1 SG5        -0.1270
     28 N5F        15.8200   -0.3960   16.7090 N.am      1 SG5        -0.2415
     29 H1         15.5135    1.0917   11.4889 H         1 SG5         0.0943
     30 H2         18.0465    2.6946   11.1902 H         1 SG5         0.0738
     31 H3         16.1902    3.0113   13.6403 H         1 SG5         0.0713
     32 H4         18.6848    1.1923   13.7302 H         1 SG5         0.0704
     33 H5         15.0573    0.3005    7.2394 H         1 SG5         0.0516
     34 H6         16.8307    0.3988    7.5080 H         1 SG5         0.0516
     35 H7         16.1189    1.8112    5.6838 H         1 SG5         0.0255
     36 H8         16.7683    2.7844    7.0468 H         1 SG5         0.0255
     37 H9         14.9949    2.6861    6.7781 H         1 SG5         0.0255
     38 H10        15.9608    6.3865   10.3975 H         1 SG5         0.0516
     39 H11        15.0361    5.1656    9.4588 H         1 SG5         0.0516
     40 H12        15.7548    7.0224    8.0545 H         1 SG5         0.0255
     41 H13        16.5442    5.4892    7.5521 H         1 SG5         0.0255
     42 H14        17.4690    6.7100    8.4907 H         1 SG5         0.0255
     43 H15        18.7002    6.0019   15.2875 H         1 SG5         0.0516
     44 H16        17.5855    7.0912   14.3944 H         1 SG5         0.0516
     45 H17        19.8993    7.4440   13.7431 H         1 SG5         0.0255
     46 H18        18.9282    6.8076   12.3726 H         1 SG5         0.0255
     47 H19        20.0429    5.7184   13.2656 H         1 SG5         0.0255
     48 H20        18.1688    2.2475   15.7952 H         1 SG5         0.0615
     49 H21        17.6906    0.5190   15.8972 H         1 SG5         0.0615
     50 H22        15.4795   -1.0562   17.3785 H         1 SG5         0.1654
     51 H23        16.3453   -0.7112   15.9186 H         1 SG5         0.1654
@<TRIPOS>BOND
     1    1    2 1  
     2    1    3 1  
     3    1    7 2  
     4    2    6 1  
     5    3    4 1  
     6    3    8 1  
     7    4    5 1  
     8    4   13 1  
     9    5    6 1  
    10    5   18 1  
    11    6   23 1  
    12    8    9 1  
    13    9   10 2  
    14    9   11 1  
    15   11   12 1  
    16   13   14 1  
    17   14   15 2  
    18   14   16 1  
    19   16   17 1  
    20   18   19 1  
    21   19   20 2  
    22   19   21 1  
    23   21   22 1  
    24   23   24 1  
    25   24   25 1  
    26   25   26 2  
    27   25   27 2  
    28   25   28 am 
    29    3   29 1  
    30    4   30 1  
    31    5   31 1  
    32    6   32 1  
    33   11   33 1  
    34   11   34 1  
    35   12   35 1  
    36   12   36 1  
    37   12   37 1  
    38   16   38 1  
    39   16   39 1  
    40   17   40 1  
    41   17   41 1  
    42   17   42 1  
    43   21   43 1  
    44   21   44 1  
    45   22   45 1  
    46   22   46 1  
    47   22   47 1  
    48   23   48 1  
    49   23   49 1  
    50   28   50 1  
    51   28   51 1  
@<TRIPOS>SUBSTRUCTURE
     1 SG5         1

