### 
### Created by X-TOOL on Mon Sep 10 21:13:05 2018
### 

@<TRIPOS>MOLECULE
3t84_ligand
   34    34     1     0     0
SMALL
GAST_HUCK


@<TRIPOS>ATOM
      1 C1         16.8280   -0.9160   11.7370 C.3       1 SG6         0.1854
      2 O5         16.7780   -0.7360   13.1360 O.3       1 SG6        -0.3402
      3 C2         16.3060    0.2350   11.0090 C.3       1 SG6         0.1343
      4 C3         16.9720    1.4900   11.2790 C.3       1 SG6         0.1187
      5 C4         17.0290    1.7470   12.7340 C.3       1 SG6         0.1442
      6 C5         17.3890    0.5030   13.5480 C.3       1 SG6         0.1203
      7 O1A        18.1020   -1.2750   11.2620 O.3       1 SG6        -0.3649
      8 O2A        16.2090   -0.0490    9.6460 O.3       1 SG6        -0.3841
      9 O3A        16.5180    2.5410   10.4690 O.3       1 SG6        -0.3860
     10 O4A        15.8980    2.4350   13.2230 O.3       1 SG6        -0.2683
     11 C4B        14.8500    4.0770   14.6020 C.3       1 SG6         0.0372
     12 C4C        16.0510    3.4480   13.9750 C.2       1 SG6         0.2310
     13 O4D        17.1990    3.8120   14.3640 O.2       1 SG6        -0.3707
     14 C5A        17.4320    0.6120   15.0700 C.3       1 SG6         0.1073
     15 O5B        16.2230    0.9770   15.6230 O.3       1 SG6        -0.2201
     16 S5C        15.4380    0.0960   16.5130 S.o2      1 SG6         0.1598
     17 O5D        14.0740    0.4180   16.9500 O.2       1 SG6        -0.1270
     18 O5E        16.0570    0.6770   17.7030 O.2       1 SG6        -0.1270
     19 N5F        15.8140   -1.4290   16.4490 N.am      1 SG6        -0.2415
     20 H1         16.1612   -1.7615   11.5122 H         1 SG6         0.0935
     21 H2         15.2750    0.3716   11.3673 H         1 SG6         0.0671
     22 H3         18.0189    1.3420   10.9757 H         1 SG6         0.0651
     23 H4         17.8719    2.4396   12.8747 H         1 SG6         0.0703
     24 H5         18.4474    0.3613   13.2840 H         1 SG6         0.0651
     25 H6         18.3697   -2.0930   11.6640 H         1 SG6         0.2126
     26 H7         15.7155    0.6387    9.2147 H         1 SG6         0.2101
     27 H8         16.5236    2.2641    9.5602 H         1 SG6         0.2100
     28 H9         15.1634    4.9344   15.2157 H         1 SG6         0.0483
     29 H10        14.3389    3.3387   15.2373 H         1 SG6         0.0483
     30 H11        14.1632    4.4213   13.8147 H         1 SG6         0.0483
     31 H12        18.1841    1.3660   15.3454 H         1 SG6         0.0611
     32 H13        17.7242   -0.3650   15.4823 H         1 SG6         0.0611
     33 H14        15.3273   -2.0884   17.0219 H         1 SG6         0.1654
     34 H15        16.5399   -1.7397   15.8354 H         1 SG6         0.1654
@<TRIPOS>BOND
     1    1    2 1  
     2    1    3 1  
     3    1    7 1  
     4    2    6 1  
     5    3    4 1  
     6    3    8 1  
     7    4    5 1  
     8    4    9 1  
     9    5    6 1  
    10    5   10 1  
    11    6   14 1  
    12   10   12 1  
    13   12   11 1  
    14   12   13 2  
    15   14   15 1  
    16   15   16 1  
    17   16   17 2  
    18   16   18 2  
    19   16   19 am 
    20    1   20 1  
    21    3   21 1  
    22    4   22 1  
    23    5   23 1  
    24    6   24 1  
    25    7   25 1  
    26    8   26 1  
    27    9   27 1  
    28   11   28 1  
    29   11   29 1  
    30   11   30 1  
    31   14   31 1  
    32   14   32 1  
    33   19   33 1  
    34   19   34 1  
@<TRIPOS>SUBSTRUCTURE
     1 SG6         1

