### 
### Created by X-TOOL on Mon Sep 10 21:13:05 2018
### 

@<TRIPOS>MOLECULE
3t85_ligand
   39    39     1     0     0
SMALL
GAST_HUCK


@<TRIPOS>ATOM
      1 C1         16.9100    1.9370   11.6300 C.3       1 SG7         0.1858
      2 O5         16.8830    2.0640   13.0700 O.3       1 SG7        -0.3402
      3 C2         16.5680    3.1850   10.8550 C.3       1 SG7         0.1390
      4 C3         17.0400    4.4280   11.4420 C.3       1 SG7         0.1509
      5 C4         16.8440    4.5030   12.8700 C.3       1 SG7         0.1488
      6 C5         17.4380    3.2840   13.5290 C.3       1 SG7         0.1206
      7 O1A        18.1250    1.4390   11.2350 O.3       1 SG7        -0.3649
      8 O2A        15.1630    3.2430   10.7540 O.3       1 SG7        -0.3837
      9 O3A        16.3210    5.5110   10.8810 O.3       1 SG7        -0.2679
     10 C3B        16.9150    6.3120   10.0940 C.2       1 SG7         0.2310
     11 C3C        16.2040    7.5370    9.5780 C.3       1 SG7         0.0372
     12 O3D        18.1010    6.0840    9.7800 O.2       1 SG7        -0.3707
     13 O4A        17.5150    5.6200   13.3900 O.3       1 SG7        -0.2679
     14 C4B        17.8020    7.8540   14.2910 C.3       1 SG7         0.0372
     15 C4C        16.9330    6.6940   13.8560 C.2       1 SG7         0.2310
     16 O4D        15.6940    6.9050   13.6370 O.2       1 SG7        -0.3707
     17 C5A        17.4160    2.9590   15.0090 C.3       1 SG7         0.1073
     18 O5B        16.3320    3.5160   15.6880 O.3       1 SG7        -0.2201
     19 S5C        15.4200    2.6410   16.4770 S.o2      1 SG7         0.1598
     20 O5D        14.0320    3.0260   16.7900 O.2       1 SG7        -0.1270
     21 O5E        15.9420    3.1630   17.7480 O.2       1 SG7        -0.1270
     22 N5F        15.8140    1.1460   16.6140 N.am      1 SG7        -0.2415
     23 H1         16.1452    1.1912   11.3675 H         1 SG7         0.0936
     24 H2         17.0063    3.0964    9.8500 H         1 SG7         0.0675
     25 H3         18.1122    4.5343   11.2204 H         1 SG7         0.0708
     26 H4         15.7688    4.5696   13.0923 H         1 SG7         0.0707
     27 H5         18.4980    3.3285   13.2386 H         1 SG7         0.0651
     28 H6         18.2599    0.5857   11.6304 H         1 SG7         0.2126
     29 H7         14.9162    3.9766   10.2031 H         1 SG7         0.2101
     30 H8         16.8779    8.1003    8.9158 H         1 SG7         0.0483
     31 H9         15.9068    8.1726   10.4252 H         1 SG7         0.0483
     32 H10        15.3086    7.2320    9.0165 H         1 SG7         0.0483
     33 H11        17.1646    8.6732   14.6553 H         1 SG7         0.0483
     34 H12        18.3986    8.2059   13.4365 H         1 SG7         0.0483
     35 H13        18.4744    7.5262   15.0975 H         1 SG7         0.0483
     36 H14        18.3430    3.3400   15.4624 H         1 SG7         0.0611
     37 H15        17.3738    1.8659   15.1242 H         1 SG7         0.0611
     38 H16        15.2320    0.5212   17.1345 H         1 SG7         0.1654
     39 H17        16.6499    0.8076   16.1818 H         1 SG7         0.1654
@<TRIPOS>BOND
     1    1    2 1  
     2    1    3 1  
     3    1    7 1  
     4    2    6 1  
     5    3    4 1  
     6    3    8 1  
     7    4    5 1  
     8    4    9 1  
     9    5    6 1  
    10    5   13 1  
    11    6   17 1  
    12    9   10 1  
    13   10   11 1  
    14   10   12 2  
    15   13   15 1  
    16   15   14 1  
    17   15   16 2  
    18   17   18 1  
    19   18   19 1  
    20   19   20 2  
    21   19   21 2  
    22   19   22 am 
    23    1   23 1  
    24    3   24 1  
    25    4   25 1  
    26    5   26 1  
    27    6   27 1  
    28    7   28 1  
    29    8   29 1  
    30   11   30 1  
    31   11   31 1  
    32   11   32 1  
    33   14   33 1  
    34   14   34 1  
    35   14   35 1  
    36   17   36 1  
    37   17   37 1  
    38   22   38 1  
    39   22   39 1  
@<TRIPOS>SUBSTRUCTURE
     1 SG7         1

