### 
### Created by X-TOOL on Mon Sep 10 21:13:05 2018
### 

@<TRIPOS>MOLECULE
3t8v_ligand
   83    84     1     0     0
SMALL
GAST_HUCK


@<TRIPOS>ATOM
      1 C1         17.1810   10.1600    9.1020 C.3       1 BTJ        -0.0244
      2 N1         17.7000    8.5330   11.6650 N.am      1 BTJ        -0.2829
      3 O1         17.5120   10.5880   12.4180 O.2       1 BTJ        -0.3945
      4 C2         16.4170   10.2120   10.3750 C.3       1 BTJ         0.1281
      5 N2         15.3610    3.7680   18.2320 N.am      1 BTJ        -0.2825
      6 O2         16.6370    7.4320   13.7240 O.3       1 BTJ        -0.3755
      7 C3         17.2900    9.8390   11.6300 C.2       1 BTJ         0.2014
      8 O3         15.0070    6.6780   15.9580 O.3       1 BTJ        -0.3572
      9 C4         18.6740    7.8900   12.5170 C.3       1 BTJ         0.0543
     10 O4         17.0630    5.4080   17.9540 O.2       1 BTJ        -0.3945
     11 C5         18.0080    7.7510   13.8370 C.3       1 BTJ         0.0678
     12 N5         15.3430   11.2020   10.4350 N.am      1 BTJ        -0.2636
     13 C6         16.3470    6.1440   14.0830 C.3       1 BTJ         0.0713
     14 N6         11.6960   11.9490   12.3850 N.4       1 BTJ         0.2256
     15 C7         14.9950    6.0270   14.7500 C.3       1 BTJ         0.0740
     16 C8         14.9870    6.1370   17.3150 C.3       1 BTJ         0.1366
     17 C9         15.9090    5.0740   17.8530 C.2       1 BTJ         0.2023
     18 O9         14.4000    9.8790   11.7200 O.2       1 BTJ        -0.3938
     19 C10        14.8540    3.2950   19.5880 C.3       1 BTJ         0.0365
     20 O10        12.2300   11.2290   18.7310 O.3       1 BTJ        -0.3099
     21 C11        15.7450    2.4660   20.4030 C.3       1 BTJ        -0.0423
     22 O11        13.1400   12.7170   10.3530 O.3       1 BTJ        -0.3664
     23 C25        13.4670    2.8700   20.0240 C.3       1 BTJ        -0.0423
     24 C39        14.5130   10.9860   11.1860 C.2       1 BTJ         0.2130
     25 C40        13.8220   12.2620   11.3210 C.3       1 BTJ         0.1880
     26 C41        13.0250   12.0510   12.4680 C.3       1 BTJ         0.0276
     27 C42        13.3320   13.0210   13.5500 C.3       1 BTJ         0.0236
     28 C43        13.0210   12.5130   14.9800 C.ar      1 BTJ        -0.0481
     29 C44        12.8930   13.3220   15.9910 C.ar      1 BTJ        -0.0685
     30 C45        12.6200   12.7210   17.1860 C.ar      1 BTJ        -0.0393
     31 C46        12.5080   11.4460   17.5540 C.ar      1 BTJ         0.0868
     32 C47        12.5880   10.6400   16.6480 C.ar      1 BTJ        -0.0393
     33 C48        12.8120   11.1470   15.4230 C.ar      1 BTJ        -0.0685
     34 C49        11.9270   10.0960   19.4650 C.3       1 BTJ         0.1028
     35 C50        13.2360    9.3660   19.6940 C.ar      1 BTJ        -0.0131
     36 C51        13.3370    7.9020   19.8050 C.ar      1 BTJ        -0.0578
     37 C52        14.5520    7.3470   20.1750 C.ar      1 BTJ        -0.0685
     38 C53        15.6870    8.1620   20.4000 C.ar      1 BTJ        -0.0687
     39 C54        15.5790    9.5520   20.3000 C.ar      1 BTJ        -0.0685
     40 C55        14.4600   10.1590   19.9250 C.ar      1 BTJ        -0.0578
     41 H1         16.5190   10.4295    8.2658 H         1 BTJ         0.0277
     42 H2         17.5695    9.1424    8.9488 H         1 BTJ         0.0277
     43 H3         18.0201   10.8697    9.1487 H         1 BTJ         0.0277
     44 H4         17.2577    7.9323   10.9990 H         1 BTJ         0.1852
     45 H5         15.8095    9.2987   10.2929 H         1 BTJ         0.0797
     46 H6         15.3134    3.0924   17.4963 H         1 BTJ         0.1854
     47 H7         19.5782    8.5102   12.6050 H         1 BTJ         0.0543
     48 H8         18.9445    6.9021   12.1159 H         1 BTJ         0.0543
     49 H9         18.5100    6.9519   14.4021 H         1 BTJ         0.0580
     50 H10        18.1045    8.7017   14.3818 H         1 BTJ         0.0580
     51 H11        15.3368   12.0163    9.8546 H         1 BTJ         0.1883
     52 H12        17.1186    5.7889   14.7819 H         1 BTJ         0.0583
     53 H13        16.3522    5.5151   13.1806 H         1 BTJ         0.0583
     54 H14        11.3122   11.8013   13.3053 H         1 BTJ         0.2001
     55 H15        11.4551   11.1705   11.7917 H         1 BTJ         0.2001
     56 H16        11.3175   12.7981   11.9955 H         1 BTJ         0.2001
     57 H17        14.2293    6.4776   14.1015 H         1 BTJ         0.0585
     58 H18        14.7598    4.9647   14.9115 H         1 BTJ         0.0585
     59 H19        13.9719    5.7359   17.4518 H         1 BTJ         0.0804
     60 H20        15.1302    7.0053   17.9749 H         1 BTJ         0.0804
     61 H21        14.9143    4.2673   20.0989 H         1 BTJ         0.0550
     62 H22        15.2425    2.2053   21.3461 H         1 BTJ         0.0252
     63 H23        16.6675    3.0241   20.6212 H         1 BTJ         0.0252
     64 H24        15.9942    1.5460   19.8539 H         1 BTJ         0.0252
     65 H25        13.7046   12.8385    9.5988 H         1 BTJ         0.2136
     66 H26        13.4863    2.5918   21.0881 H         1 BTJ         0.0252
     67 H27        13.1430    2.0061   19.4251 H         1 BTJ         0.0252
     68 H28        12.7645    3.7034   19.8756 H         1 BTJ         0.0252
     69 H29        14.5796   13.0286   11.5407 H         1 BTJ         0.0898
     70 H30        13.3534   11.0667   12.8330 H         1 BTJ         0.0924
     71 H31        12.7398   13.9309   13.3730 H         1 BTJ         0.0463
     72 H32        14.4034   13.2648   13.4982 H         1 BTJ         0.0463
     73 H33        12.9958   14.3965   15.8915 H         1 BTJ         0.0530
     74 H34        12.4630   13.4219   17.9979 H         1 BTJ         0.0525
     75 H35        12.4848    9.5743   16.8176 H         1 BTJ         0.0525
     76 H36        12.8415   10.4085   14.6301 H         1 BTJ         0.0530
     77 H37        11.2286    9.4565   18.9053 H         1 BTJ         0.0776
     78 H38        11.4755   10.3769   20.4279 H         1 BTJ         0.0776
     79 H39        12.4793    7.2710   19.6017 H         1 BTJ         0.0557
     80 H40        14.6341    6.2727   20.2938 H         1 BTJ         0.0599
     81 H41        16.6394    7.7086   20.6497 H         1 BTJ         0.0559
     82 H42        16.4448   10.1591   20.5385 H         1 BTJ         0.0599
     83 H43        14.4446   11.2343   19.7886 H         1 BTJ         0.0557
@<TRIPOS>BOND
     1    4    1 1  
     2    7    2 am 
     3    2    9 1  
     4    7    3 2  
     5    4    7 1  
     6   12    4 1  
     7   17    5 am 
     8    5   19 1  
     9   11    6 1  
    10    6   13 1  
    11   15    8 1  
    12    8   16 1  
    13    9   11 1  
    14   17   10 2  
    15   24   12 am 
    16   13   15 1  
    17   26   14 1  
    18   16   17 1  
    19   24   18 2  
    20   19   21 1  
    21   19   23 1  
    22   31   20 1  
    23   20   34 1  
    24   25   22 1  
    25   25   24 1  
    26   26   25 1  
    27   27   26 1  
    28   28   27 1  
    29   29   28 ar 
    30   28   33 ar 
    31   30   29 ar 
    32   30   31 ar 
    33   31   32 ar 
    34   32   33 ar 
    35   34   35 1  
    36   35   36 ar 
    37   35   40 ar 
    38   36   37 ar 
    39   37   38 ar 
    40   38   39 ar 
    41   39   40 ar 
    42    1   41 1  
    43    1   42 1  
    44    1   43 1  
    45    2   44 1  
    46    4   45 1  
    47    5   46 1  
    48    9   47 1  
    49    9   48 1  
    50   11   49 1  
    51   11   50 1  
    52   12   51 1  
    53   13   52 1  
    54   13   53 1  
    55   14   54 1  
    56   14   55 1  
    57   14   56 1  
    58   15   57 1  
    59   15   58 1  
    60   16   59 1  
    61   16   60 1  
    62   19   61 1  
    63   21   62 1  
    64   21   63 1  
    65   21   64 1  
    66   22   65 1  
    67   23   66 1  
    68   23   67 1  
    69   23   68 1  
    70   25   69 1  
    71   26   70 1  
    72   27   71 1  
    73   27   72 1  
    74   29   73 1  
    75   30   74 1  
    76   32   75 1  
    77   33   76 1  
    78   34   77 1  
    79   34   78 1  
    80   36   79 1  
    81   37   80 1  
    82   38   81 1  
    83   39   82 1  
    84   40   83 1  
@<TRIPOS>SUBSTRUCTURE
     1 BTJ         1

