### 
### Created by X-TOOL on Mon Sep 10 21:13:06 2018
### 

@<TRIPOS>MOLECULE
3tam_ligand
   44    47     1     0     0
SMALL
GAST_HUCK


@<TRIPOS>ATOM
      1 C          10.8920   12.2740   15.8080 C.2       1 M06        -0.0301
      2 N           8.0650   12.4240   15.3740 N.am      1 M06        -0.2382
      3 O          10.6010   11.5280   17.9940 O.3       1 M06        -0.2817
      4 CL         10.2250   15.8730   20.5460 Cl        1 M06        -0.0712
      5 C1         10.3260   12.7320   14.5600 C.2       1 M06        -0.0809
      6 C2          8.9730   12.7600   14.3940 C.3       1 M06         0.0459
      7 C3          8.5070   11.9540   16.6470 C.2       1 M06         0.2276
      8 C4         10.0440   11.9130   16.8010 C.3       1 M06         0.1943
      9 C5         10.3600   12.1910   19.1510 C.ar      1 M06         0.1082
     10 C6         12.3960   12.2560   15.8910 C.3       1 M06        -0.0355
     11 C7         10.1040   11.3690   20.2570 C.ar      1 M06         0.0019
     12 C8          9.9160   11.9710   21.5020 C.ar      1 M06         0.0876
     13 C9          9.9460   13.4050   21.6650 C.ar      1 M06        -0.0240
     14 C10        10.1850   14.1810   20.4870 C.ar      1 M06         0.0430
     15 C11        10.4020   13.5830   19.2260 C.ar      1 M06        -0.0101
     16 O12         7.7480   11.5940   17.5800 O.2       1 M06        -0.3904
     17 C13         6.4720   11.0820   14.4480 C.2       1 M06         0.1717
     18 N14         6.7570   10.8120   13.1260 N.pl3     1 M06        -0.2528
     19 N15         6.5790    9.4780   13.0210 N.2       1 M06        -0.3797
     20 C16         6.2210    8.8770   14.1930 C.ar      1 M06         0.0383
     21 C17         6.1310    9.8900   15.1740 C.ar      1 M06         0.0795
     22 N18         5.9940    7.5660   14.4010 N.ar      1 M06        -0.2979
     23 C19         5.6820    7.2510   15.7350 C.ar      1 M06         0.0112
     24 C20         5.5270    8.1440   16.8230 C.ar      1 M06        -0.0320
     25 C21         5.7690    9.5060   16.5260 C.ar      1 M06        -0.0221
     26 C22         6.6150   12.4790   15.0240 C.3       1 M06         0.1336
     27 C23         9.6830   11.1460   22.6000 C.1       1 M06         0.0978
     28 N24         9.4950   10.4750   23.4920 N.1       1 M06        -0.3283
     29 H          10.9809   13.0553   13.7509 H         1 M06         0.0274
     30 H           8.7738   13.8202   14.2377 H         1 M06         0.0603
     31 H           8.8090   11.9880   13.6421 H         1 M06         0.0603
     32 H           9.2913   11.6642   16.0529 H         1 M06         0.1039
     33 H          12.7933   11.5956   15.1202 H         1 M06         0.0377
     34 H          12.7791   13.2651   15.7394 H         1 M06         0.0377
     35 H          12.7001   11.8943   16.8733 H         1 M06         0.0377
     36 H          10.0530   10.2857   20.1474 H         1 M06         0.0641
     37 H           9.7941   13.8734   22.6374 H         1 M06         0.0632
     38 H          10.5958   14.1891   18.3411 H         1 M06         0.0619
     39 H           7.0372   11.4679   12.3969 H         1 M06         0.2722
     40 H           5.5428    6.1933   15.9585 H         1 M06         0.0827
     41 H           5.2414    7.8059   17.8191 H         1 M06         0.0713
     42 H           5.6842   10.2615   17.3071 H         1 M06         0.0755
     43 H           6.3286   13.2898   14.3542 H         1 M06         0.0893
     44 H           5.9452   12.7116   15.8519 H         1 M06         0.0893
@<TRIPOS>BOND
     1    5    1 2  
     2    8    1 1  
     3    1   10 1  
     4    2    6 1  
     5    2    7 am 
     6   26    2 1  
     7    8    3 1  
     8    3    9 1  
     9   14    4 1  
    10    6    5 1  
    11    7    8 1  
    12    7   16 2  
    13    9   11 ar 
    14    9   15 ar 
    15   11   12 ar 
    16   12   13 ar 
    17   12   27 1  
    18   14   13 ar 
    19   15   14 ar 
    20   17   18 1  
    21   17   21 2  
    22   17   26 1  
    23   18   19 1  
    24   19   20 2  
    25   20   21 ar 
    26   20   22 ar 
    27   21   25 ar 
    28   22   23 ar 
    29   23   24 ar 
    30   24   25 ar 
    31   27   28 3  
    32    5   29 1  
    33    6   30 1  
    34    6   31 1  
    35    8   32 1  
    36   10   33 1  
    37   10   34 1  
    38   10   35 1  
    39   11   36 1  
    40   13   37 1  
    41   15   38 1  
    42   18   39 1  
    43   23   40 1  
    44   24   41 1  
    45   25   42 1  
    46   26   43 1  
    47   26   44 1  
@<TRIPOS>SUBSTRUCTURE
     1 M06         1

