### 
### Created by X-TOOL on Mon Sep 10 21:13:10 2018
### 

@<TRIPOS>MOLECULE
3tay_ligand
   43    43     1     0     0
SMALL
GAST_HUCK


@<TRIPOS>ATOM
      1 C1        -33.0300   39.1750   21.9960 C.2       1 MN0         0.1041
      2 C2        -32.9430   40.7070   21.8010 C.3       1 MN0         0.2201
      3 O2        -33.5240   41.0360   20.5190 O.3       1 MN0        -0.3501
      4 C3        -33.7840   41.4780   22.8470 C.3       1 MN0         0.0353
      5 C4        -33.0640   41.6730   24.2000 C.3       1 MN0         0.0850
      6 O4        -33.7510   42.6740   24.9500 O.3       1 MN0        -0.3893
      7 C5        -31.5870   42.0920   24.0570 C.3       1 MN0         0.0965
      8 N5        -30.9630   42.1400   25.4010 N.am      1 MN0        -0.2769
      9 C6        -30.8580   41.1390   23.0990 C.3       1 MN0         0.1143
     10 O6        -31.5680   41.1690   21.8130 O.3       1 MN0        -0.3384
     11 C7        -29.3980   41.4580   22.7390 C.3       1 MN0         0.1114
     12 O7        -29.2970   42.8390   22.3530 O.3       1 MN0        -0.3865
     13 C8        -28.9030   40.5570   21.5950 C.3       1 MN0         0.1065
     14 O8        -29.3290   39.2050   21.8000 O.3       1 MN0        -0.3869
     15 C9        -27.3820   40.5780   21.4730 C.3       1 MN0         0.0727
     16 O9        -27.0150   39.7480   20.3720 O.3       1 MN0        -0.3924
     17 C10       -30.0060   43.0140   25.7480 C.2       1 MN0         0.2022
     18 O10       -29.5170   43.8460   24.9890 O.2       1 MN0        -0.3945
     19 C11       -29.4990   42.9240   27.1940 C.3       1 MN0         0.1331
     20 O11       -30.1850   41.9260   27.9510 O.3       1 MN0        -0.3746
     21 C12       -32.9670   40.2900   19.4210 C.3       1 MN0         0.0386
     22 O1B       -31.9570   38.5340   22.0650 O.co2     1 MN0        -0.5426
     23 O1A       -34.1700   38.6740   22.0320 O.co2     1 MN0        -0.5426
     24 H1        -34.7140   40.9184   23.0259 H         1 MN0         0.0336
     25 H2        -34.0257   42.4693   22.4361 H         1 MN0         0.0336
     26 H3        -33.1006   40.7207   24.7493 H         1 MN0         0.0618
     27 H4        -33.3135   42.7993   25.7839 H         1 MN0         0.2099
     28 H5        -31.5480   43.1027   23.6247 H         1 MN0         0.0608
     29 H6        -31.2732   41.4833   26.0884 H         1 MN0         0.1856
     30 H7        -30.8950   40.1303   23.5361 H         1 MN0         0.0646
     31 H8        -28.7674   41.2846   23.6234 H         1 MN0         0.0647
     32 H9        -29.5754   43.3897   23.0753 H         1 MN0         0.2100
     33 H10       -29.3354   40.9271   20.6537 H         1 MN0         0.0643
     34 H11       -30.2780   39.1741   21.8289 H         1 MN0         0.2100
     35 H12       -26.9282   40.1928   22.3980 H         1 MN0         0.0584
     36 H13       -27.0361   41.6071   21.2958 H         1 MN0         0.0584
     37 H14       -27.4126   40.0839   19.5773 H         1 MN0         0.2095
     38 H15       -29.6456   43.8994   27.6810 H         1 MN0         0.0801
     39 H16       -28.4266   42.6797   27.1777 H         1 MN0         0.0801
     40 H17       -29.8386   41.9072   28.8354 H         1 MN0         0.2129
     41 H18       -33.4573   40.5946   18.4846 H         1 MN0         0.0523
     42 H19       -33.1305   39.2151   19.5876 H         1 MN0         0.0523
     43 H20       -31.8876   40.4904   19.3517 H         1 MN0         0.0523
@<TRIPOS>BOND
     1    1    2 1  
     2    1   22 ar 
     3    1   23 ar 
     4    2    3 1  
     5    2    4 1  
     6    2   10 1  
     7    3   21 1  
     8    4    5 1  
     9    5    6 1  
    10    5    7 1  
    11    7    8 1  
    12    7    9 1  
    13    8   17 am 
    14    9   10 1  
    15    9   11 1  
    16   11   12 1  
    17   11   13 1  
    18   13   14 1  
    19   13   15 1  
    20   15   16 1  
    21   17   18 2  
    22   17   19 1  
    23   19   20 1  
    24    4   24 1  
    25    4   25 1  
    26    5   26 1  
    27    6   27 1  
    28    7   28 1  
    29    8   29 1  
    30    9   30 1  
    31   11   31 1  
    32   12   32 1  
    33   13   33 1  
    34   14   34 1  
    35   15   35 1  
    36   15   36 1  
    37   16   37 1  
    38   19   38 1  
    39   19   39 1  
    40   20   40 1  
    41   21   41 1  
    42   21   42 1  
    43   21   43 1  
@<TRIPOS>SUBSTRUCTURE
     1 MN0         1

