### 
### Created by X-TOOL on Mon Sep 10 21:13:07 2018
### 

@<TRIPOS>MOLECULE
3tcg_ligand
   47    46     1     0     0
SMALL
GAST_HUCK


@<TRIPOS>ATOM
      1 N          12.0700  -23.2270   12.9950 N.4       1 LYS         0.2379
      2 CA         12.5270  -23.4130   11.5830 C.3       1 LYS         0.0650
      3 C          13.9210  -24.0190   11.5400 C.2       1 LYS         0.2265
      4 O          14.7210  -23.7560   12.4120 O.2       1 LYS        -0.3907
      5 CB         12.5120  -22.0790   10.8140 C.3       1 LYS         0.0080
      6 CG         13.2160  -20.9120   11.4740 C.3       1 LYS        -0.0410
      7 CD         13.2330  -19.7320   10.5010 C.3       1 LYS        -0.0123
      8 CE         13.6570  -18.4060   11.0860 C.3       1 LYS        -0.0354
      9 NZ         14.2400  -18.4610   12.4580 N.4       1 LYS         0.2185
     10 N          14.1860  -24.8270   10.5140 N.am      1 GLY        -0.2637
     11 CA         15.4790  -25.5000   10.3430 C.3       1 GLY         0.1202
     12 C          16.5280  -24.6010    9.7280 C.2       1 GLY         0.2002
     13 O          16.2490  -23.8520    8.7960 O.2       1 GLY        -0.3947
     14 N          17.7510  -24.6870   10.2410 N.am      1 GLU        -0.2696
     15 CA         18.8180  -23.7670    9.8570 C.3       1 GLU         0.0958
     16 C          20.0970  -24.5320    9.5410 C.2       1 GLU         0.0602
     17 O          20.8340  -24.1310    8.6430 O.co2     1 GLU        -0.5666
     18 CB         19.0170  -22.7530   10.9820 C.3       1 GLU        -0.0064
     19 CG         20.4000  -22.1180   11.1590 C.3       1 GLU         0.0038
     20 CD         20.8480  -21.2230   10.0190 C.2       1 GLU         0.0350
     21 OE1        20.2280  -20.1580    9.7930 O.co2     1 GLU        -0.5690
     22 OE2        21.8670  -21.5690    9.3780 O.co2     1 GLU        -0.5690
     23 O1         20.3966  -25.5667   10.1946 O.co2     1 GLU        -0.5666
     24 H1         11.1457  -22.8249   12.9988 H         1 LYS         0.2015
     25 H2         12.7064  -22.6106   13.4757 H         1 LYS         0.2015
     26 H3         12.0498  -24.1200   13.4621 H         1 LYS         0.2015
     27 H4         11.8319  -24.1062   11.0867 H         1 LYS         0.1098
     28 H5         11.4609  -21.7926   10.6616 H         1 LYS         0.0346
     29 H6         12.9907  -22.2499    9.8385 H         1 LYS         0.0346
     30 H7         14.2478  -21.1976   11.7266 H         1 LYS         0.0270
     31 H8         12.6794  -20.6272   12.3910 H         1 LYS         0.0270
     32 H9         12.2171  -19.6132   10.0962 H         1 LYS         0.0317
     33 H10        13.9269  -19.9780    9.6837 H         1 LYS         0.0317
     34 H11        12.7721  -17.7535   11.1208 H         1 LYS         0.0813
     35 H12        14.4106  -17.9665   10.4160 H         1 LYS         0.0813
     36 H13        14.4887  -17.5304   12.7549 H         1 LYS         0.1994
     37 H14        15.0634  -19.0424   12.4502 H         1 LYS         0.1994
     38 H15        13.5619  -18.8473   13.0960 H         1 LYS         0.1994
     39 H16        13.4725  -24.9816    9.8306 H         1 GLY         0.1882
     40 H17        15.3374  -26.3736    9.6897 H         1 GLY         0.0763
     41 H18        15.8354  -25.8333   11.3288 H         1 GLY         0.0763
     42 H19        17.9465  -25.4037   10.9105 H         1 GLU         0.1875
     43 H20        18.5103  -23.2259    8.9501 H         1 GLU         0.0727
     44 H21        18.7707  -23.2624   11.9253 H         1 GLU         0.0323
     45 H22        18.3033  -21.9337   10.8104 H         1 GLU         0.0323
     46 H23        21.1360  -22.9285   11.2653 H         1 GLU         0.0432
     47 H24        20.3830  -21.5152   12.0789 H         1 GLU         0.0432
@<TRIPOS>BOND
     1    1    2 1  
     2    2    3 1  
     3    2    5 1  
     4    3    4 2  
     5    3   10 am 
     6    5    6 1  
     7    6    7 1  
     8    7    8 1  
     9    8    9 1  
    10   10   11 1  
    11   11   12 1  
    12   12   13 2  
    13   12   14 am 
    14   14   15 1  
    15   15   16 1  
    16   15   18 1  
    17   16   17 ar 
    18   18   19 1  
    19   19   20 1  
    20   20   21 ar 
    21   20   22 ar 
    22   16   23 ar 
    23    1   24 1  
    24    1   25 1  
    25    1   26 1  
    26    2   27 1  
    27    5   28 1  
    28    5   29 1  
    29    6   30 1  
    30    6   31 1  
    31    7   32 1  
    32    7   33 1  
    33    8   34 1  
    34    8   35 1  
    35    9   36 1  
    36    9   37 1  
    37    9   38 1  
    38   10   39 1  
    39   11   40 1  
    40   11   41 1  
    41   14   42 1  
    42   15   43 1  
    43   18   44 1  
    44   18   45 1  
    45   19   46 1  
    46   19   47 1  
@<TRIPOS>SUBSTRUCTURE
     1 LYS         1

