### 
### Created by X-TOOL on Mon Sep 10 21:13:11 2018
### 

@<TRIPOS>MOLECULE
3tcp_ligand
   59    62     1     0     0
SMALL
GAST_HUCK


@<TRIPOS>ATOM
      1 C           3.2030  -17.3630   12.9520 C.ar      1 CKJ        -0.0554
      2 F           0.7580  -17.4990   10.2840 F         1 CKJ        -0.1831
      3 N           4.1910  -17.2690   15.7150 N.2       1 CKJ        -0.1940
      4 C01         5.0680  -15.7990   18.4230 C.3       1 CKJ        -0.0122
      5 N01         2.9440  -21.2910   19.7400 N.pl3     1 CKJ        -0.2917
      6 C02         3.7640  -20.9110   20.8810 C.3       1 CKJ         0.0306
      7 N02         4.5510  -17.7050   16.9850 N.pl3     1 CKJ        -0.1830
      8 C03         3.4270  -19.5530   21.4960 C.3       1 CKJ        -0.0327
      9 C04         4.3200  -19.2500   22.6950 C.3       1 CKJ        -0.0540
     10 C05         5.6380  -18.6380   22.2770 C.3       1 CKJ        -0.0652
     11 C06         2.5000  -17.9760   13.9940 C.ar      1 CKJ        -0.0112
     12 C07         1.1950  -18.4260   13.7890 C.ar      1 CKJ        -0.0554
     13 C08         0.6110  -18.2660   12.5340 C.ar      1 CKJ        -0.0276
     14 C09         1.3210  -17.6540   11.4940 C.ar      1 CKJ         0.1327
     15 C10         2.6200  -17.2060   11.6990 C.ar      1 CKJ        -0.0276
     16 C23         2.0470  -20.1180   16.4680 C.ar      1 CKJ         0.0174
     17 N24         2.0790  -20.8340   17.6070 N.ar      1 CKJ        -0.2611
     18 C25         2.9430  -20.5580   18.6040 C.ar      1 CKJ         0.1786
     19 N26         3.8110  -19.5280   18.4830 N.ar      1 CKJ        -0.2392
     20 C27         2.9310  -19.0550   16.3330 C.ar      1 CKJ         0.0568
     21 C28         3.7690  -18.7820   17.3100 C.ar      1 CKJ         0.1610
     22 C31         3.1810  -18.1100   15.3170 C.2       1 CKJ         0.0687
     23 C32         5.5860  -17.1080   17.8270 C.3       1 CKJ         0.0729
     24 C33         3.7350  -15.9770   19.1660 C.3       1 CKJ        -0.0426
     25 C35         6.1080  -15.2520   19.3990 C.3       1 CKJ        -0.0426
     26 C36         5.6610  -13.9150   19.9980 C.3       1 CKJ        -0.0094
     27 C37         4.3100  -14.0260   20.7130 C.3       1 CKJ        -0.0244
     28 C38         3.2490  -14.6650   19.8020 C.3       1 CKJ        -0.0094
     29 N39         3.9110  -12.6910   21.1150 N.4       1 CKJ         0.2207
     30 H           4.2180  -17.0047   13.1235 H         1 CKJ         0.0610
     31 H           4.8967  -15.1076   17.5980 H         1 CKJ         0.0328
     32 H           2.3598  -22.1251   19.7985 H         1 CKJ         0.1861
     33 H           4.7914  -20.8475   20.5225 H         1 CKJ         0.0524
     34 H           3.5910  -21.6584   21.6553 H         1 CKJ         0.0524
     35 H           2.3902  -19.5721   21.8318 H         1 CKJ         0.0285
     36 H           3.5854  -18.7819   20.7420 H         1 CKJ         0.0285
     37 H           4.5272  -20.1870   23.2119 H         1 CKJ         0.0263
     38 H           3.8008  -18.5377   23.3362 H         1 CKJ         0.0263
     39 H           6.1676  -19.3307   21.6229 H         1 CKJ         0.0230
     40 H           5.4515  -17.7049   21.7454 H         1 CKJ         0.0230
     41 H           6.2417  -18.4388   23.1624 H         1 CKJ         0.0230
     42 H           0.6396  -18.8966   14.6003 H         1 CKJ         0.0610
     43 H          -0.4054  -18.6197   12.3608 H         1 CKJ         0.0605
     44 H           3.1759  -16.7369   10.8872 H         1 CKJ         0.0605
     45 H           1.3453  -20.3659   15.6716 H         1 CKJ         0.0920
     46 H           5.8410  -17.7973   18.6320 H         1 CKJ         0.0626
     47 H           6.4721  -16.9069   17.2250 H         1 CKJ         0.0626
     48 H           3.8839  -16.7064   19.9622 H         1 CKJ         0.0271
     49 H           2.9851  -16.3044   18.4459 H         1 CKJ         0.0271
     50 H           7.0417  -15.0951   18.8589 H         1 CKJ         0.0271
     51 H           6.2345  -15.9700   20.2093 H         1 CKJ         0.0271
     52 H           5.5573  -13.1962   19.1852 H         1 CKJ         0.0320
     53 H           6.4075  -13.6034   20.7286 H         1 CKJ         0.0320
     54 H           4.4035  -14.6711   21.5866 H         1 CKJ         0.0850
     55 H           2.3733  -14.8898   20.4109 H         1 CKJ         0.0320
     56 H           3.0278  -13.9627   18.9983 H         1 CKJ         0.0320
     57 H           3.0120  -12.7361   21.5948 H         1 CKJ         0.1997
     58 H           4.6140  -12.3021   21.7434 H         1 CKJ         0.1997
     59 H           3.8273  -12.0991   20.2885 H         1 CKJ         0.1997
@<TRIPOS>BOND
     1   11    1 ar 
     2    1   15 ar 
     3   14    2 1  
     4    7    3 1  
     5    3   22 2  
     6   23    4 1  
     7    4   24 1  
     8    4   25 1  
     9    5    6 1  
    10   18    5 1  
    11    6    8 1  
    12   21    7 1  
    13    7   23 1  
    14    8    9 1  
    15    9   10 1  
    16   11   12 ar 
    17   22   11 1  
    18   12   13 ar 
    19   13   14 ar 
    20   15   14 ar 
    21   17   16 ar 
    22   16   20 ar 
    23   18   17 ar 
    24   19   18 ar 
    25   19   21 ar 
    26   20   21 ar 
    27   20   22 1  
    28   24   28 1  
    29   25   26 1  
    30   26   27 1  
    31   27   28 1  
    32   27   29 1  
    33    1   30 1  
    34    4   31 1  
    35    5   32 1  
    36    6   33 1  
    37    6   34 1  
    38    8   35 1  
    39    8   36 1  
    40    9   37 1  
    41    9   38 1  
    42   10   39 1  
    43   10   40 1  
    44   10   41 1  
    45   12   42 1  
    46   13   43 1  
    47   15   44 1  
    48   16   45 1  
    49   23   46 1  
    50   23   47 1  
    51   24   48 1  
    52   24   49 1  
    53   25   50 1  
    54   25   51 1  
    55   26   52 1  
    56   26   53 1  
    57   27   54 1  
    58   28   55 1  
    59   28   56 1  
    60   29   57 1  
    61   29   58 1  
    62   29   59 1  
@<TRIPOS>SUBSTRUCTURE
     1 CKJ         1

