### 
### Created by X-TOOL on Mon Sep 10 21:13:08 2018
### 

@<TRIPOS>MOLECULE
3tct_ligand
   26    28     1     0     0
SMALL
GAST_HUCK


@<TRIPOS>ATOM
      1 OAA         0.6100   -1.0360    0.4330 O.co2     1 3MI        -0.5621
      2 OAB         2.2530   -2.0740   -0.6340 O.co2     1 3MI        -0.5621
      3 CAE        -0.0630    0.4020   -1.8210 C.ar      1 3MI        -0.0602
      4 CAF        -0.5380    1.0350   -2.9580 C.ar      1 3MI        -0.0541
      5 CAG        -0.0700   -0.0250  -10.4080 C.ar      1 3MI        -0.0294
      6 CAH        -0.3970    1.1700   -8.3640 C.ar      1 3MI        -0.0282
      7 CAI         0.3050   -1.1730   -8.3510 C.ar      1 3MI        -0.0282
      8 CAJ         1.0980   -1.2750   -3.1550 C.ar      1 3MI        -0.0130
      9 NAK        -0.5380    0.8830   -5.4330 N.2       1 3MI        -0.2845
     10 OAL         0.6900   -0.9510   -5.6040 O.3       1 3MI        -0.2196
     11 CAM         1.2510   -1.3330   -0.6040 C.2       1 3MI         0.0578
     12 CAN        -0.4150    1.1300   -9.7300 C.ar      1 3MI         0.0465
     13 CAO         0.2880   -1.1650   -9.7170 C.ar      1 3MI         0.0465
     14 CAP         0.7640   -0.7080   -1.9130 C.ar      1 3MI         0.0002
     15 CAQ        -0.0460    0.0030   -7.6950 C.ar      1 3MI         0.0487
     16 CAR        -0.0030    0.0110   -6.2930 C.2       1 3MI         0.2051
     17 CAS        -0.2270    0.4890   -4.1900 C.ar      1 3MI         0.0523
     18 CAT         0.5810   -0.6430   -4.2790 C.ar      1 3MI         0.1479
     19 CLC        -0.8250    2.5390  -10.6170 Cl        1 3MI        -0.0695
     20 CLD         0.6920   -2.5930  -10.5760 Cl        1 3MI        -0.0695
     21 H1         -0.3419    0.7800   -0.8441 H         1 3MI         0.0565
     22 H2         -1.1378    1.9349   -2.8840 H         1 3MI         0.0568
     23 H3         -0.0808   -0.0351  -11.4919 H         1 3MI         0.0665
     24 H4         -0.6466    2.0759   -7.8235 H         1 3MI         0.0677
     25 H5          0.5819   -2.0633   -7.7981 H         1 3MI         0.0677
     26 H6          1.7242   -2.1565   -3.2316 H         1 3MI         0.0601
@<TRIPOS>BOND
     1   11    1 ar 
     2   11    2 ar 
     3    4    3 ar 
     4   14    3 ar 
     5   17    4 ar 
     6   12    5 ar 
     7   13    5 ar 
     8    6   12 ar 
     9   15    6 ar 
    10    7   13 ar 
    11   15    7 ar 
    12    8   14 ar 
    13   18    8 ar 
    14   16    9 2  
    15    9   17 1  
    16   16   10 1  
    17   10   18 1  
    18   14   11 1  
    19   12   19 1  
    20   13   20 1  
    21   15   16 1  
    22   17   18 ar 
    23    3   21 1  
    24    4   22 1  
    25    5   23 1  
    26    6   24 1  
    27    7   25 1  
    28    8   26 1  
@<TRIPOS>SUBSTRUCTURE
     1 3MI         1

