### 
### Created by X-TOOL on Mon Sep 10 21:13:09 2018
### 

@<TRIPOS>MOLECULE
3tcy_ligand
   23    23     1     0     0
SMALL
GAST_HUCK


@<TRIPOS>ATOM
      1 N           5.0730   -7.9540  -16.9720 N.4       1 PHE         0.2341
      2 CA          6.2070   -7.6850  -16.0830 C.3       1 PHE         0.0378
      3 C           7.4870   -8.2940  -16.5950 C.2       1 PHE         0.0866
      4 O           7.5980   -8.5970  -17.7850 O.co2     1 PHE        -0.5641
      5 CB          5.9630   -8.2370  -14.6730 C.3       1 PHE         0.0361
      6 CG          5.0310   -7.3600  -13.8790 C.ar      1 PHE        -0.0360
      7 CD1         5.5010   -6.1680  -13.3070 C.ar      1 PHE        -0.0600
      8 CD2         3.7100   -7.7690  -13.7040 C.ar      1 PHE        -0.0600
      9 CE1         4.6080   -5.3690  -12.5750 C.ar      1 PHE        -0.0686
     10 CE2         2.8330   -6.9680  -12.9740 C.ar      1 PHE        -0.0686
     11 CZ          3.2870   -5.7720  -12.4230 C.ar      1 PHE        -0.0687
     12 OXT         8.4280   -8.4480  -15.7940 O.co2     1 PHE        -0.5641
     13 H1          4.2408   -7.5301  -16.5927 H         1 PHE         0.2012
     14 H2          4.9368   -8.9496  -17.0510 H         1 PHE         0.2012
     15 H3          5.2615   -7.5672  -17.8835 H         1 PHE         0.2012
     16 H4          6.3359   -6.5944  -16.0195 H         1 PHE         0.1048
     17 H5          6.9259   -8.3019  -14.1451 H         1 PHE         0.0500
     18 H6          5.5218   -9.2412  -14.7558 H         1 PHE         0.0500
     19 H7          6.5359   -5.8690  -13.4282 H         1 PHE         0.0557
     20 H8          3.3669   -8.7037  -14.1327 H         1 PHE         0.0557
     21 H9          4.9481   -4.4409  -12.1300 H         1 PHE         0.0599
     22 H10         1.8025   -7.2746  -12.8358 H         1 PHE         0.0599
     23 H11         2.5989   -5.1457  -11.8668 H         1 PHE         0.0559
@<TRIPOS>BOND
     1    1    2 1  
     2    2    3 1  
     3    2    5 1  
     4    3    4 ar 
     5    3   12 ar 
     6    5    6 1  
     7    6    7 ar 
     8    6    8 ar 
     9    7    9 ar 
    10    8   10 ar 
    11    9   11 ar 
    12   10   11 ar 
    13    1   13 1  
    14    1   14 1  
    15    1   15 1  
    16    2   16 1  
    17    5   17 1  
    18    5   18 1  
    19    7   19 1  
    20    8   20 1  
    21    9   21 1  
    22   10   22 1  
    23   11   23 1  
@<TRIPOS>SUBSTRUCTURE
     1 PHE         1

