### 
### Created by X-TOOL on Mon Sep 10 21:13:06 2018
### 

@<TRIPOS>MOLECULE
3td4_ligand
   27    26     1     0     0
SMALL
GAST_HUCK


@<TRIPOS>ATOM
      1 C1         22.5490    1.0090   30.0020 C.2       1 API         0.0844
      2 C2         21.4150    1.9200   30.3680 C.3       1 API         0.0283
      3 C3         20.7920    2.5830   29.0850 C.3       1 API         0.0027
      4 C4         20.4200    1.6020   28.0020 C.3       1 API        -0.0397
      5 C5         19.0930    2.0760   27.3030 C.3       1 API         0.0027
      6 C6         19.4270    3.0420   26.1780 C.3       1 API         0.0283
      7 C7         18.1670    3.8350   25.7830 C.2       1 API         0.0844
      8 O1         23.5700    1.5790   29.5070 O.co2     1 API        -0.5643
      9 O2         22.4150   -0.2280   30.1640 O.co2     1 API        -0.5643
     10 O3         17.9270    3.8710   24.5670 O.co2     1 API        -0.5643
     11 O4         17.4070    4.4110   26.5810 O.co2     1 API        -0.5643
     12 N2         22.0200    2.9840   31.1580 N.4       1 API         0.2327
     13 N6         20.0250    2.2620   25.0780 N.4       1 API         0.2327
     14 H1         20.6437    1.3798   30.9365 H         1 API         0.1024
     15 H2         21.5252    3.2914   28.6719 H         1 API         0.0339
     16 H3         19.8842    3.1275   29.3841 H         1 API         0.0339
     17 H4         20.2665    0.6068   28.4448 H         1 API         0.0271
     18 H5         21.2290    1.5517   27.2584 H         1 API         0.0271
     19 H6         18.4508    2.5803   28.0400 H         1 API         0.0339
     20 H7         18.5640    1.2037   26.8916 H         1 API         0.0339
     21 H8         20.1782    3.7622   26.5342 H         1 API         0.1024
     22 H9         22.4304    2.5921   31.9911 H         1 API         0.2010
     23 H10        21.3131    3.6550   31.4153 H         1 API         0.2010
     24 H11        22.7352    3.4411   30.6143 H         1 API         0.2010
     25 H12        20.2571    2.8795   24.3158 H         1 API         0.2010
     26 H13        19.3655    1.5691   24.7602 H         1 API         0.2010
     27 H14        20.8610    1.8045   25.4063 H         1 API         0.2010
@<TRIPOS>BOND
     1    1    2 1  
     2    1    8 ar 
     3    1    9 ar 
     4    2    3 1  
     5    2   12 1  
     6    3    4 1  
     7    4    5 1  
     8    5    6 1  
     9    6    7 1  
    10    6   13 1  
    11    7   10 ar 
    12    7   11 ar 
    13    2   14 1  
    14    3   15 1  
    15    3   16 1  
    16    4   17 1  
    17    4   18 1  
    18    5   19 1  
    19    5   20 1  
    20    6   21 1  
    21   12   22 1  
    22   12   23 1  
    23   12   24 1  
    24   13   25 1  
    25   13   26 1  
    26   13   27 1  
@<TRIPOS>SUBSTRUCTURE
     1 API         1

