### 
### Created by X-TOOL on Mon Sep 10 21:13:05 2018
### 

@<TRIPOS>MOLECULE
3tdj_ligand
   26    27     1     0     0
SMALL
GAST_HUCK


@<TRIPOS>ATOM
      1 CAA        76.3260   21.0600   27.1780 C.3       1 3TJ        -0.0455
      2 OAB        73.4220   16.4640   30.4290 O.2       1 3TJ        -0.1523
      3 OAC        75.6990   16.8530   31.8970 O.2       1 3TJ        -0.1523
      4 FAD        78.0100   14.4980   27.6530 F         1 3TJ        -0.1946
      5 CAE        77.2390   16.6730   26.7250 C.ar      1 3TJ        -0.0398
      6 CAF        76.4900   17.8160   26.8850 C.ar      1 3TJ        -0.0439
      7 CAG        76.5480   15.7950   28.9630 C.ar      1 3TJ        -0.0133
      8 CAH        74.9760   20.3490   27.2950 C.3       1 3TJ         0.0248
      9 CAI        73.9850   19.4250   29.4530 C.3       1 3TJ         0.1055
     10 NAJ        74.5690   18.8030   30.6960 N.am      1 3TJ        -0.2282
     11 CAK        77.2620   15.6210   27.8020 C.ar      1 3TJ         0.1198
     12 CAL        75.7570   18.0000   28.0630 C.ar      1 3TJ         0.0644
     13 CAM        75.7960   16.9650   29.1100 C.ar      1 3TJ         0.1237
     14 NAN        74.9030   19.2740   28.2660 N.pl3     1 3TJ        -0.2928
     15 SAO        74.8400   17.2720   30.5800 S.o2      1 3TJ         0.0654
     16 H          76.5866   21.5027   28.1394 H         1 3TJ         0.0249
     17 H          77.0910   20.3392   26.8892 H         1 3TJ         0.0249
     18 H          76.2587   21.8427   26.4224 H         1 3TJ         0.0249
     19 H          77.8190   16.5282   25.8135 H         1 3TJ         0.0571
     20 H          76.4677   18.5723   26.1004 H         1 3TJ         0.0507
     21 H          76.5672   15.0404   29.7494 H         1 3TJ         0.0591
     22 H          74.7846   19.8954   26.3225 H         1 3TJ         0.0510
     23 H          74.2606   21.1040   27.6211 H         1 3TJ         0.0510
     24 H          73.8382   20.4889   29.6391 H         1 3TJ         0.0733
     25 H          73.0461   18.9199   29.2261 H         1 3TJ         0.0733
     26 H          74.7697   19.3382   31.5408 H         1 3TJ         0.1692
@<TRIPOS>BOND
     1    8    1 1  
     2   15    2 2  
     3   15    3 2  
     4   11    4 1  
     5    6    5 ar 
     6    5   11 ar 
     7   12    6 ar 
     8    7   11 ar 
     9   13    7 ar 
    10   14    8 1  
    11    9   10 1  
    12   14    9 1  
    13   10   15 am 
    14   12   13 ar 
    15   12   14 1  
    16   13   15 1  
    17    1   16 1  
    18    1   17 1  
    19    1   18 1  
    20    5   19 1  
    21    6   20 1  
    22    7   21 1  
    23    8   22 1  
    24    8   23 1  
    25    9   24 1  
    26    9   25 1  
    27   10   26 1  
@<TRIPOS>SUBSTRUCTURE
     1 3TJ         1

