### 
### Created by X-TOOL on Mon Sep 10 21:13:06 2018
### 

@<TRIPOS>MOLECULE
3tf6_ligand
   16    16     1     0     0
SMALL
GAST_HUCK


@<TRIPOS>ATOM
      1 C21        28.5090   82.0240   62.9500 C.2       1 DBH         0.0554
      2 O9         29.7559   81.9038   63.0852 O.co2     1 DBH        -0.5646
      3 C18        27.6670   80.8400   62.5360 C.ar      1 DBH         0.0304
      4 C15        26.8420   80.9670   61.4410 C.ar      1 DBH        -0.0675
      5 C12        26.0460   79.9180   61.0470 C.ar      1 DBH        -0.0783
      6 C3         27.7040   79.6370   63.2390 C.ar      1 DBH         0.1314
      7 O3         28.5320   79.5260   64.3250 O.3       1 DBH        -0.3332
      8 C6         26.9120   78.5510   62.8370 C.ar      1 DBH         0.1200
      9 C9         26.0830   78.7140   61.7320 C.ar      1 DBH        -0.0390
     10 O6         26.9390   77.3210   63.4940 O.3       1 DBH        -0.3362
     11 O          27.9609   83.1387   63.1614 O.co2     1 DBH        -0.5646
     12 H1         26.8201   81.8986   60.8871 H         1 DBH         0.0527
     13 H2         25.3854   80.0332   60.1953 H         1 DBH         0.0503
     14 H3         28.4490   78.6560   64.6975 H         1 DBH         0.2460
     15 H4         25.4594   77.8905   61.4033 H         1 DBH         0.0529
     16 H5         27.5476   77.3654   64.2220 H         1 DBH         0.2443
@<TRIPOS>BOND
     1    1    2 ar 
     2    1    3 1  
     3    3    4 ar 
     4    3    6 ar 
     5    4    5 ar 
     6    5    9 ar 
     7    6    7 1  
     8    6    8 ar 
     9    8    9 ar 
    10    8   10 1  
    11    1   11 ar 
    12    4   12 1  
    13    5   13 1  
    14    7   14 1  
    15    9   15 1  
    16   10   16 1  
@<TRIPOS>SUBSTRUCTURE
     1 DBH         1

