### 
### Created by X-TOOL on Mon Sep 10 21:13:10 2018
### 

@<TRIPOS>MOLECULE
3tfn_ligand
   63    66     1     0     0
SMALL
GAST_HUCK


@<TRIPOS>ATOM
      1 OAA         6.0010   21.1640    5.6370 O.co2     1 2CJ        -0.5690
      2 OAB         2.0990   23.8690    7.6700 O.2       1 2CJ        -0.3969
      3 OAC         7.2810   21.9940    7.1850 O.co2     1 2CJ        -0.5690
      4 CAD        -4.4530   29.5170    8.2570 C.ar      1 2CJ        -0.0685
      5 CAE        -1.2460   29.9900    2.8400 C.ar      1 2CJ        -0.0685
      6 CAF        -3.4110   30.1130    8.8770 C.ar      1 2CJ        -0.0680
      7 CAG        -4.2150   28.6750    7.2120 C.ar      1 2CJ        -0.0680
      8 CAH        -1.8510   28.8670    3.3480 C.ar      1 2CJ        -0.0680
      9 CAI        -0.3920   30.7400    3.6070 C.ar      1 2CJ        -0.0680
     10 CAJ        -2.1520   29.8650    8.4190 C.ar      1 2CJ        -0.0530
     11 CAK        -2.9530   28.4400    6.7530 C.ar      1 2CJ        -0.0530
     12 CAL        -1.6200   28.4690    4.6410 C.ar      1 2CJ        -0.0530
     13 CAM        -0.1660   30.3500    4.8940 C.ar      1 2CJ        -0.0530
     14 CAN         2.6910   21.3420    4.8520 C.3       1 2CJ        -0.0523
     15 CAO         4.0930   21.2180    4.3640 C.3       1 2CJ        -0.0523
     16 CAP         2.8360   27.2930    6.9880 C.3       1 2CJ         0.0741
     17 CAQ         1.4420   26.2840    8.7390 C.3       1 2CJ         0.0741
     18 CAR         1.5740   27.9630    6.4000 C.3       1 2CJ        -0.0078
     19 CAS         0.7630   27.6380    8.5700 C.3       1 2CJ        -0.0078
     20 CAT         2.8740   22.0050    6.2170 C.3       1 2CJ        -0.0438
     21 CAU         4.5510   22.6410    4.6520 C.3       1 2CJ        -0.0438
     22 CAV         5.0620   22.7740    7.0270 C.3       1 2CJ         0.0079
     23 CAW         3.5040   24.4940    5.9290 C.3       1 2CJ         0.0445
     24 CAX         6.2160   21.9270    6.5630 C.2       1 2CJ         0.0355
     25 CAY         2.6110   24.8150    7.1140 C.2       1 2CJ         0.1794
     26 CAZ        -1.9100   29.0070    7.4090 C.ar      1 2CJ         0.0158
     27 CBA        -0.7480   29.1970    5.4140 C.ar      1 2CJ         0.0158
     28 CBB        -0.4880   28.8700    6.8990 C.3       1 2CJ         0.0462
     29 NBC         2.3530   26.0470    7.5970 N.am      1 2CJ        -0.2630
     30 NBD         0.3370   27.6960    7.1750 N.4       1 2CJ         0.2635
     31 CBE         3.9930   23.0090    5.9750 C.3       1 2CJ        -0.0010
     32 H1         -5.4679   29.7065    8.5873 H         1 2CJ         0.0561
     33 H2         -1.4465   30.2881    1.8173 H         1 2CJ         0.0561
     34 H3         -3.5731   30.7742    9.7206 H         1 2CJ         0.0600
     35 H4         -5.0515   28.1790    6.7331 H         1 2CJ         0.0600
     36 H5         -2.5189   28.2880    2.7205 H         1 2CJ         0.0600
     37 H6          0.0914   31.6210    3.2004 H         1 2CJ         0.0600
     38 H7         -1.3162   30.3757    8.8834 H         1 2CJ         0.0563
     39 H8         -2.7869   27.8143    5.8836 H         1 2CJ         0.0563
     40 H9         -2.1172   27.5949    5.0457 H         1 2CJ         0.0563
     41 H10         0.4799   30.9498    5.5250 H         1 2CJ         0.0563
     42 H11         2.2153   20.3550    4.9500 H         1 2CJ         0.0266
     43 H12         2.0906   21.9734    4.1806 H         1 2CJ         0.0266
     44 H13         4.1401   20.9752    3.2922 H         1 2CJ         0.0266
     45 H14         4.6673   20.4731    4.9344 H         1 2CJ         0.0266
     46 H15         3.2999   27.9402    7.7469 H         1 2CJ         0.0575
     47 H16         3.5659   27.0780    6.1936 H         1 2CJ         0.0575
     48 H17         0.6793   25.4920    8.7709 H         1 2CJ         0.0575
     49 H18         2.0180   26.2763    9.6761 H         1 2CJ         0.0575
     50 H19         1.4286   27.5896    5.3756 H         1 2CJ         0.0835
     51 H20         1.7389   29.0503    6.3740 H         1 2CJ         0.0835
     52 H21         1.4702   28.4515    8.7889 H         1 2CJ         0.0835
     53 H22        -0.1060   27.7174    9.2398 H         1 2CJ         0.0835
     54 H23         3.1661   21.2659    6.9775 H         1 2CJ         0.0273
     55 H24         1.9515   22.5130    6.5346 H         1 2CJ         0.0273
     56 H25         4.1730   23.3249    3.8778 H         1 2CJ         0.0273
     57 H26         5.6497   22.6877    4.6778 H         1 2CJ         0.0273
     58 H27         5.4570   23.7517    7.3402 H         1 2CJ         0.0437
     59 H28         4.5934   22.2749    7.8880 H         1 2CJ         0.0437
     60 H29         4.3789   25.1605    5.9481 H         1 2CJ         0.0509
     61 H30         2.9390   24.6570    4.9994 H         1 2CJ         0.0509
     62 H31         0.0888   29.6984    7.3361 H         1 2CJ         0.1179
     63 H32        -0.1257   26.8440    6.8993 H         1 2CJ         0.2067
@<TRIPOS>BOND
     1   24    1 ar 
     2   25    2 2  
     3   24    3 ar 
     4    6    4 ar 
     5    7    4 ar 
     6    8    5 ar 
     7    9    5 ar 
     8   10    6 ar 
     9   11    7 ar 
    10   12    8 ar 
    11   13    9 ar 
    12   26   10 ar 
    13   26   11 ar 
    14   27   12 ar 
    15   27   13 ar 
    16   15   14 1  
    17   20   14 1  
    18   21   15 1  
    19   18   16 1  
    20   16   29 1  
    21   19   17 1  
    22   17   29 1  
    23   30   18 1  
    24   30   19 1  
    25   31   20 1  
    26   31   21 1  
    27   22   24 1  
    28   31   22 1  
    29   25   23 1  
    30   23   31 1  
    31   29   25 am 
    32   28   26 1  
    33   28   27 1  
    34   28   30 1  
    35    4   32 1  
    36    5   33 1  
    37    6   34 1  
    38    7   35 1  
    39    8   36 1  
    40    9   37 1  
    41   10   38 1  
    42   11   39 1  
    43   12   40 1  
    44   13   41 1  
    45   14   42 1  
    46   14   43 1  
    47   15   44 1  
    48   15   45 1  
    49   16   46 1  
    50   16   47 1  
    51   17   48 1  
    52   17   49 1  
    53   18   50 1  
    54   18   51 1  
    55   19   52 1  
    56   19   53 1  
    57   20   54 1  
    58   20   55 1  
    59   21   56 1  
    60   21   57 1  
    61   22   58 1  
    62   22   59 1  
    63   23   60 1  
    64   23   61 1  
    65   28   62 1  
    66   30   63 1  
@<TRIPOS>SUBSTRUCTURE
     1 2CJ         1

