### 
### Created by X-TOOL on Mon Sep 10 21:13:10 2018
### 

@<TRIPOS>MOLECULE
3tfp_ligand
   42    44     1     0     0
SMALL
GAST_HUCK


@<TRIPOS>ATOM
      1 OAA        -5.2310  -26.0210    8.8900 O.co2     1 03L        -0.5594
      2 OAB        -5.2480  -27.5170    6.1490 O.2       1 03L        -0.3834
      3 OAC        -7.4500  -26.0510    8.9210 O.co2     1 03L        -0.5594
      4 CLAD        4.7820  -30.2210    9.5920 Cl        1 03L        -0.0769
      5 CLAE       -3.9390  -30.3380    4.6340 Cl        1 03L        -0.0790
      6 CAF        -7.0440  -30.2280   10.0630 C.ar      1 03L        -0.0541
      7 CLAF       -0.2940  -28.8920    8.4000 Cl        1 03L        -0.0759
      8 CAG        -6.3060  -30.9820    9.1620 C.ar      1 03L        -0.0537
      9 CAH        -0.1530  -31.0830    3.9080 C.ar      1 03L        -0.0737
     10 CAI        -1.5260  -31.1890    3.9600 C.ar      1 03L        -0.0612
     11 CAJ         0.4800  -29.9910    4.4810 C.ar      1 03L        -0.0538
     12 CAK        -7.0490  -28.8410    9.9850 C.ar      1 03L        -0.0422
     13 CAL        -5.5640  -30.3420    8.1800 C.ar      1 03L        -0.0386
     14 CAM         4.0640  -28.9030    7.3620 C.ar      1 03L        -0.0533
     15 CAN         2.3000  -29.5060    8.8810 C.ar      1 03L        -0.0395
     16 CAO         3.1430  -28.3180    6.5150 C.ar      1 03L        -0.0465
     17 CAP         1.3860  -28.9190    8.0330 C.ar      1 03L         0.0543
     18 CAQ        -2.4680  -28.0510    5.8390 C.3       1 03L         0.0633
     19 NAR        -3.3250  -28.6050    6.8880 N.am      1 03L        -0.2754
     20 SAS         0.5780  -27.6110    5.8330 S.3       1 03L        -0.0467
     21 CAT        -6.3240  -26.6750    8.9340 C.2       1 03L         0.0666
     22 CAU        -4.7160  -28.2920    6.9720 C.2       1 03L         0.2092
     23 CAV         3.6400  -29.4960    8.5420 C.ar      1 03L         0.0338
     24 CAW        -2.2690  -30.2030    4.5830 C.ar      1 03L         0.0379
     25 CAX         1.8080  -28.3250    6.8630 C.ar      1 03L         0.0431
     26 CAY        -0.2650  -29.0010    5.1030 C.ar      1 03L         0.0346
     27 CAZ        -6.3080  -28.2000    9.0050 C.ar      1 03L         0.0296
     28 CBA        -5.5650  -28.9560    8.1020 C.ar      1 03L         0.0637
     29 CBB        -1.6430  -29.1020    5.1530 C.ar      1 03L         0.0077
     30 H1         -7.6214  -30.7252   10.8340 H         1 03L         0.0659
     31 H2         -6.3092  -32.0642    9.2250 H         1 03L         0.0649
     32 H3          0.4320  -31.8536    3.4190 H         1 03L         0.0543
     33 H4         -2.0223  -32.0431    3.5137 H         1 03L         0.0549
     34 H5          1.5604  -29.9109    4.4426 H         1 03L         0.0552
     35 H6         -7.6323  -28.2604   10.6905 H         1 03L         0.0663
     36 H7         -4.9834  -30.9242    7.4736 H         1 03L         0.0676
     37 H8          5.1170  -28.8987    7.1048 H         1 03L         0.0608
     38 H9          1.9717  -29.9705    9.8038 H         1 03L         0.0612
     39 H10         3.4654  -27.8587    5.5876 H         1 03L         0.0569
     40 H11        -1.7911  -27.3112    6.2911 H         1 03L         0.0671
     41 H12        -3.1033  -27.5568    5.0893 H         1 03L         0.0671
     42 H13        -2.9247  -29.2212    7.5663 H         1 03L         0.1870
@<TRIPOS>BOND
     1   21    1 ar 
     2   22    2 2  
     3   21    3 ar 
     4   23    4 1  
     5   24    5 1  
     6    8    6 ar 
     7    6   12 ar 
     8   17    7 1  
     9   13    8 ar 
    10   10    9 ar 
    11    9   11 ar 
    12   24   10 ar 
    13   11   26 ar 
    14   12   27 ar 
    15   28   13 ar 
    16   16   14 ar 
    17   14   23 ar 
    18   17   15 ar 
    19   15   23 ar 
    20   25   16 ar 
    21   25   17 ar 
    22   18   19 1  
    23   29   18 1  
    24   19   22 am 
    25   20   25 1  
    26   26   20 1  
    27   27   21 1  
    28   22   28 1  
    29   24   29 ar 
    30   26   29 ar 
    31   27   28 ar 
    32    6   30 1  
    33    8   31 1  
    34    9   32 1  
    35   10   33 1  
    36   11   34 1  
    37   12   35 1  
    38   13   36 1  
    39   14   37 1  
    40   15   38 1  
    41   16   39 1  
    42   18   40 1  
    43   18   41 1  
    44   19   42 1  
@<TRIPOS>SUBSTRUCTURE
     1 03L         1

