### 
### Created by X-TOOL on Mon Sep 10 21:13:11 2018
### 

@<TRIPOS>MOLECULE
3tfv_ligand
   53    54     1     0     0
SMALL
GAST_HUCK


@<TRIPOS>ATOM
      1 CAA       -23.1920   21.1710    8.2320 C.3       1 2CN        -0.0653
      2 OAB       -26.6090    6.7850    5.5980 O.co2     1 2CN        -0.5629
      3 OAC       -27.3570    4.8960    4.7150 O.co2     1 2CN        -0.5629
      4 BRAD      -31.7160    5.8370    1.8140 Br        1 2CN        -0.0553
      5 CAE       -28.5750   11.8330    9.8520 C.ar      1 2CN        -0.0772
      6 CAF       -29.2320   11.0730    8.9240 C.ar      1 2CN        -0.0705
      7 CAG       -31.1750    7.8020    3.6980 C.ar      1 2CN        -0.0556
      8 CAH       -27.5070   12.5920    9.4860 C.ar      1 2CN        -0.0401
      9 CAI       -30.4660    8.4350    4.6960 C.ar      1 2CN        -0.0430
     10 CAJ       -27.7540   11.8310    7.2480 C.ar      1 2CN        -0.0313
     11 CAK       -29.4960    6.1060    3.5790 C.ar      1 2CN        -0.0437
     12 CAL       -22.8390   19.8200    7.6600 C.3       1 2CN        -0.0559
     13 CAM       -24.0620   18.9560    7.5750 C.3       1 2CN        -0.0533
     14 CAN       -23.6890   17.4920    7.6500 C.3       1 2CN        -0.0531
     15 CAO       -24.8330   16.6040    7.1780 C.3       1 2CN        -0.0530
     16 CAP       -24.6540   15.1720    7.6310 C.3       1 2CN        -0.0506
     17 CAQ       -24.5970   14.2330    6.4540 C.3       1 2CN        -0.0251
     18 CAR       -25.7900   13.3180    6.4940 C.3       1 2CN         0.0703
     19 CAS       -29.5620   10.2130    6.6290 C.3       1 2CN         0.0395
     20 OAT       -26.0560   13.3640    7.8380 O.3       1 2CN        -0.3198
     21 SAU       -28.4800    8.7850    6.3740 S.3       1 2CN        -0.0821
     22 CAV       -27.4770    6.1020    5.0040 C.2       1 2CN         0.0601
     23 CAW       -30.6930    6.6420    3.1440 C.ar      1 2CN         0.0093
     24 CAX       -28.8370   11.0750    7.6240 C.ar      1 2CN        -0.0397
     25 CAY       -27.0990   12.5940    8.1810 C.ar      1 2CN         0.0845
     26 CAZ       -29.2780    7.9140    5.1360 C.ar      1 2CN         0.0352
     27 CBA       -28.7820    6.7450    4.5750 C.ar      1 2CN         0.0252
     28 H1        -22.2866   21.7932    8.2884 H         1 2CN         0.0230
     29 H2        -23.6128   21.0437    9.2403 H         1 2CN         0.0230
     30 H3        -23.9338   21.6610    7.5842 H         1 2CN         0.0230
     31 H4        -28.9068   11.8306   10.8840 H         1 2CN         0.0572
     32 H5        -30.0753   10.4637    9.2283 H         1 2CN         0.0465
     33 H6        -32.1129    8.2199    3.3506 H         1 2CN         0.0647
     34 H7        -26.9837   13.1904   10.2230 H         1 2CN         0.0486
     35 H8        -30.8500    9.3489    5.1346 H         1 2CN         0.0579
     36 H9        -27.4179   11.8248    6.2174 H         1 2CN         0.0479
     37 H10       -29.1188    5.1889    3.1412 H         1 2CN         0.0661
     38 H11       -22.0956   19.3340    8.3089 H         1 2CN         0.0263
     39 H12       -22.4166   19.9513    6.6529 H         1 2CN         0.0263
     40 H13       -24.5751   19.1494    6.6214 H         1 2CN         0.0265
     41 H14       -24.7353   19.2002    8.4099 H         1 2CN         0.0265
     42 H15       -23.4444   17.2375    8.6918 H         1 2CN         0.0265
     43 H16       -22.8104   17.3131    7.0129 H         1 2CN         0.0265
     44 H17       -24.8725   16.6278    6.0790 H         1 2CN         0.0265
     45 H18       -25.7775   16.9918    7.5874 H         1 2CN         0.0265
     46 H19       -25.5006   14.8904    8.2743 H         1 2CN         0.0266
     47 H20       -23.7170   15.0902    8.2013 H         1 2CN         0.0266
     48 H21       -23.6740   13.6366    6.5033 H         1 2CN         0.0291
     49 H22       -24.6093   14.8131    5.5195 H         1 2CN         0.0291
     50 H23       -25.5400   12.3007    6.1584 H         1 2CN         0.0614
     51 H24       -26.6270   13.7064    5.8952 H         1 2CN         0.0614
     52 H25       -30.5354    9.8942    7.0300 H         1 2CN         0.0564
     53 H26       -29.7145   10.7565    5.6849 H         1 2CN         0.0564
@<TRIPOS>BOND
     1   12    1 1  
     2   22    2 ar 
     3   22    3 ar 
     4   23    4 1  
     5    6    5 ar 
     6    5    8 ar 
     7   24    6 ar 
     8    7    9 ar 
     9   23    7 ar 
    10   25    8 ar 
    11    9   26 ar 
    12   24   10 ar 
    13   10   25 ar 
    14   11   23 ar 
    15   27   11 ar 
    16   13   12 1  
    17   14   13 1  
    18   15   14 1  
    19   16   15 1  
    20   17   16 1  
    21   18   17 1  
    22   20   18 1  
    23   21   19 1  
    24   19   24 1  
    25   25   20 1  
    26   26   21 1  
    27   22   27 1  
    28   26   27 ar 
    29    1   28 1  
    30    1   29 1  
    31    1   30 1  
    32    5   31 1  
    33    6   32 1  
    34    7   33 1  
    35    8   34 1  
    36    9   35 1  
    37   10   36 1  
    38   11   37 1  
    39   12   38 1  
    40   12   39 1  
    41   13   40 1  
    42   13   41 1  
    43   14   42 1  
    44   14   43 1  
    45   15   44 1  
    46   15   45 1  
    47   16   46 1  
    48   16   47 1  
    49   17   48 1  
    50   17   49 1  
    51   18   50 1  
    52   18   51 1  
    53   19   52 1  
    54   19   53 1  
@<TRIPOS>SUBSTRUCTURE
     1 2CN         1

