### 
### Created by X-TOOL on Mon Sep 10 21:13:06 2018
### 

@<TRIPOS>MOLECULE
3tge_ligand
   67    70     1     0     0
SMALL
GAST_HUCK


@<TRIPOS>ATOM
      1 C1         20.8840  -12.5400   16.9910 C.3       1 TGE        -0.0078
      2 N1         20.8210  -11.5500   18.1050 N.4       1 TGE         0.2400
      3 O1         19.8020  -14.1890   18.3880 O.3       1 TGE        -0.3693
      4 C2         20.9370  -13.9530   17.6010 C.3       1 TGE         0.0878
      5 N2         20.1680   -8.8560   12.3830 N.am      1 TGE        -0.1983
      6 O2         13.8060   -3.3740    9.9730 O.3       1 TGE        -0.3008
      7 C3         19.6920  -13.2780   19.4470 C.3       1 TGE         0.0878
      8 N3         20.3650   -8.2420   15.1820 N.2       1 TGE        -0.2745
      9 O3         21.7320  -10.4940   12.7060 O.2       1 TGE        -0.3658
     10 C4         19.6090  -11.8340   18.9310 C.3       1 TGE        -0.0078
     11 N4         14.6180   -4.1550   11.9200 N.ar      1 TGE        -0.2708
     12 O4         20.8750   -7.1760   10.0350 O.3       1 TGE        -0.3771
     13 C5         19.5130   -7.5490   14.3140 C.ar      1 TGE         0.0687
     14 N5         17.8040   -5.8310   14.1370 N.ar      1 TGE        -0.3171
     15 C6         19.3930   -7.8240   12.9390 C.ar      1 TGE         0.1076
     16 N6         21.9290   -9.9770   15.4170 N.pl3     1 TGE        -0.2791
     17 C7         21.0480   -9.5920   13.1840 C.2       1 TGE         0.2929
     18 C8         21.0790   -9.2180   14.6400 C.2       1 TGE         0.2090
     19 C9         16.7160   -5.3770   12.0240 C.ar      1 TGE         0.0084
     20 C10        15.5670   -4.8190   12.6100 C.ar      1 TGE         0.0100
     21 C11        14.8320   -4.0330   10.5710 C.ar      1 TGE         0.1664
     22 C12        15.9600   -4.5250    9.9010 C.ar      1 TGE        -0.0025
     23 C13        16.9080   -5.1960   10.6560 C.ar      1 TGE        -0.0414
     24 C14        18.6930   -6.5270   14.8550 C.ar      1 TGE         0.0067
     25 C15        17.6980   -6.1260   12.8020 C.ar      1 TGE         0.0321
     26 C16        18.4730   -7.0940   12.1730 C.ar      1 TGE        -0.0093
     27 C17        13.9260   -3.1390    8.5890 C.3       1 TGE         0.0636
     28 C18        20.0470   -9.1940   10.9490 C.3       1 TGE         0.0846
     29 C19        21.1660   -8.5530   10.1100 C.3       1 TGE         0.0746
     30 C20        21.8690   -6.4590    9.3310 C.3       1 TGE         0.0475
     31 C21        21.3930   -5.0070    9.2730 C.3       1 TGE        -0.0323
     32 C22        20.2510   -4.8430    8.2870 C.3       1 TGE        -0.0632
     33 C23        22.0340   -9.7480   16.8580 C.3       1 TGE         0.0736
     34 C24        20.7440  -10.1460   17.6050 C.3       1 TGE        -0.0101
     35 H1         21.7854  -12.3622   16.3861 H         1 TGE         0.0837
     36 H2         19.9911  -12.4425   16.3560 H         1 TGE         0.0837
     37 H3         21.6470  -11.6476   18.6745 H         1 TGE         0.2036
     38 H4         21.8370  -14.0439   18.2268 H         1 TGE         0.0613
     39 H5         20.9770  -14.6961   16.7909 H         1 TGE         0.0613
     40 H6         20.5733  -13.3763   20.0979 H         1 TGE         0.0613
     41 H7         18.7832  -13.5058   20.0234 H         1 TGE         0.0613
     42 H8         18.7051  -11.7121   18.3161 H         1 TGE         0.0837
     43 H9         19.5699  -11.1385   19.7823 H         1 TGE         0.0837
     44 H10        22.4973  -10.7147   14.9769 H         1 TGE         0.1919
     45 H11        15.4360   -4.9290   13.6804 H         1 TGE         0.0809
     46 H12        16.0859   -4.3860    8.8334 H         1 TGE         0.0641
     47 H13        17.8026   -5.5817   10.1806 H         1 TGE         0.0721
     48 H14        18.7917   -6.2964   15.9096 H         1 TGE         0.0746
     49 H15        18.3679   -7.2808   11.1104 H         1 TGE         0.0579
     50 H16        13.0360   -2.6016    8.2298 H         1 TGE         0.0584
     51 H17        14.0125   -4.0996    8.0601 H         1 TGE         0.0584
     52 H18        14.8231   -2.5323    8.3965 H         1 TGE         0.0584
     53 H19        19.0755   -8.8337   10.5798 H         1 TGE         0.0629
     54 H20        20.0999  -10.2869   10.8359 H         1 TGE         0.0629
     55 H21        22.1408   -8.7090   10.5952 H         1 TGE         0.0587
     56 H22        21.1836   -8.9926    9.1018 H         1 TGE         0.0587
     57 H23        21.9818   -6.8634    8.3143 H         1 TGE         0.0560
     58 H24        22.8313   -6.5232    9.8601 H         1 TGE         0.0560
     59 H25        22.2312   -4.3667    8.9609 H         1 TGE         0.0285
     60 H26        21.0506   -4.7014   10.2727 H         1 TGE         0.0285
     61 H27        19.9314   -3.7906    8.2678 H         1 TGE         0.0230
     62 H28        19.4066   -5.4770    8.5951 H         1 TGE         0.0230
     63 H29        20.5872   -5.1424    7.2834 H         1 TGE         0.0230
     64 H30        22.2305   -8.6801   17.0340 H         1 TGE         0.0586
     65 H31        22.8701  -10.3444   17.2519 H         1 TGE         0.0586
     66 H32        20.6006   -9.4682   18.4594 H         1 TGE         0.0835
     67 H33        19.8895  -10.0561   16.9182 H         1 TGE         0.0835
@<TRIPOS>BOND
     1    2    1 1  
     2    1    4 1  
     3    2   10 1  
     4   34    2 1  
     5    4    3 1  
     6    7    3 1  
     7    5   15 1  
     8   17    5 am 
     9    5   28 1  
    10   21    6 1  
    11    6   27 1  
    12   10    7 1  
    13    8   13 1  
    14   18    8 2  
    15   17    9 2  
    16   20   11 ar 
    17   11   21 ar 
    18   29   12 1  
    19   12   30 1  
    20   13   15 ar 
    21   13   24 ar 
    22   24   14 ar 
    23   14   25 ar 
    24   15   26 ar 
    25   16   18 1  
    26   33   16 1  
    27   18   17 1  
    28   19   20 ar 
    29   19   23 ar 
    30   25   19 1  
    31   22   21 ar 
    32   23   22 ar 
    33   26   25 ar 
    34   28   29 1  
    35   30   31 1  
    36   31   32 1  
    37   33   34 1  
    38    1   35 1  
    39    1   36 1  
    40    2   37 1  
    41    4   38 1  
    42    4   39 1  
    43    7   40 1  
    44    7   41 1  
    45   10   42 1  
    46   10   43 1  
    47   16   44 1  
    48   20   45 1  
    49   22   46 1  
    50   23   47 1  
    51   24   48 1  
    52   26   49 1  
    53   27   50 1  
    54   27   51 1  
    55   27   52 1  
    56   28   53 1  
    57   28   54 1  
    58   29   55 1  
    59   29   56 1  
    60   30   57 1  
    61   30   58 1  
    62   31   59 1  
    63   31   60 1  
    64   32   61 1  
    65   32   62 1  
    66   32   63 1  
    67   33   64 1  
    68   33   65 1  
    69   34   66 1  
    70   34   67 1  
@<TRIPOS>SUBSTRUCTURE
     1 TGE         1

