### 
### Created by X-TOOL on Mon Sep 10 21:13:11 2018
### 

@<TRIPOS>MOLECULE
3tgs_ligand
   48    49     1     0     0
SMALL
GAST_HUCK


@<TRIPOS>ATOM
      1 C1        -24.0410   -8.8800   19.8170 C.ar      1 03G         0.0240
      2 C2        -23.4370   -8.2350   20.8930 C.ar      1 03G        -0.0614
      3 C3        -23.2810   -6.8390   20.9530 C.ar      1 03G        -0.0402
      4 C4        -23.7310   -5.9880   19.9520 C.ar      1 03G         0.0679
      5 C5        -24.3310   -6.6370   18.8470 C.ar      1 03G        -0.0402
      6 C6        -24.4790   -8.0410   18.8020 C.ar      1 03G        -0.0614
      7 N1        -23.5120   -4.5430   19.9570 N.am      1 03G        -0.2219
      8 C7        -22.3550   -3.9260   20.5280 C.2       1 03G         0.3120
      9 CL1       -24.1740  -10.3620   19.7810 Cl        1 03G        -0.0847
     10 C8        -22.1480   -2.3520   20.3500 C.2       1 03G         0.2910
     11 N2        -21.0670   -1.7530   21.0010 N.am      1 03G        -0.2713
     12 C9        -20.5010   -0.4820   20.5230 C.3       1 03G         0.0536
     13 C10       -19.5080    0.0800   21.5220 C.3       1 03G         0.0160
     14 C11       -18.9070    1.3980   21.0010 C.3       1 03G        -0.0149
     15 N3        -18.1480    1.2450   19.7360 N.4       1 03G         0.2350
     16 C12       -18.7820    0.3930   18.6880 C.3       1 03G        -0.0149
     17 C13       -19.7240   -0.7570   19.1980 C.3       1 03G         0.0160
     18 C14       -17.9680    1.9890   22.0740 C.3       1 03G        -0.0189
     19 C15       -20.0740    2.4060   20.8170 C.3       1 03G        -0.0189
     20 C16       -19.5520    1.2700   17.6780 C.3       1 03G        -0.0189
     21 C17       -17.6680   -0.2710   17.8670 C.3       1 03G        -0.0189
     22 O1        -22.9800   -1.6790   19.7450 O.2       1 03G        -0.3581
     23 O2        -21.4910   -4.5170   21.0940 O.2       1 03G        -0.3460
     24 H         -23.0697   -8.8376   21.7237 H         1 03G         0.0584
     25 H         -22.7858   -6.4062   21.8222 H         1 03G         0.0505
     26 H         -24.6881   -6.0382   18.0091 H         1 03G         0.0505
     27 H         -24.9591   -8.4858   17.9303 H         1 03G         0.0584
     28 H         -24.2200   -3.9444   19.5318 H         1 03G         0.2274
     29 H         -20.6632   -2.2045   21.8217 H         1 03G         0.1868
     30 H         -21.3155    0.2282   20.3803 H         1 03G         0.0562
     31 H         -18.7049   -0.6424   21.6678 H         1 03G         0.0345
     32 H         -20.0230    0.2731   22.4631 H         1 03G         0.0345
     33 H         -17.2705    0.7875   19.9833 H         1 03G         0.2024
     34 H         -18.0701    2.1797   19.3352 H         1 03G         0.2024
     35 H         -20.4813   -0.8924   18.4258 H         1 03G         0.0345
     36 H         -19.0773   -1.6112   19.3983 H         1 03G         0.0345
     37 H         -18.5346    2.1804   22.9853 H         1 03G         0.0287
     38 H         -17.1674    1.2800   22.2847 H         1 03G         0.0287
     39 H         -17.5412    2.9225   21.7072 H         1 03G         0.0287
     40 H         -20.7896    2.0043   20.0996 H         1 03G         0.0287
     41 H         -20.5687    2.5659   21.7750 H         1 03G         0.0287
     42 H         -19.6798    3.3528   20.4477 H         1 03G         0.0287
     43 H         -20.3284    1.8282   18.2013 H         1 03G         0.0287
     44 H         -18.8609    1.9656   17.2018 H         1 03G         0.0287
     45 H         -20.0086    0.6334   16.9201 H         1 03G         0.0287
     46 H         -17.0531    0.4993   17.4015 H         1 03G         0.0287
     47 H         -17.0501   -0.8833   18.5238 H         1 03G         0.0287
     48 H         -18.1125   -0.8988   17.0947 H         1 03G         0.0287
@<TRIPOS>BOND
     1    1    2 ar 
     2    1    6 ar 
     3    1    9 1  
     4    2    3 ar 
     5    3    4 ar 
     6    4    5 ar 
     7    4    7 1  
     8    5    6 ar 
     9    7    8 am 
    10    8   10 1  
    11    8   23 2  
    12   10   11 am 
    13   10   22 2  
    14   11   12 1  
    15   12   13 1  
    16   12   17 1  
    17   13   14 1  
    18   14   15 1  
    19   14   18 1  
    20   14   19 1  
    21   15   16 1  
    22   16   17 1  
    23   16   20 1  
    24   16   21 1  
    25    2   24 1  
    26    3   25 1  
    27    5   26 1  
    28    6   27 1  
    29    7   28 1  
    30   11   29 1  
    31   12   30 1  
    32   13   31 1  
    33   13   32 1  
    34   15   33 1  
    35   15   34 1  
    36   17   35 1  
    37   17   36 1  
    38   18   37 1  
    39   18   38 1  
    40   18   39 1  
    41   19   40 1  
    42   19   41 1  
    43   19   42 1  
    44   20   43 1  
    45   20   44 1  
    46   20   45 1  
    47   21   46 1  
    48   21   47 1  
    49   21   48 1  
@<TRIPOS>SUBSTRUCTURE
     1 03G         1

