### 
### Created by X-TOOL on Mon Sep 10 21:13:12 2018
### 

@<TRIPOS>MOLECULE
3th8_ligand
   53    53     1     0     0
SMALL
GAST_HUCK


@<TRIPOS>ATOM
      1 CAA       -13.0810   -4.1000   -0.2720 C.3       1 TH9        -0.0653
      2 OAB        -3.6140    9.2780   -2.0070 O.co2     1 TH9        -0.5662
      3 OAC        -6.6200    6.6110    0.6770 O.2       1 TH9        -0.3969
      4 OAD        -2.9090   10.1880   -0.1470 O.co2     1 TH9        -0.5662
      5 OAE        -4.7130    8.5600    1.2270 O.3       1 TH9        -0.3753
      6 CAF        -5.4040    7.6160   -1.0690 C.3       1 TH9         0.0750
      7 CAG       -10.8670    2.4850   -3.9440 C.ar      1 TH9        -0.0772
      8 CAH        -9.5090    2.6680   -3.6940 C.ar      1 TH9        -0.0714
      9 CAI       -11.6690    1.9080   -2.9680 C.ar      1 TH9        -0.0401
     10 CAJ        -9.7260    1.7200   -1.4990 C.ar      1 TH9        -0.0322
     11 CAK       -13.9140   -3.0390    0.4790 C.3       1 TH9        -0.0559
     12 CAL       -13.4890   -1.6040    0.1180 C.3       1 TH9        -0.0532
     13 CAM       -12.1840   -1.1710    0.8130 C.3       1 TH9        -0.0506
     14 CAN       -12.3450    0.2330    1.4530 C.3       1 TH9        -0.0251
     15 CAO        -7.2220    3.5680   -1.1820 C.3       1 TH9        -0.0232
     16 CAP        -8.0260    4.9030   -1.2260 C.3       1 TH9         0.0327
     17 CAQ       -11.6990    1.3080    0.5650 C.3       1 TH9         0.0703
     18 CAR        -7.5550    2.5280   -2.3030 C.3       1 TH9        -0.0198
     19 NAS        -7.0630    5.9830   -1.4660 N.am      1 TH9        -0.2866
     20 OAT       -11.9400    0.9720   -0.8130 O.3       1 TH9        -0.3198
     21 CAU        -3.6460    9.3780   -0.7900 C.2       1 TH9         0.0657
     22 CAV        -6.4510    6.6980   -0.5240 C.2       1 TH9         0.1802
     23 CAW        -4.5970    8.4970   -0.1180 C.3       1 TH9         0.1238
     24 CAX        -8.9320    2.3060   -2.4880 C.ar      1 TH9        -0.0518
     25 CAY       -11.1000    1.5320   -1.7430 C.ar      1 TH9         0.0844
     26 H         -13.2102   -3.9679   -1.3462 H         1 TH9         0.0230
     27 H         -12.0284   -3.9829   -0.0143 H         1 TH9         0.0230
     28 H         -13.4183   -5.0956    0.0161 H         1 TH9         0.0230
     29 H          -5.6041    8.8325    1.4578 H         1 TH9         0.2126
     30 H          -5.9546    8.3195   -1.6935 H         1 TH9         0.0547
     31 H          -4.6662    6.9528   -1.5206 H         1 TH9         0.0547
     32 H         -11.2966    2.7921   -4.8976 H         1 TH9         0.0572
     33 H          -8.8825    3.1086   -4.4695 H         1 TH9         0.0464
     34 H         -12.7314    1.7489   -3.1527 H         1 TH9         0.0486
     35 H          -9.2871    1.4121   -0.5500 H         1 TH9         0.0478
     36 H         -13.7581   -3.1800    1.5485 H         1 TH9         0.0263
     37 H         -14.9589   -3.1649    0.1953 H         1 TH9         0.0263
     38 H         -14.2802   -0.9303    0.4469 H         1 TH9         0.0265
     39 H         -13.3202   -1.5681   -0.9583 H         1 TH9         0.0265
     40 H         -11.3858   -1.1315    0.0718 H         1 TH9         0.0266
     41 H         -11.9458   -1.8906    1.5963 H         1 TH9         0.0266
     42 H         -11.8542    0.2364    2.4262 H         1 TH9         0.0291
     43 H         -13.4072    0.4535    1.5593 H         1 TH9         0.0291
     44 H          -7.4755    3.0895   -0.2360 H         1 TH9         0.0307
     45 H          -6.1744    3.8375   -1.3164 H         1 TH9         0.0307
     46 H          -8.5552    5.0630   -0.2866 H         1 TH9         0.0521
     47 H          -8.7745    4.8738   -2.0178 H         1 TH9         0.0521
     48 H         -10.6264    1.3498    0.7543 H         1 TH9         0.0614
     49 H         -12.1308    2.2832    0.7898 H         1 TH9         0.0614
     50 H          -7.1119    1.5780   -2.0042 H         1 TH9         0.0425
     51 H          -7.1633    2.9256   -3.2392 H         1 TH9         0.0425
     52 H          -6.8435    6.2052   -2.4370 H         1 TH9         0.1851
     53 H          -4.9328    7.8338    0.6792 H         1 TH9         0.0789
@<TRIPOS>BOND
     1   11    1 1  
     2   21    2 ar 
     3   22    3 2  
     4   21    4 ar 
     5   23    5 1  
     6    6   22 1  
     7   23    6 1  
     8    8    7 ar 
     9    7    9 ar 
    10   24    8 ar 
    11   25    9 ar 
    12   24   10 ar 
    13   10   25 ar 
    14   12   11 1  
    15   13   12 1  
    16   14   13 1  
    17   17   14 1  
    18   16   15 1  
    19   15   18 1  
    20   19   16 1  
    21   20   17 1  
    22   18   24 1  
    23   22   19 am 
    24   25   20 1  
    25   21   23 1  
    26    1   26 1  
    27    1   27 1  
    28    1   28 1  
    29    5   29 1  
    30    6   30 1  
    31    6   31 1  
    32    7   32 1  
    33    8   33 1  
    34    9   34 1  
    35   10   35 1  
    36   11   36 1  
    37   11   37 1  
    38   12   38 1  
    39   12   39 1  
    40   13   40 1  
    41   13   41 1  
    42   14   42 1  
    43   14   43 1  
    44   15   44 1  
    45   15   45 1  
    46   16   46 1  
    47   16   47 1  
    48   17   48 1  
    49   17   49 1  
    50   18   50 1  
    51   18   51 1  
    52   19   52 1  
    53   23   53 1  
@<TRIPOS>SUBSTRUCTURE
     1 TH9         1

