### 
### Created by X-TOOL on Mon Sep 10 21:13:06 2018
### 

@<TRIPOS>MOLECULE
3th9_ligand
   67    69     1     0     0
SMALL
GAST_HUCK


@<TRIPOS>ATOM
      1 C1         16.3560   18.5500    2.0360 C.ar      1 9Y9        -0.0333
      2 C2         17.4450   18.3670    2.8850 C.ar      1 9Y9         0.1260
      3 C3         17.4470   18.7150    4.2630 C.ar      1 9Y9        -0.0252
      4 C4         15.2110   19.1380    2.6080 C.ar      1 9Y9        -0.0437
      5 F5         18.5190   17.8270    2.4300 F         1 9Y9        -0.1853
      6 C6         16.2990   19.3010    4.8640 C.ar      1 9Y9        -0.0181
      7 C7         15.1930   19.5050    3.9750 C.ar      1 9Y9         0.1055
      8 S8         13.7170   20.2360    4.5800 S.o2      1 9Y9         0.0664
      9 C9         16.3420   19.6830    6.3450 C.3       1 9Y9        -0.0141
     10 N10        14.2210   21.6640    5.2620 N.am      1 9Y9        -0.2324
     11 C11        16.1890   21.1750    6.6780 C.3       1 9Y9        -0.0171
     12 C12        14.7700   21.7000    6.6190 C.3       1 9Y9         0.0339
     13 C13        16.6630   21.5150    8.1260 C.3       1 9Y9        -0.0591
     14 C14        14.4720   22.8320    4.3990 C.3       1 9Y9         0.0578
     15 O15        13.2930   19.3860    5.6320 O.2       1 9Y9        -0.1517
     16 O16        12.8370   20.5890    3.4970 O.2       1 9Y9        -0.1517
     17 C17        13.4640   23.9210    4.7090 C.3       1 9Y9         0.0967
     18 C18        11.9760   23.7000    4.4360 C.3       1 9Y9         0.0807
     19 N19        11.1750   24.7250    5.1810 N.am      1 9Y9        -0.2550
     20 C20        11.5920   23.6080    2.9530 C.3       1 9Y9         0.0064
     21 C21        10.1520   23.3230    2.8310 C.ar      1 9Y9        -0.0408
     22 C22         9.6890   21.9950    3.0080 C.ar      1 9Y9        -0.0603
     23 C23         8.3170   21.7480    2.9040 C.ar      1 9Y9        -0.0686
     24 C24         7.4110   22.8160    2.6490 C.ar      1 9Y9        -0.0687
     25 C25         7.8850   24.1230    2.4740 C.ar      1 9Y9        -0.0686
     26 C26         9.2640   24.3940    2.5630 C.ar      1 9Y9        -0.0603
     27 C27        10.6980   24.4760    6.4300 C.2       1 9Y9         0.3204
     28 O28        10.8960   23.4140    7.0550 O.2       1 9Y9        -0.3775
     29 O29        10.0090   25.5590    6.8710 O.3       1 9Y9        -0.2581
     30 O30        13.8600   25.1630    4.1350 O.3       1 9Y9        -0.3877
     31 C31         9.5270   25.6600    8.2450 C.3       1 9Y9         0.0905
     32 C32        10.7170   25.6580    9.2240 C.3       1 9Y9        -0.0320
     33 C33         8.8210   27.0270    8.3090 C.3       1 9Y9        -0.0320
     34 C34         8.5120   24.5750    8.5530 C.3       1 9Y9        -0.0320
     35 H1         16.3879   18.2562    0.9931 H         1 9Y9         0.0547
     36 H2         18.3320   18.5320    4.8616 H         1 9Y9         0.0542
     37 H3         14.3341   19.3114    1.9947 H         1 9Y9         0.0609
     38 H4         17.3100   19.3494    6.7472 H         1 9Y9         0.0429
     39 H5         15.5286   19.1434    6.8521 H         1 9Y9         0.0429
     40 H6         16.8025   21.7330    5.9554 H         1 9Y9         0.0336
     41 H7         14.1369   21.0829    7.2734 H         1 9Y9         0.0482
     42 H8         14.7625   22.7403    6.9764 H         1 9Y9         0.0482
     43 H9         17.6972   21.1668    8.2645 H         1 9Y9         0.0234
     44 H10        16.0071   21.0145    8.8535 H         1 9Y9         0.0234
     45 H11        16.6188   22.6032    8.2803 H         1 9Y9         0.0234
     46 H12        14.3766   22.5348    3.3442 H         1 9Y9         0.0504
     47 H13        15.4881   23.2110    4.5828 H         1 9Y9         0.0504
     48 H14        13.5297   24.0467    5.7998 H         1 9Y9         0.0634
     49 H15        11.7234   22.7214    4.8702 H         1 9Y9         0.0604
     50 H16        10.9879   25.6085    4.7515 H         1 9Y9         0.1873
     51 H17        12.1665   22.8004    2.4757 H         1 9Y9         0.0449
     52 H18        11.8193   24.5628    2.4563 H         1 9Y9         0.0449
     53 H19        10.3829   21.1894    3.2192 H         1 9Y9         0.0557
     54 H20         7.9410   20.7377    3.0182 H         1 9Y9         0.0599
     55 H21         6.3471   22.6168    2.5898 H         1 9Y9         0.0559
     56 H22         7.1882   24.9278    2.2695 H         1 9Y9         0.0599
     57 H23         9.6388   25.4023    2.4291 H         1 9Y9         0.0557
     58 H24        13.7050   25.1413    3.1979 H         1 9Y9         0.2100
     59 H25        10.3431   25.7344   10.2557 H         1 9Y9         0.0260
     60 H26        11.3718   26.5148    9.0070 H         1 9Y9         0.0260
     61 H27        11.2854   24.7234    9.1083 H         1 9Y9         0.0260
     62 H28         8.4228   27.1869    9.3218 H         1 9Y9         0.0260
     63 H29         7.9950   27.0475    7.5829 H         1 9Y9         0.0260
     64 H30         9.5408   27.8231    8.0681 H         1 9Y9         0.0260
     65 H31         8.1691   24.6783    9.5931 H         1 9Y9         0.0260
     66 H32         8.9778   23.5878    8.4168 H         1 9Y9         0.0260
     67 H33         7.6533   24.6723    7.8725 H         1 9Y9         0.0260
@<TRIPOS>BOND
     1    1    2 ar 
     2    1    4 ar 
     3    2    3 ar 
     4    2    5 1  
     5    3    6 ar 
     6    4    7 ar 
     7    6    7 ar 
     8    6    9 1  
     9    7    8 1  
    10    8   10 am 
    11    8   15 2  
    12    8   16 2  
    13    9   11 1  
    14   10   12 1  
    15   10   14 1  
    16   11   12 1  
    17   11   13 1  
    18   14   17 1  
    19   17   18 1  
    20   17   30 1  
    21   18   19 1  
    22   18   20 1  
    23   19   27 am 
    24   20   21 1  
    25   21   22 ar 
    26   21   26 ar 
    27   22   23 ar 
    28   23   24 ar 
    29   24   25 ar 
    30   25   26 ar 
    31   27   28 2  
    32   27   29 1  
    33   29   31 1  
    34   31   32 1  
    35   31   33 1  
    36   31   34 1  
    37    1   35 1  
    38    3   36 1  
    39    4   37 1  
    40    9   38 1  
    41    9   39 1  
    42   11   40 1  
    43   12   41 1  
    44   12   42 1  
    45   13   43 1  
    46   13   44 1  
    47   13   45 1  
    48   14   46 1  
    49   14   47 1  
    50   17   48 1  
    51   18   49 1  
    52   19   50 1  
    53   20   51 1  
    54   20   52 1  
    55   22   53 1  
    56   23   54 1  
    57   24   55 1  
    58   25   56 1  
    59   26   57 1  
    60   30   58 1  
    61   32   59 1  
    62   32   60 1  
    63   32   61 1  
    64   33   62 1  
    65   33   63 1  
    66   33   64 1  
    67   34   65 1  
    68   34   66 1  
    69   34   67 1  
@<TRIPOS>SUBSTRUCTURE
     1 9Y9         1

