### 
### Created by X-TOOL on Mon Sep 10 21:13:06 2018
### 

@<TRIPOS>MOLECULE
3thd_ligand
   25    25     1     0     0
SMALL
GAST_HUCK


@<TRIPOS>ATOM
      1 C1         -4.4190   -7.8350    5.2890 C.3       1 DGJ        -0.0040
      2 C2         -3.4140   -6.6730    5.2510 C.3       1 DGJ         0.1231
      3 O2         -2.6140   -6.7400    4.0530 O.3       1 DGJ        -0.3838
      4 C3         -2.5080   -6.5970    6.5100 C.3       1 DGJ         0.1171
      5 O3         -1.9380   -5.2870    6.6210 O.3       1 DGJ        -0.3862
      6 C4         -3.4580   -6.7500    7.6340 C.3       1 DGJ         0.1280
      7 O4         -4.3300   -5.7240    8.0280 O.3       1 DGJ        -0.3835
      8 C5         -4.0770   -8.1660    7.7290 C.3       1 DGJ         0.0301
      9 N5         -5.0400   -8.0160    6.6280 N.4       1 DGJ         0.2346
     10 C6         -4.8920   -8.5100    8.9820 C.3       1 DGJ         0.0893
     11 O6         -4.0360   -8.5870   10.1780 O.3       1 DGJ        -0.3894
     12 H1         -3.8943   -8.7626    5.0167 H         1 DGJ         0.0840
     13 H2         -5.2150   -7.6354    4.5565 H         1 DGJ         0.0840
     14 H3         -3.9963   -5.7405    5.2139 H         1 DGJ         0.0674
     15 H4         -2.1383   -7.5621    4.0368 H         1 DGJ         0.2101
     16 H5         -1.7293   -7.3739    6.5053 H         1 DGJ         0.0649
     17 H6         -1.4176   -5.1027    5.8478 H         1 DGJ         0.2100
     18 H7         -2.7590   -6.7490    8.4834 H         1 DGJ         0.0678
     19 H8         -4.8537   -6.0199    8.7632 H         1 DGJ         0.2102
     20 H9         -3.3212   -8.9462    7.5554 H         1 DGJ         0.0900
     21 H10        -5.6168   -8.8422    6.5990 H         1 DGJ         0.2019
     22 H11        -5.6155   -7.2110    6.8201 H         1 DGJ         0.2019
     23 H12        -5.3850   -9.4818    8.8321 H         1 DGJ         0.0614
     24 H13        -5.6542   -7.7322    9.1374 H         1 DGJ         0.0614
     25 H14        -3.6105   -7.7489   10.3160 H         1 DGJ         0.2097
@<TRIPOS>BOND
     1    1    2 1  
     2    1    9 1  
     3    2    3 1  
     4    2    4 1  
     5    4    5 1  
     6    4    6 1  
     7    6    7 1  
     8    6    8 1  
     9    8    9 1  
    10    8   10 1  
    11   10   11 1  
    12    1   12 1  
    13    1   13 1  
    14    2   14 1  
    15    3   15 1  
    16    4   16 1  
    17    5   17 1  
    18    6   18 1  
    19    7   19 1  
    20    8   20 1  
    21    9   21 1  
    22    9   22 1  
    23   10   23 1  
    24   10   24 1  
    25   11   25 1  
@<TRIPOS>SUBSTRUCTURE
     1 DGJ         1

