### 
### Created by X-TOOL on Mon Sep 10 21:13:10 2018
### 

@<TRIPOS>MOLECULE
3ti1_ligand
   57    59     1     0     0
SMALL
GAST_HUCK


@<TRIPOS>ATOM
      1 C4        -88.6640  -11.7370  -83.7510 C.3       1 B49         0.0032
      2 C5        -96.3790   -7.0050  -87.8600 C.ar      1 B49        -0.0474
      3 C6        -95.4980   -7.9290  -88.4510 C.ar      1 B49        -0.0482
      4 C7        -95.1970   -7.2550  -85.7530 C.ar      1 B49        -0.0432
      5 C13       -90.9250   -8.9540  -82.5940 C.2       1 B49        -0.0268
      6 C15       -96.2290   -6.6710  -86.5110 C.ar      1 B49         0.1099
      7 C17       -94.3290   -8.1800  -86.3510 C.ar      1 B49        -0.0112
      8 C20       -93.2050   -8.9080  -85.8020 C.2       1 B49         0.0299
      9 C21       -92.6690   -9.7020  -86.8320 C.2       1 B49         0.2046
     10 C22       -88.8190   -9.6600  -81.2000 C.2       1 B49         0.1771
     11 C3        -91.4170   -7.8530  -81.6910 C.3       1 B49        -0.0381
     12 C12       -92.8110   -8.7210  -84.3220 C.2       1 B49        -0.0340
     13 C14       -89.7260  -10.6570  -83.5080 C.2       1 B49         0.0723
     14 C16       -94.4520   -8.5230  -87.6670 C.ar      1 B49         0.0612
     15 C18       -91.5340   -9.3570  -83.7920 C.2       1 B49         0.0643
     16 C19       -89.7870   -9.7480  -82.4050 C.2       1 B49         0.0573
     17 N23       -90.7910  -10.4010  -84.3350 N.pl3     1 B49        -0.2702
     18 N24       -93.4160   -9.4650  -87.9550 N.am      1 B49        -0.2438
     19 N25       -89.3410   -9.4500  -79.8490 N.am      1 B49        -0.2873
     20 O27       -91.5900  -10.5590  -86.7520 O.2       1 B49        -0.3913
     21 O28       -87.5780   -9.7840  -81.3780 O.2       1 B49        -0.4049
     22 F29       -97.0350   -5.8140  -85.9080 F         1 B49        -0.1977
     23 C37       -88.4410   -9.3820  -78.7420 C.3       1 B49         0.0694
     24 C38       -88.6380   -8.3370  -77.6700 C.3       1 B49        -0.0114
     25 N4        -88.8810   -6.9440  -78.0590 N.4       1 B49         0.2363
     26 C39       -90.1050   -6.4500  -77.4910 C.3       1 B49        -0.0347
     27 C40       -87.7840   -6.1150  -77.6800 C.3       1 B49        -0.0347
     28 C41       -87.6640   -5.7050  -76.2090 C.3       1 B49        -0.0245
     29 C42       -90.8970   -7.3200  -76.5720 C.3       1 B49        -0.0245
     30 H1        -88.8920  -12.2719  -84.6848 H         1 B49         0.0471
     31 H2        -88.6652  -12.4479  -82.9116 H         1 B49         0.0471
     32 H3        -87.6733  -11.2657  -83.8310 H         1 B49         0.0471
     33 H4        -97.1703   -6.5542  -88.4479 H         1 B49         0.0519
     34 H5        -95.6087   -8.1921  -89.4967 H         1 B49         0.0478
     35 H6        -95.0733   -6.9904  -84.7091 H         1 B49         0.0507
     36 H7        -92.3358   -7.4176  -82.1108 H         1 B49         0.0375
     37 H8        -90.6456   -7.0731  -81.6098 H         1 B49         0.0375
     38 H9        -91.6290   -8.2644  -80.6931 H         1 B49         0.0375
     39 H10       -93.4452   -8.1353  -83.6582 H         1 B49         0.0691
     40 H11       -91.0047  -10.8985  -85.2112 H         1 B49         0.2314
     41 H12       -93.2595   -9.8892  -88.8469 H         1 B49         0.2226
     42 H13       -90.3254   -9.3543  -79.7013 H         1 B49         0.1834
     43 H14       -87.4359   -9.2225  -79.1596 H         1 B49         0.0571
     44 H15       -88.4791  -10.3608  -78.2416 H         1 B49         0.0571
     45 H16       -87.7316   -8.3422  -77.0469 H         1 B49         0.0834
     46 H17       -89.5001   -8.6561  -77.0659 H         1 B49         0.0834
     47 H18       -88.9671   -6.9114  -79.0628 H         1 B49         0.2034
     48 H19       -90.7649   -6.1898  -78.3317 H         1 B49         0.0812
     49 H20       -89.8512   -5.5394  -76.9286 H         1 B49         0.0812
     50 H21       -87.8534   -5.1905  -78.2721 H         1 B49         0.0812
     51 H22       -86.8616   -6.6522  -77.9456 H         1 B49         0.0812
     52 H23       -86.7744   -5.0717  -76.0763 H         1 B49         0.0281
     53 H24       -87.5698   -6.6052  -75.5839 H         1 B49         0.0281
     54 H25       -88.5615   -5.1435  -75.9104 H         1 B49         0.0281
     55 H26       -91.7948   -6.7792  -76.2381 H         1 B49         0.0281
     56 H27       -90.2831   -7.5857  -75.6988 H         1 B49         0.0281
     57 H28       -91.1968   -8.2361  -77.1019 H         1 B49         0.0281
@<TRIPOS>BOND
     1   13    1 1  
     2    3    2 ar 
     3    6    2 ar 
     4   14    3 ar 
     5    4    6 ar 
     6    7    4 ar 
     7    5   11 1  
     8    5   15 2  
     9   16    5 1  
    10    6   22 1  
    11    8    7 1  
    12    7   14 ar 
    13    8    9 1  
    14   12    8 2  
    15    9   18 am 
    16    9   20 2  
    17   16   10 1  
    18   10   19 am 
    19   10   21 2  
    20   15   12 1  
    21   13   16 2  
    22   13   17 1  
    23   14   18 1  
    24   15   17 1  
    25   19   23 1  
    26   23   24 1  
    27   24   25 1  
    28   25   26 1  
    29   25   27 1  
    30   26   29 1  
    31   27   28 1  
    32    1   30 1  
    33    1   31 1  
    34    1   32 1  
    35    2   33 1  
    36    3   34 1  
    37    4   35 1  
    38   11   36 1  
    39   11   37 1  
    40   11   38 1  
    41   12   39 1  
    42   17   40 1  
    43   18   41 1  
    44   19   42 1  
    45   23   43 1  
    46   23   44 1  
    47   24   45 1  
    48   24   46 1  
    49   25   47 1  
    50   26   48 1  
    51   26   49 1  
    52   27   50 1  
    53   27   51 1  
    54   28   52 1  
    55   28   53 1  
    56   28   54 1  
    57   29   55 1  
    58   29   56 1  
    59   29   57 1  
@<TRIPOS>SUBSTRUCTURE
     1 B49         1

