### 
### Created by X-TOOL on Mon Sep 10 21:13:06 2018
### 

@<TRIPOS>MOLECULE
3ti3_ligand
   48    48     1     0     0
SMALL
GAST_HUCK


@<TRIPOS>ATOM
      1 CAA        29.4460   13.2070  -22.7790 C.3       1 LNV         0.1148
      2 CAB        30.8780   13.7230  -22.6260 C.3       1 LNV         0.0237
      3 CAC        31.2210   14.5310  -21.3690 C.3       1 LNV         0.1026
      4 CAD        30.0190   14.8570  -20.4400 C.3       1 LNV         0.1065
      5 CAE        28.5810   14.5620  -20.9410 C.3       1 LNV         0.1161
      6 OAF        28.3670   13.7620  -22.0880 O.3       1 LNV        -0.3542
      7 CAG        29.0450   12.5680  -24.0610 C.2       1 LNV         0.0637
      8 OAH        30.0140   11.9730  -24.8350 O.co2     1 LNV        -0.5663
      9 OAI        27.8520   12.4960  -24.3280 O.co2     1 LNV        -0.5663
     10 CAJ        27.4890   14.4280  -19.9420 C.3       1 LNV         0.1147
     11 CAK        26.1260   14.6870  -20.5460 C.3       1 LNV         0.1067
     12 CAL        25.0060   14.3680  -19.5850 C.3       1 LNV         0.0727
     13 OAM        24.9720   15.1890  -18.4370 O.3       1 LNV        -0.3924
     14 OAW        27.6190   13.1670  -19.4160 O.3       1 LNV        -0.3745
     15 CAX        27.6650   13.0100  -18.0390 C.3       1 LNV         0.0370
     16 OAY        26.0210   15.9410  -21.1130 O.3       1 LNV        -0.3869
     17 NAZ        32.5430   14.3650  -20.8130 N.pl3     1 LNV        -0.2671
     18 CBA        33.3070   15.3990  -20.1700 C.cat     1 LNV         0.2885
     19 NBB        34.4020   15.0350  -19.5400 N.pl3     1 LNV        -0.2849
     20 NBC        32.9740   16.6840  -20.2710 N.pl3     1 LNV        -0.2849
     21 CBD        30.8320   15.4290  -18.0860 C.2       1 LNV         0.1733
     22 CBE        30.9680   16.5840  -17.1480 C.3       1 LNV         0.0257
     23 OBF        31.0600   14.2780  -17.7250 O.2       1 LNV        -0.3974
     24 NBG        30.1530   15.7300  -19.3080 N.am      1 LNV        -0.2778
     25 H1         29.5674   12.2990  -22.1701 H         1 LNV         0.0767
     26 H2         31.0894   14.3639  -23.4946 H         1 LNV         0.0346
     27 H3         31.5447   12.8483  -22.6447 H         1 LNV         0.0346
     28 H4         31.3589   15.5230  -21.8239 H         1 LNV         0.0752
     29 H5         30.1134   13.9318  -19.8526 H         1 LNV         0.0621
     30 H6         28.3442   15.5527  -21.3564 H         1 LNV         0.0649
     31 H7         27.6428   15.1652  -19.1402 H         1 LNV         0.0649
     32 H8         26.0221   13.9737  -21.3769 H         1 LNV         0.0643
     33 H9         25.1198   13.3239  -19.2581 H         1 LNV         0.0584
     34 H10        24.0511   14.4831  -20.1188 H         1 LNV         0.0584
     35 H11        24.8627   16.0952  -18.7003 H         1 LNV         0.2095
     36 H12        27.7705   11.9426  -17.7950 H         1 LNV         0.0524
     37 H13        26.7365   13.3977  -17.5945 H         1 LNV         0.0524
     38 H14        28.5245   13.5651  -17.6352 H         1 LNV         0.0524
     39 H15        25.2046   16.0020  -21.5950 H         1 LNV         0.2100
     40 H16        32.9728   13.4316  -20.8826 H         1 LNV         0.2645
     41 H17        34.9816   15.7413  -19.0645 H         1 LNV         0.2615
     42 H18        34.6803   14.0435  -19.5219 H         1 LNV         0.2615
     43 H19        32.1133   16.9555  -20.7673 H         1 LNV         0.2615
     44 H20        33.5771   17.4067  -19.8528 H         1 LNV         0.2615
     45 H21        30.7174   17.5162  -17.6755 H         1 LNV         0.0467
     46 H22        32.0033   16.6378  -16.7803 H         1 LNV         0.0467
     47 H23        30.2834   16.4485  -16.2977 H         1 LNV         0.0467
     48 H24        29.7317   16.6340  -19.3810 H         1 LNV         0.1856
@<TRIPOS>BOND
     1    2    1 1  
     2    6    1 1  
     3    1    7 1  
     4    3    2 1  
     5    4    3 1  
     6    3   17 1  
     7    4    5 1  
     8   24    4 1  
     9    5    6 1  
    10    5   10 1  
    11    7    8 ar 
    12    7    9 ar 
    13   10   11 1  
    14   10   14 1  
    15   11   12 1  
    16   11   16 1  
    17   12   13 1  
    18   14   15 1  
    19   17   18 ar 
    20   18   19 ar 
    21   18   20 ar 
    22   21   22 1  
    23   21   23 2  
    24   21   24 am 
    25    1   25 1  
    26    2   26 1  
    27    2   27 1  
    28    3   28 1  
    29    4   29 1  
    30    5   30 1  
    31   10   31 1  
    32   11   32 1  
    33   12   33 1  
    34   12   34 1  
    35   13   35 1  
    36   15   36 1  
    37   15   37 1  
    38   15   38 1  
    39   16   39 1  
    40   17   40 1  
    41   19   41 1  
    42   19   42 1  
    43   20   43 1  
    44   20   44 1  
    45   22   45 1  
    46   22   46 1  
    47   22   47 1  
    48   24   48 1  
@<TRIPOS>SUBSTRUCTURE
     1 LNV         1

