### 
### Created by X-TOOL on Mon Sep 10 21:13:05 2018
### 

@<TRIPOS>MOLECULE
3ti4_ligand
   50    50     1     0     0
SMALL
GAST_HUCK


@<TRIPOS>ATOM
      1 CAA        29.5670   13.3780  -22.7790 C.3       1 LVO         0.1148
      2 CAB        31.0040   13.6470  -22.5320 C.3       1 LVO         0.0237
      3 CAC        31.3290   14.5130  -21.2880 C.3       1 LVO         0.1026
      4 CAD        30.1860   14.5580  -20.2550 C.3       1 LVO         0.1065
      5 CAE        28.7710   14.5230  -20.8810 C.3       1 LVO         0.1161
      6 OAF        28.6370   13.5180  -21.8210 O.3       1 LVO        -0.3542
      7 CAG        29.1870   12.5060  -23.9290 C.2       1 LVO         0.0637
      8 OAH        30.1800   11.9660  -24.6480 O.co2     1 LVO        -0.5663
      9 OAI        28.0670   12.4120  -24.1740 O.co2     1 LVO        -0.5663
     10 CAJ        27.7160   14.3790  -19.8320 C.3       1 LVO         0.1151
     11 CAK        26.4080   14.2930  -20.5380 C.3       1 LVO         0.1115
     12 CAL        25.3630   13.8430  -19.5360 C.3       1 LVO         0.1052
     13 OAM        24.4300   12.9300  -20.0160 O.3       1 LVO        -0.2757
     14 CAN        24.6250   11.6640  -20.0770 C.2       1 LVO         0.2280
     15 OAV        24.8680   10.9640  -19.1020 O.2       1 LVO        -0.3548
     16 OAW        27.9460   13.2280  -19.1190 O.3       1 LVO        -0.3745
     17 CAX        27.6530   13.3740  -17.8090 C.3       1 LVO         0.0370
     18 OAY        26.0830   15.4430  -21.1580 O.3       1 LVO        -0.3865
     19 NAZ        32.6560   14.3550  -20.7300 N.pl3     1 LVO        -0.2671
     20 CBA        33.4400   15.3880  -20.1770 C.cat     1 LVO         0.2885
     21 NBB        34.5220   15.0320  -19.5590 N.pl3     1 LVO        -0.2849
     22 NBC        33.1710   16.6080  -20.4360 N.pl3     1 LVO        -0.2849
     23 CBD        30.9800   15.3190  -18.0600 C.2       1 LVO         0.1733
     24 CBE        31.2150   16.5870  -17.3250 C.3       1 LVO         0.0257
     25 OBF        31.2400   14.3060  -17.6250 O.2       1 LVO        -0.3974
     26 NBG        30.3310   15.5690  -19.2800 N.am      1 LVO        -0.2778
     27 H1         29.3656   14.3387  -23.2754 H         1 LVO         0.0767
     28 H2         31.4066   14.1633  -23.4159 H         1 LVO         0.0346
     29 H3         31.5116   12.6788  -22.4100 H         1 LVO         0.0346
     30 H4         31.3509   15.5363  -21.6910 H         1 LVO         0.0752
     31 H5         30.2740   13.6130  -19.6989 H         1 LVO         0.0621
     32 H6         28.6122   15.4840  -21.3922 H         1 LVO         0.0649
     33 H7         27.7265   15.2457  -19.1547 H         1 LVO         0.0649
     34 H8         26.4892   13.5183  -21.3147 H         1 LVO         0.0647
     35 H9         24.8187   14.7341  -19.1900 H         1 LVO         0.0641
     36 H10        25.8852   13.3793  -18.6862 H         1 LVO         0.0641
     37 H11        24.5714   11.1834  -21.0527 H         1 LVO         0.1697
     38 H12        27.8525   12.4297  -17.2812 H         1 LVO         0.0524
     39 H13        26.5911   13.6388  -17.6980 H         1 LVO         0.0524
     40 H14        28.2767   14.1723  -17.3805 H         1 LVO         0.0524
     41 H15        26.7701   15.6759  -21.7713 H         1 LVO         0.2100
     42 H16        33.0612   13.4081  -20.7378 H         1 LVO         0.2645
     43 H17        35.1321   15.7460  -19.1360 H         1 LVO         0.2615
     44 H18        34.7719   14.0351  -19.4908 H         1 LVO         0.2615
     45 H19        32.2998   16.8497  -20.9294 H         1 LVO         0.2615
     46 H20        33.8250   17.3512  -20.1517 H         1 LVO         0.2615
     47 H21        30.8861   17.4354  -17.9431 H         1 LVO         0.0467
     48 H22        32.2876   16.6890  -17.1033 H         1 LVO         0.0467
     49 H23        30.6454   16.5764  -16.3840 H         1 LVO         0.0467
     50 H24        29.9642   16.4813  -19.4619 H         1 LVO         0.1856
@<TRIPOS>BOND
     1    2    1 1  
     2    6    1 1  
     3    1    7 1  
     4    3    2 1  
     5    4    3 1  
     6    3   19 1  
     7    4    5 1  
     8   26    4 1  
     9    5    6 1  
    10    5   10 1  
    11    7    8 ar 
    12    7    9 ar 
    13   10   11 1  
    14   10   16 1  
    15   11   12 1  
    16   11   18 1  
    17   12   13 1  
    18   13   14 1  
    19   14   15 2  
    20   16   17 1  
    21   19   20 ar 
    22   20   21 ar 
    23   20   22 ar 
    24   23   24 1  
    25   23   25 2  
    26   23   26 am 
    27    1   27 1  
    28    2   28 1  
    29    2   29 1  
    30    3   30 1  
    31    4   31 1  
    32    5   32 1  
    33   10   33 1  
    34   11   34 1  
    35   12   35 1  
    36   12   36 1  
    37   14   37 1  
    38   17   38 1  
    39   17   39 1  
    40   17   40 1  
    41   18   41 1  
    42   19   42 1  
    43   21   43 1  
    44   21   44 1  
    45   22   45 1  
    46   22   46 1  
    47   24   47 1  
    48   24   48 1  
    49   24   49 1  
    50   26   50 1  
@<TRIPOS>SUBSTRUCTURE
     1 LVO         1

