### 
### Created by X-TOOL on Mon Sep 10 21:13:05 2018
### 

@<TRIPOS>MOLECULE
3ti5_ligand
   45    45     1     0     0
SMALL
GAST_HUCK


@<TRIPOS>ATOM
      1 C1         29.0240   12.4410  -24.0780 C.2       1 ZMR         0.0637
      2 O1A        27.8730   12.3690  -24.3830 O.co2     1 ZMR        -0.5663
      3 O1B        30.0650   12.1270  -24.8870 O.co2     1 ZMR        -0.5663
      4 C2         29.4050   13.2860  -22.8880 C.3       1 ZMR         0.1148
      5 C3         30.8790   13.7170  -22.6450 C.3       1 ZMR         0.0237
      6 C4         31.1660   14.6100  -21.4310 C.3       1 ZMR         0.1026
      7 C5         30.0280   14.8170  -20.4450 C.3       1 ZMR         0.1065
      8 N5         30.2020   15.6980  -19.3560 N.am      1 ZMR        -0.2778
      9 C10        30.8210   15.4040  -18.1520 C.2       1 ZMR         0.1733
     10 O10        31.1100   14.3280  -17.8420 O.2       1 ZMR        -0.3974
     11 C11        30.9730   16.6000  -17.2400 C.3       1 ZMR         0.0257
     12 C6         28.6070   14.6200  -20.9450 C.3       1 ZMR         0.1158
     13 O6         28.3660   13.8060  -22.0820 O.3       1 ZMR        -0.3542
     14 C7         27.4970   14.3380  -19.9630 C.3       1 ZMR         0.1116
     15 O7         27.6230   13.0810  -19.5520 O.3       1 ZMR        -0.3865
     16 C8         26.1260   14.6560  -20.5820 C.3       1 ZMR         0.1065
     17 O8         26.0440   15.8100  -21.2620 O.3       1 ZMR        -0.3869
     18 C9         25.0100   14.4560  -19.5970 C.3       1 ZMR         0.0727
     19 O9         24.9810   15.3170  -18.6010 O.3       1 ZMR        -0.3924
     20 NE         32.4530   14.4330  -20.9040 N.pl3     1 ZMR        -0.2671
     21 CZ         33.3070   15.4480  -20.3950 C.cat     1 ZMR         0.2885
     22 NH1        32.8510   16.6330  -20.3820 N.pl3     1 ZMR        -0.2849
     23 NH2        34.3720   15.0980  -19.7310 N.pl3     1 ZMR        -0.2849
     24 H1         29.5227   12.4016  -22.2446 H         1 ZMR         0.0767
     25 H2         31.2150   14.2606  -23.5403 H         1 ZMR         0.0346
     26 H3         31.4751   12.8000  -22.5275 H         1 ZMR         0.0346
     27 H4         31.2403   15.6073  -21.8891 H         1 ZMR         0.0752
     28 H5         30.1349   13.8707  -19.8945 H         1 ZMR         0.0621
     29 H6         29.8433   16.6252  -19.4642 H         1 ZMR         0.1856
     30 H7         31.4701   16.2902  -16.3089 H         1 ZMR         0.0467
     31 H8         29.9800   17.0114  -17.0061 H         1 ZMR         0.0467
     32 H9         31.5796   17.3686  -17.7413 H         1 ZMR         0.0467
     33 H10        28.3731   15.6326  -21.3055 H         1 ZMR         0.0649
     34 H11        27.6250   14.9952  -19.0903 H         1 ZMR         0.0647
     35 H12        26.9323   12.8813  -18.9311 H         1 ZMR         0.2100
     36 H13        25.9775   13.8786  -21.3459 H         1 ZMR         0.0643
     37 H14        25.1632   15.9137  -21.6027 H         1 ZMR         0.2100
     38 H15        25.1083   13.4464  -19.1715 H         1 ZMR         0.0584
     39 H16        24.0574   14.5332  -20.1415 H         1 ZMR         0.0584
     40 H17        24.8832   16.1964  -18.9468 H         1 ZMR         0.2095
     41 H18        32.8163   13.4694  -20.8838 H         1 ZMR         0.2645
     42 H19        33.4314   17.4043  -20.0226 H         1 ZMR         0.2615
     43 H20        31.9007   16.8230  -20.7308 H         1 ZMR         0.2615
     44 H21        34.7067   14.1247  -19.7703 H         1 ZMR         0.2615
     45 H22        34.8792   15.7946  -19.1668 H         1 ZMR         0.2615
@<TRIPOS>BOND
     1    1    2 ar 
     2    1    3 ar 
     3    1    4 1  
     4    4    5 1  
     5    4   13 1  
     6    5    6 1  
     7    6    7 1  
     8    6   20 1  
     9    7    8 1  
    10    7   12 1  
    11    8    9 am 
    12    9   10 2  
    13    9   11 1  
    14   12   13 1  
    15   12   14 1  
    16   14   15 1  
    17   14   16 1  
    18   16   17 1  
    19   16   18 1  
    20   18   19 1  
    21   20   21 ar 
    22   21   22 ar 
    23   21   23 ar 
    24    4   24 1  
    25    5   25 1  
    26    5   26 1  
    27    6   27 1  
    28    7   28 1  
    29    8   29 1  
    30   11   30 1  
    31   11   31 1  
    32   11   32 1  
    33   12   33 1  
    34   14   34 1  
    35   15   35 1  
    36   16   36 1  
    37   17   37 1  
    38   18   38 1  
    39   18   39 1  
    40   19   40 1  
    41   20   41 1  
    42   22   42 1  
    43   22   43 1  
    44   23   44 1  
    45   23   45 1  
@<TRIPOS>SUBSTRUCTURE
     1 ZMR         1

