### 
### Created by X-TOOL on Mon Sep 10 21:13:05 2018
### 

@<TRIPOS>MOLECULE
3ti6_ligand
   46    46     1     0     0
SMALL
GAST_HUCK


@<TRIPOS>ATOM
      1 C1        -28.8990   12.3580   24.4070 C.2       1 G39         0.0381
      2 O1A       -29.7550   12.0040   25.1990 O.co2     1 G39        -0.5687
      3 O1B       -27.5650   12.1950   24.6830 O.co2     1 G39        -0.5687
      4 C2        -29.2740   13.1040   23.1830 C.3       1 G39         0.0194
      5 C3        -30.7500   13.1290   22.6440 C.3       1 G39         0.0069
      6 C4        -31.0140   14.2530   21.6620 C.3       1 G39         0.0033
      7 C5        -30.0040   14.4900   20.5740 C.3       1 G39         0.1105
      8 N5        -30.3110   15.5470   19.6230 N.am      1 G39        -0.2762
      9 C10       -30.8280   15.2780   18.2920 C.2       1 G39         0.1734
     10 O10       -30.9290   14.1280   17.8900 O.2       1 G39        -0.3974
     11 C11       -31.1200   16.4540   17.3790 C.3       1 G39         0.0257
     12 C6        -28.5320   14.2930   20.8980 C.3       1 G39         0.0888
     13 C7        -28.1360   13.4220   22.1250 C.3       1 G39        -0.0096
     14 O7        -27.5770   14.3410   19.8470 O.3       1 G39        -0.3708
     15 C8        -26.9160   15.5440   19.4870 C.3       1 G39         0.0587
     16 C9        -25.9590   16.0650   20.5520 C.3       1 G39        -0.0294
     17 C81       -26.3140   15.4430   18.1010 C.3       1 G39        -0.0294
     18 C82       -27.1970   14.8830   17.0190 C.3       1 G39        -0.0629
     19 C91       -24.8040   15.2040   20.9520 C.3       1 G39        -0.0629
     20 N4        -32.3890   14.5390   21.3670 N.4       1 G39         0.2225
     21 H1        -29.3006   14.0964   23.6568 H         1 G39         0.0469
     22 H2        -31.4315   13.2463   23.4994 H         1 G39         0.0341
     23 H3        -30.9538   12.1720   22.1413 H         1 G39         0.0341
     24 H4        -30.7840   15.1138   22.3071 H         1 G39         0.0875
     25 H5        -30.1841   13.6021   19.9502 H         1 G39         0.0638
     26 H6        -30.1602   16.4970   19.8963 H         1 G39         0.1857
     27 H7        -31.5021   16.0845   16.4160 H         1 G39         0.0467
     28 H8        -30.1958   17.0264   17.2114 H         1 G39         0.0467
     29 H9        -31.8739   17.1037   17.8476 H         1 G39         0.0467
     30 H10       -28.3419   15.2845   21.3347 H         1 G39         0.0622
     31 H11       -27.7616   12.4611   21.7422 H         1 G39         0.0311
     32 H12       -27.3271   13.9455   22.6557 H         1 G39         0.0311
     33 H13       -27.7049   16.3070   19.4126 H         1 G39         0.0596
     34 H14       -26.5528   16.2543   21.4584 H         1 G39         0.0287
     35 H15       -25.5442   17.0137   20.1806 H         1 G39         0.0287
     36 H16       -25.4239   14.8004   18.1704 H         1 G39         0.0287
     37 H17       -26.0124   16.4554   17.7942 H         1 G39         0.0287
     38 H18       -26.6442   14.8634   16.0682 H         1 G39         0.0231
     39 H19       -28.0904   15.5156   16.9107 H         1 G39         0.0231
     40 H20       -27.5018   13.8606   17.2870 H         1 G39         0.0231
     41 H21       -24.2132   15.7186   21.7241 H         1 G39         0.0231
     42 H22       -24.1702   15.0097   20.0742 H         1 G39         0.0231
     43 H23       -25.1788   14.2503   21.3520 H         1 G39         0.0231
     44 H24       -32.9551   14.3378   22.1764 H         1 G39         0.1998
     45 H25       -32.6927   13.9677   20.5941 H         1 G39         0.1998
     46 H26       -32.4850   15.5124   21.1234 H         1 G39         0.1998
@<TRIPOS>BOND
     1    1    2 ar 
     2    1    3 ar 
     3    1    4 1  
     4    4    5 1  
     5    4   13 1  
     6    5    6 1  
     7    6    7 1  
     8    6   20 1  
     9    7    8 1  
    10    7   12 1  
    11    8    9 am 
    12    9   10 2  
    13    9   11 1  
    14   12   13 1  
    15   12   14 1  
    16   14   15 1  
    17   15   16 1  
    18   15   17 1  
    19   16   19 1  
    20   17   18 1  
    21    4   21 1  
    22    5   22 1  
    23    5   23 1  
    24    6   24 1  
    25    7   25 1  
    26    8   26 1  
    27   11   27 1  
    28   11   28 1  
    29   11   29 1  
    30   12   30 1  
    31   13   31 1  
    32   13   32 1  
    33   15   33 1  
    34   16   34 1  
    35   16   35 1  
    36   17   36 1  
    37   17   37 1  
    38   18   38 1  
    39   18   39 1  
    40   18   40 1  
    41   19   41 1  
    42   19   42 1  
    43   19   43 1  
    44   20   44 1  
    45   20   45 1  
    46   20   46 1  
@<TRIPOS>SUBSTRUCTURE
     1 G39         1

