### 
### Created by X-TOOL on Mon Sep 10 21:13:05 2018
### 

@<TRIPOS>MOLECULE
3ti8_ligand
   48    48     1     0     0
SMALL
GAST_HUCK


@<TRIPOS>ATOM
      1 CAA        21.0230  -22.4130  -53.8270 C.3       1 LNV         0.1148
      2 CAB        20.3500  -21.1210  -53.3690 C.3       1 LNV         0.0237
      3 CAC        21.2170  -20.1380  -52.5740 C.3       1 LNV         0.1026
      4 CAD        22.6590  -20.6070  -52.2260 C.3       1 LNV         0.1065
      5 CAE        23.0120  -22.1040  -52.4560 C.3       1 LNV         0.1161
      6 OAF        22.0870  -22.9530  -53.1080 O.3       1 LNV        -0.3542
      7 CAG        20.2320  -23.4100  -54.6070 C.2       1 LNV         0.0637
      8 OAH        18.9860  -23.0460  -55.0440 O.co2     1 LNV        -0.5663
      9 OAI        20.5340  -24.5860  -54.4980 O.co2     1 LNV        -0.5663
     10 CAJ        24.4430  -22.5050  -52.6270 C.3       1 LNV         0.1147
     11 CAK        24.6500  -23.9580  -52.2490 C.3       1 LNV         0.1067
     12 CAL        26.0920  -24.3940  -52.3760 C.3       1 LNV         0.0727
     13 OAM        27.0140  -23.7160  -51.5580 O.3       1 LNV        -0.3924
     14 OAW        24.8350  -22.1760  -53.9020 O.3       1 LNV        -0.3745
     15 CAX        25.8990  -21.3040  -54.0700 C.3       1 LNV         0.0370
     16 OAY        24.0700  -24.2820  -51.0350 O.3       1 LNV        -0.3869
     17 NAZ        20.9880  -18.7400  -52.7820 N.pl3     1 LNV        -0.2671
     18 CBA        21.0730  -17.7540  -51.7450 C.cat     1 LNV         0.2885
     19 NBB        21.0770  -16.4930  -52.1190 N.pl3     1 LNV        -0.2849
     20 NBC        20.9930  -18.0970  -50.4590 N.pl3     1 LNV        -0.2849
     21 CBD        24.2190  -18.6990  -51.6250 C.2       1 LNV         0.1733
     22 CBE        24.8620  -17.9790  -50.4810 C.3       1 LNV         0.0257
     23 OBF        24.3660  -18.3370  -52.7880 O.2       1 LNV        -0.3974
     24 NBG        23.4660  -19.8650  -51.3000 N.am      1 LNV        -0.2778
     25 H1         21.6004  -21.9811  -54.6577 H         1 LNV         0.0767
     26 H2         19.4937  -21.3973  -52.7363 H         1 LNV         0.0346
     27 H3         19.9890  -20.5969  -54.2662 H         1 LNV         0.0346
     28 H4         20.7512  -20.2457  -51.5834 H         1 LNV         0.0752
     29 H5         23.1350  -20.2187  -53.1385 H         1 LNV         0.0621
     30 H6         22.8610  -22.4529  -51.4238 H         1 LNV         0.0649
     31 H7         25.0510  -21.9063  -51.9329 H         1 LNV         0.0649
     32 H8         24.1000  -24.5423  -53.0014 H         1 LNV         0.0643
     33 H9         26.3977  -24.2463  -53.4223 H         1 LNV         0.0584
     34 H10        26.1436  -25.4641  -52.1265 H         1 LNV         0.0584
     35 H11        26.7787  -23.8413  -50.6462 H         1 LNV         0.2095
     36 H12        26.0800  -21.1490  -55.1439 H         1 LNV         0.0524
     37 H13        26.7997  -21.7304  -53.6042 H         1 LNV         0.0524
     38 H14        25.6619  -20.3404  -53.5954 H         1 LNV         0.0524
     39 H15        24.0904  -25.2245  -50.9170 H         1 LNV         0.2100
     40 H16        20.7481  -18.4243  -53.7326 H         1 LNV         0.2645
     41 H17        21.1365  -15.7463  -51.4120 H         1 LNV         0.2615
     42 H18        21.0206  -16.2522  -53.1189 H         1 LNV         0.2615
     43 H19        20.9916  -19.0913  -50.1903 H         1 LNV         0.2615
     44 H20        20.9326  -17.3676  -49.7342 H         1 LNV         0.2615
     45 H21        24.5936  -18.4765  -49.5373 H         1 LNV         0.0467
     46 H22        24.5101  -16.9371  -50.4592 H         1 LNV         0.0467
     47 H23        25.9548  -17.9944  -50.6057 H         1 LNV         0.0467
     48 H24        23.5029  -20.1905  -50.3552 H         1 LNV         0.1856
@<TRIPOS>BOND
     1    2    1 1  
     2    6    1 1  
     3    1    7 1  
     4    3    2 1  
     5    4    3 1  
     6    3   17 1  
     7    4    5 1  
     8   24    4 1  
     9    5    6 1  
    10    5   10 1  
    11    7    8 ar 
    12    7    9 ar 
    13   10   11 1  
    14   10   14 1  
    15   11   12 1  
    16   11   16 1  
    17   12   13 1  
    18   14   15 1  
    19   17   18 ar 
    20   18   19 ar 
    21   18   20 ar 
    22   21   22 1  
    23   21   23 2  
    24   21   24 am 
    25    1   25 1  
    26    2   26 1  
    27    2   27 1  
    28    3   28 1  
    29    4   29 1  
    30    5   30 1  
    31   10   31 1  
    32   11   32 1  
    33   12   33 1  
    34   12   34 1  
    35   13   35 1  
    36   15   36 1  
    37   15   37 1  
    38   15   38 1  
    39   16   39 1  
    40   17   40 1  
    41   19   41 1  
    42   19   42 1  
    43   20   43 1  
    44   20   44 1  
    45   22   45 1  
    46   22   46 1  
    47   22   47 1  
    48   24   48 1  
@<TRIPOS>SUBSTRUCTURE
     1 LNV         1

