### 
### Created by X-TOOL on Mon Sep 10 21:13:05 2018
### 

@<TRIPOS>MOLECULE
3tia_ligand
   48    48     1     0     0
SMALL
GAST_HUCK


@<TRIPOS>ATOM
      1 CAA        45.9820   28.4600   22.1320 C.3       1 LNV         0.1148
      2 CAB        45.4350   27.0640   22.3060 C.3       1 LNV         0.0237
      3 CAC        45.5370   26.0690   21.1460 C.3       1 LNV         0.1026
      4 CAD        46.5390   26.4790   20.0440 C.3       1 LNV         0.1065
      5 CAE        46.6910   28.0330   19.8570 C.3       1 LNV         0.1161
      6 OAF        46.7590   28.7320   21.0600 O.3       1 LNV        -0.3542
      7 CAG        45.9250   29.4930   23.2420 C.2       1 LNV         0.0637
      8 OAH        45.1980   29.1880   24.2990 O.co2     1 LNV        -0.5663
      9 OAI        46.3090   30.5710   22.9650 O.co2     1 LNV        -0.5663
     10 CAJ        47.9320   28.4150   19.0310 C.3       1 LNV         0.1147
     11 CAK        47.9020   29.8630   18.6880 C.3       1 LNV         0.1067
     12 CAL        49.0970   30.3550   17.9340 C.3       1 LNV         0.0727
     13 OAM        49.2700   29.7280   16.7390 O.3       1 LNV        -0.3924
     14 OAW        49.0290   28.1790   19.7770 O.3       1 LNV        -0.3745
     15 CAX        49.9620   27.3380   19.3710 C.3       1 LNV         0.0370
     16 OAY        46.8070   30.2580   18.1040 O.3       1 LNV        -0.3869
     17 NAZ        45.5420   24.6850   21.5230 N.pl3     1 LNV        -0.2671
     18 CBA        44.9480   23.6490   20.7690 C.cat     1 LNV         0.2885
     19 NBB        45.1460   22.4130   21.1240 N.pl3     1 LNV        -0.2849
     20 NBC        44.2680   23.9640   19.7100 N.pl3     1 LNV        -0.2849
     21 CBD        47.3260   24.6090   18.6610 C.2       1 LNV         0.1733
     22 CBE        46.9880   23.9670   17.3560 C.3       1 LNV         0.0257
     23 OBF        48.1420   24.2210   19.3800 O.2       1 LNV        -0.3974
     24 NBG        46.5570   25.7380   18.8480 N.am      1 LNV        -0.2778
     25 H1         45.0612   28.8264   21.6546 H         1 LNV         0.0767
     26 H2         44.3669   27.1657   22.5485 H         1 LNV         0.0346
     27 H3         45.9639   26.6162   23.1602 H         1 LNV         0.0346
     28 H4         44.5647   26.1765   20.6430 H         1 LNV         0.0752
     29 H5         47.5010   26.1971   20.4968 H         1 LNV         0.0621
     30 H6         45.7993   28.3789   19.3137 H         1 LNV         0.0649
     31 H7         47.9640   27.8152   18.1095 H         1 LNV         0.0649
     32 H8         47.9273   30.3828   19.6571 H         1 LNV         0.0643
     33 H9         49.9928   30.1875   18.5500 H         1 LNV         0.0584
     34 H10        48.9751   31.4325   17.7494 H         1 LNV         0.0584
     35 H11        48.5057   29.8721   16.1935 H         1 LNV         0.2095
     36 H12        50.7649   27.2910   20.1214 H         1 LNV         0.0524
     37 H13        50.3758   27.6843   18.4124 H         1 LNV         0.0524
     38 H14        49.5228   26.3379   19.2409 H         1 LNV         0.0524
     39 H15        46.7798   29.9142   17.2188 H         1 LNV         0.2100
     40 H16        46.0108   24.4293   22.4038 H         1 LNV         0.2645
     41 H17        44.7191   21.6472   20.5834 H         1 LNV         0.2615
     42 H18        45.7297   22.2003   21.9456 H         1 LNV         0.2615
     43 H19        44.1322   24.9541   19.4608 H         1 LNV         0.2615
     44 H20        43.8639   23.2240   19.1184 H         1 LNV         0.2615
     45 H21        46.1792   24.5311   16.8685 H         1 LNV         0.0467
     46 H22        46.6594   22.9319   17.5308 H         1 LNV         0.0467
     47 H23        47.8763   23.9652   16.7073 H         1 LNV         0.0467
     48 H24        45.9802   26.0473   18.0919 H         1 LNV         0.1856
@<TRIPOS>BOND
     1    2    1 1  
     2    6    1 1  
     3    1    7 1  
     4    3    2 1  
     5    4    3 1  
     6    3   17 1  
     7    4    5 1  
     8   24    4 1  
     9    5    6 1  
    10    5   10 1  
    11    7    8 ar 
    12    7    9 ar 
    13   10   11 1  
    14   10   14 1  
    15   11   12 1  
    16   11   16 1  
    17   12   13 1  
    18   14   15 1  
    19   17   18 ar 
    20   18   19 ar 
    21   18   20 ar 
    22   21   22 1  
    23   21   23 2  
    24   21   24 am 
    25    1   25 1  
    26    2   26 1  
    27    2   27 1  
    28    3   28 1  
    29    4   29 1  
    30    5   30 1  
    31   10   31 1  
    32   11   32 1  
    33   12   33 1  
    34   12   34 1  
    35   13   35 1  
    36   15   36 1  
    37   15   37 1  
    38   15   38 1  
    39   16   39 1  
    40   17   40 1  
    41   19   41 1  
    42   19   42 1  
    43   20   43 1  
    44   20   44 1  
    45   22   45 1  
    46   22   46 1  
    47   22   47 1  
    48   24   48 1  
@<TRIPOS>SUBSTRUCTURE
     1 LNV         1

