### 
### Created by X-TOOL on Mon Sep 10 21:13:05 2018
### 

@<TRIPOS>MOLECULE
3tib_ligand
   50    50     1     0     0
SMALL
GAST_HUCK


@<TRIPOS>ATOM
      1 CAA        23.4600  -21.9400   -5.6590 C.3       1 LVO         0.1148
      2 CAB        23.3210  -20.7880   -4.7060 C.3       1 LVO         0.0237
      3 CAC        24.4180  -19.6990   -4.7330 C.3       1 LVO         0.1026
      4 CAD        25.7180  -20.0880   -5.5020 C.3       1 LVO         0.1065
      5 CAE        25.8240  -21.5890   -5.9170 C.3       1 LVO         0.1161
      6 OAF        24.7150  -22.4220   -5.7780 O.3       1 LVO        -0.3542
      7 CAG        22.3700  -23.0020   -5.5840 C.2       1 LVO         0.0637
      8 OAH        22.6160  -24.2790   -5.8490 O.co2     1 LVO        -0.5663
      9 OAI        21.3210  -22.6910   -5.2320 O.co2     1 LVO        -0.5663
     10 CAJ        26.9290  -21.9720   -6.8780 C.3       1 LVO         0.1151
     11 CAK        27.5800  -23.3310   -6.6590 C.3       1 LVO         0.1115
     12 CAL        28.7780  -23.6620   -7.5280 C.3       1 LVO         0.1052
     13 OAM        29.7840  -22.7310   -7.6870 O.3       1 LVO        -0.2757
     14 CAN        29.9420  -22.1040   -8.8250 C.2       1 LVO         0.2280
     15 OAV        30.6350  -21.1080   -9.0180 O.2       1 LVO        -0.3548
     16 OAW        26.6880  -21.6240   -8.1610 O.3       1 LVO        -0.3745
     17 CAX        27.2210  -20.5590   -8.7770 C.3       1 LVO         0.0370
     18 OAY        27.6930  -23.7260   -5.3940 O.3       1 LVO        -0.3865
     19 NAZ        24.0510  -18.3550   -4.8070 N.pl3     1 LVO        -0.2671
     20 CBA        24.7050  -17.2730   -4.1710 C.cat     1 LVO         0.2885
     21 NBB        24.4170  -16.1020   -4.5260 N.pl3     1 LVO        -0.2849
     22 NBC        25.5330  -17.4420   -3.2180 N.pl3     1 LVO        -0.2849
     23 CBD        27.3380  -18.2670   -6.0480 C.2       1 LVO         0.1733
     24 CBE        28.4660  -17.4480   -5.6010 C.3       1 LVO         0.0257
     25 OBF        26.7740  -18.0070   -6.9930 O.2       1 LVO        -0.3974
     26 NBG        26.9320  -19.3640   -5.3040 N.am      1 LVO        -0.2778
     27 H1         23.2786  -21.4722   -6.6379 H         1 LVO         0.0767
     28 H2         23.2959  -21.2043   -3.6882 H         1 LVO         0.0346
     29 H3         22.3624  -20.2946   -4.9241 H         1 LVO         0.0346
     30 H4         24.7678  -19.7473   -3.6912 H         1 LVO         0.0752
     31 H5         25.4523  -19.6627   -6.4810 H         1 LVO         0.0621
     32 H6         26.3352  -21.9297   -5.0045 H         1 LVO         0.0649
     33 H7         27.7382  -21.2832   -6.5938 H         1 LVO         0.0649
     34 H8         26.8130  -24.0152   -7.0509 H         1 LVO         0.0647
     35 H9         28.3910  -23.8884   -8.5325 H         1 LVO         0.0641
     36 H10        29.2420  -24.5637   -7.1020 H         1 LVO         0.0641
     37 H11        29.4069  -22.5043   -9.6849 H         1 LVO         0.1697
     38 H12        26.8556  -20.5141   -9.8136 H         1 LVO         0.0524
     39 H13        28.3175  -20.6468   -8.7783 H         1 LVO         0.0524
     40 H14        26.9271  -19.6424   -8.2447 H         1 LVO         0.0524
     41 H15        27.8038  -24.6691   -5.3666 H         1 LVO         0.2100
     42 H16        23.2251  -18.1286   -5.3793 H         1 LVO         0.2645
     43 H17        24.8803  -15.2991   -4.0771 H         1 LVO         0.2615
     44 H18        23.7177  -15.9454   -5.2658 H         1 LVO         0.2615
     45 H19        25.7807  -18.3944   -2.9138 H         1 LVO         0.2615
     46 H20        25.9548  -16.6263   -2.7515 H         1 LVO         0.2615
     47 H21        28.8753  -17.8651   -4.6691 H         1 LVO         0.0467
     48 H22        28.1233  -16.4181   -5.4223 H         1 LVO         0.0467
     49 H23        29.2470  -17.4454   -6.3756 H         1 LVO         0.0467
     50 H24        27.5377  -19.6725   -4.5705 H         1 LVO         0.1856
@<TRIPOS>BOND
     1    2    1 1  
     2    6    1 1  
     3    1    7 1  
     4    3    2 1  
     5    4    3 1  
     6    3   19 1  
     7    4    5 1  
     8   26    4 1  
     9    5    6 1  
    10    5   10 1  
    11    7    8 ar 
    12    7    9 ar 
    13   10   11 1  
    14   10   16 1  
    15   11   12 1  
    16   11   18 1  
    17   12   13 1  
    18   13   14 1  
    19   14   15 2  
    20   16   17 1  
    21   19   20 ar 
    22   20   21 ar 
    23   20   22 ar 
    24   23   24 1  
    25   23   25 2  
    26   23   26 am 
    27    1   27 1  
    28    2   28 1  
    29    2   29 1  
    30    3   30 1  
    31    4   31 1  
    32    5   32 1  
    33   10   33 1  
    34   11   34 1  
    35   12   35 1  
    36   12   36 1  
    37   14   37 1  
    38   17   38 1  
    39   17   39 1  
    40   17   40 1  
    41   18   41 1  
    42   19   42 1  
    43   21   43 1  
    44   21   44 1  
    45   22   45 1  
    46   22   46 1  
    47   24   47 1  
    48   24   48 1  
    49   24   49 1  
    50   26   50 1  
@<TRIPOS>SUBSTRUCTURE
     1 LVO         1

