### 
### Created by X-TOOL on Mon Sep 10 21:13:05 2018
### 

@<TRIPOS>MOLECULE
3tic_ligand
   45    45     1     0     0
SMALL
GAST_HUCK


@<TRIPOS>ATOM
      1 C1         13.8540  -29.1530   49.8070 C.2       1 ZMR         0.0637
      2 O1A        13.6200  -30.2020   50.2090 O.co2     1 ZMR        -0.5663
      3 O1B        15.0610  -28.7400   49.3930 O.co2     1 ZMR        -0.5663
      4 C2         12.7930  -28.0930   49.9100 C.3       1 ZMR         0.1148
      5 C3         13.0170  -26.7640   49.1270 C.3       1 ZMR         0.0237
      6 C4         11.8780  -25.7830   49.1020 C.3       1 ZMR         0.1026
      7 C5         10.6100  -26.2220   49.7770 C.3       1 ZMR         0.1065
      8 N5          9.4490  -25.4420   49.6310 N.am      1 ZMR        -0.2778
      9 C10         9.1020  -24.2530   50.2530 C.2       1 ZMR         0.1733
     10 O10         9.6850  -23.7680   51.1120 O.2       1 ZMR        -0.3974
     11 C11         7.8780  -23.6110   49.6690 C.3       1 ZMR         0.0257
     12 C6         10.3910  -27.6860   50.1150 C.3       1 ZMR         0.1158
     13 O6         11.4340  -28.5830   50.0200 O.3       1 ZMR        -0.3542
     14 C7          9.3310  -28.1210   51.1180 C.3       1 ZMR         0.1116
     15 O7          9.7350  -27.8390   52.3520 O.3       1 ZMR        -0.3865
     16 C8          8.9220  -29.5600   50.9640 C.3       1 ZMR         0.1065
     17 O8          8.7140  -29.9360   49.7230 O.3       1 ZMR        -0.3869
     18 C9          7.8680  -29.9990   51.9340 C.3       1 ZMR         0.0727
     19 O9          6.7540  -29.3200   51.8070 O.3       1 ZMR        -0.3924
     20 NE         12.2010  -24.4090   49.0650 N.pl3     1 ZMR        -0.2671
     21 CZ         11.5470  -23.4410   48.2690 C.cat     1 ZMR         0.2885
     22 NH1        10.6250  -23.7260   47.3880 N.pl3     1 ZMR        -0.2849
     23 NH2        11.9530  -22.2250   48.4580 N.pl3     1 ZMR        -0.2849
     24 H1         12.9625  -27.7406   50.9381 H         1 ZMR         0.0767
     25 H2         13.2492  -27.0286   48.0849 H         1 ZMR         0.0346
     26 H3         13.8821  -26.2557   49.5778 H         1 ZMR         0.0346
     27 H4         11.5634  -25.9059   48.0551 H         1 ZMR         0.0752
     28 H5         10.8815  -25.8854   50.7884 H         1 ZMR         0.0621
     29 H6          8.7749  -25.7973   48.9834 H         1 ZMR         0.1856
     30 H7          7.6616  -22.6767   50.2077 H         1 ZMR         0.0467
     31 H8          7.0230  -24.2963   49.7655 H         1 ZMR         0.0467
     32 H9          8.0521  -23.3893   48.6057 H         1 ZMR         0.0467
     33 H10         9.8573  -27.9565   49.1920 H         1 ZMR         0.0649
     34 H11         8.4331  -27.5165   50.9222 H         1 ZMR         0.0647
     35 H12        10.5459  -28.3002   52.5317 H         1 ZMR         0.2100
     36 H13         9.8154  -30.1260   51.2663 H         1 ZMR         0.0643
     37 H14         8.4609  -30.8515   49.7089 H         1 ZMR         0.2100
     38 H15         8.2502  -29.8614   52.9562 H         1 ZMR         0.0584
     39 H16         7.6531  -31.0642   51.7631 H         1 ZMR         0.0584
     40 H17         6.4111  -29.4376   50.9289 H         1 ZMR         0.2095
     41 H18        12.9737  -24.0867   49.6650 H         1 ZMR         0.2645
     42 H19        10.1867  -22.9726   46.8392 H         1 ZMR         0.2615
     43 H20        10.3366  -24.7040   47.2424 H         1 ZMR         0.2615
     44 H21        12.6814  -22.0284   49.1592 H         1 ZMR         0.2615
     45 H22        11.5473  -21.4551   47.9070 H         1 ZMR         0.2615
@<TRIPOS>BOND
     1    1    2 ar 
     2    1    3 ar 
     3    1    4 1  
     4    4    5 1  
     5    4   13 1  
     6    5    6 1  
     7    6    7 1  
     8    6   20 1  
     9    7    8 1  
    10    7   12 1  
    11    8    9 am 
    12    9   10 2  
    13    9   11 1  
    14   12   13 1  
    15   12   14 1  
    16   14   15 1  
    17   14   16 1  
    18   16   17 1  
    19   16   18 1  
    20   18   19 1  
    21   20   21 ar 
    22   21   22 ar 
    23   21   23 ar 
    24    4   24 1  
    25    5   25 1  
    26    5   26 1  
    27    6   27 1  
    28    7   28 1  
    29    8   29 1  
    30   11   30 1  
    31   11   31 1  
    32   11   32 1  
    33   12   33 1  
    34   14   34 1  
    35   15   35 1  
    36   16   36 1  
    37   17   37 1  
    38   18   38 1  
    39   18   39 1  
    40   19   40 1  
    41   20   41 1  
    42   22   42 1  
    43   22   43 1  
    44   23   44 1  
    45   23   45 1  
@<TRIPOS>SUBSTRUCTURE
     1 ZMR         1

