### 
### Created by X-TOOL on Mon Sep 10 21:13:09 2018
### 

@<TRIPOS>MOLECULE
3tiy_ligand
   24    25     1     0     0
SMALL
GAST_HUCK


@<TRIPOS>ATOM
      1 C13       -94.7320    9.7670  -48.7200 C.ar      1 TIY         0.1140
      2 C15       -94.3220    9.7630  -50.0630 C.ar      1 TIY         0.1519
      3 O01       -92.9950    9.0730  -51.7710 O.3       1 TIY        -0.3350
      4 C02       -93.2570    8.9500  -50.4510 C.ar      1 TIY         0.1294
      5 C03       -92.5410    8.0890  -49.5430 C.ar      1 TIY         0.0514
      6 C04       -92.9790    8.0980  -48.1710 C.ar      1 TIY        -0.0377
      7 C05       -92.4450    7.3580  -47.0830 C.2       1 TIY        -0.0677
      8 C06       -91.3970    6.4360  -47.0280 C.2       1 TIY        -0.0672
      9 C07       -90.5760    6.0130  -48.0620 C.2       1 TIY        -0.0195
     10 C08       -90.6010    6.3890  -49.4070 C.2       1 TIY         0.1510
     11 C09       -91.4650    7.3040  -50.0650 C.2       1 TIY         0.1638
     12 O10       -91.2030    7.4000  -51.3000 O.2       1 TIY        -0.4064
     13 O11       -89.6330    5.7440  -50.1270 O.3       1 TIY        -0.3145
     14 C12       -94.0680    8.9460  -47.8000 C.ar      1 TIY        -0.0406
     15 O14       -95.7600   10.5350  -48.2980 O.3       1 TIY        -0.3361
     16 O16       -94.9230   10.5320  -51.0090 O.3       1 TIY        -0.3394
     17 H1        -92.2670    8.5082  -52.0022 H         1 TIY         0.2460
     18 H2        -92.9364    7.5404  -46.1285 H         1 TIY         0.0541
     19 H3        -91.2005    5.9948  -46.0519 H         1 TIY         0.0611
     20 H4        -89.8084    5.2904  -47.7888 H         1 TIY         0.0546
     21 H5        -90.0406    5.2305  -50.8145 H         1 TIY         0.2578
     22 H6        -94.3928    8.9540  -46.7658 H         1 TIY         0.0416
     23 H7        -96.1050   11.0311  -49.0311 H         1 TIY         0.2459
     24 H8        -95.6263   11.0309  -50.6101 H         1 TIY         0.2414
@<TRIPOS>BOND
     1    1    2 ar 
     2    1   14 ar 
     3    1   15 1  
     4    2    4 ar 
     5    2   16 1  
     6    4    3 1  
     7    4    5 ar 
     8    5    6 ar 
     9    5   11 1  
    10    6    7 1  
    11    6   14 ar 
    12    7    8 2  
    13    8    9 1  
    14    9   10 2  
    15   10   11 1  
    16   10   13 1  
    17   11   12 2  
    18    3   17 1  
    19    7   18 1  
    20    8   19 1  
    21    9   20 1  
    22   13   21 1  
    23   14   22 1  
    24   15   23 1  
    25   16   24 1  
@<TRIPOS>SUBSTRUCTURE
     1 TIY         1

