### 
### Created by X-TOOL on Mon Sep 10 21:13:10 2018
### 

@<TRIPOS>MOLECULE
3tiz_ligand
   35    37     1     0     0
SMALL
GAST_HUCK


@<TRIPOS>ATOM
      1 N01       -90.1190  -10.2350  -84.3970 N.pl3     1 3TI        -0.3193
      2 C02       -89.1210  -10.5340  -83.3710 C.ar      1 3TI         0.0285
      3 C03       -88.6360  -11.8450  -83.2180 C.ar      1 3TI        -0.0525
      4 C04       -87.6730  -12.1390  -82.2230 C.ar      1 3TI        -0.0446
      5 C05       -87.1990  -11.1400  -81.4000 C.ar      1 3TI         0.0741
      6 C06       -87.6850   -9.8340  -81.5470 C.ar      1 3TI        -0.0446
      7 C07       -88.6550   -9.5360  -82.5440 C.ar      1 3TI        -0.0525
      8 C08       -91.1510   -9.2220  -84.2110 C.3       1 3TI         0.0534
      9 C09       -92.1190   -8.9200  -85.3990 C.ar      1 3TI         0.0141
     10 C10       -92.0300   -9.6690  -86.5900 C.ar      1 3TI         0.0911
     11 C11       -92.8840   -9.4130  -87.6640 C.ar      1 3TI        -0.0368
     12 C12       -93.8680   -8.3930  -87.5520 C.ar      1 3TI        -0.0653
     13 C13       -93.9740   -7.6180  -86.3390 C.ar      1 3TI        -0.0309
     14 C14       -93.1240   -7.8700  -85.2750 C.ar      1 3TI        -0.0203
     15 C15       -93.2350   -7.0970  -84.0800 C.ar      1 3TI        -0.0606
     16 C16       -94.2140   -6.0710  -83.9710 C.ar      1 3TI        -0.0665
     17 C17       -95.0830   -5.8230  -85.0550 C.ar      1 3TI        -0.0665
     18 C18       -94.9750   -6.5710  -86.2230 C.ar      1 3TI        -0.0613
     19 O19       -86.2690  -11.4330  -80.4370 O.3       1 3TI        -0.3417
     20 O20       -91.0750  -10.6610  -86.7050 O.3       1 3TI        -0.3383
     21 H1        -90.0920  -10.7590  -85.2833 H         1 3TI         0.1746
     22 H2        -89.0013  -12.6342  -83.8651 H         1 3TI         0.0490
     23 H3        -87.3072  -13.1529  -82.1079 H         1 3TI         0.0511
     24 H4        -87.3199   -9.0466  -80.8976 H         1 3TI         0.0511
     25 H5        -89.0273   -8.5238  -82.6528 H         1 3TI         0.0490
     26 H6        -90.6408   -8.2804  -83.9600 H         1 3TI         0.0647
     27 H7        -91.7705   -9.5415  -83.3601 H         1 3TI         0.0647
     28 H8        -92.7974   -9.9887  -88.5784 H         1 3TI         0.0563
     29 H9        -94.5402   -8.1969  -88.3795 H         1 3TI         0.0539
     30 H10       -92.5676   -7.2936  -83.2487 H         1 3TI         0.0596
     31 H11       -94.2920   -5.4844  -83.0628 H         1 3TI         0.0591
     32 H12       -95.8366   -5.0477  -84.9773 H         1 3TI         0.0585
     33 H13       -95.6428   -6.3712  -87.0531 H         1 3TI         0.0602
     34 H14       -85.4858  -10.9166  -80.5871 H         1 3TI         0.2437
     35 H15       -90.5764  -10.7141  -85.8981 H         1 3TI         0.2449
@<TRIPOS>BOND
     1    1    2 1  
     2    1    8 1  
     3    2    3 ar 
     4    2    7 ar 
     5    3    4 ar 
     6    4    5 ar 
     7    5    6 ar 
     8    5   19 1  
     9    6    7 ar 
    10    8    9 1  
    11    9   10 ar 
    12    9   14 ar 
    13   10   11 ar 
    14   10   20 1  
    15   11   12 ar 
    16   12   13 ar 
    17   13   14 ar 
    18   13   18 ar 
    19   14   15 ar 
    20   15   16 ar 
    21   16   17 ar 
    22   17   18 ar 
    23    1   21 1  
    24    3   22 1  
    25    4   23 1  
    26    6   24 1  
    27    7   25 1  
    28    8   26 1  
    29    8   27 1  
    30   11   28 1  
    31   12   29 1  
    32   15   30 1  
    33   16   31 1  
    34   17   32 1  
    35   18   33 1  
    36   19   34 1  
    37   20   35 1  
@<TRIPOS>SUBSTRUCTURE
     1 3TI         1

