### 
### Created by X-TOOL on Mon Sep 10 21:13:08 2018
### 

@<TRIPOS>MOLECULE
3tjc_ligand
   46    49     1     0     0
SMALL
GAST_HUCK


@<TRIPOS>ATOM
      1 C1        109.1460   63.6500    5.2620 C.3       1 0TP         0.0675
      2 N1        118.4380   68.6310   10.9070 N.ar      1 0TP        -0.2915
      3 O1        109.4940   62.9280    4.0980 O.3       1 0TP        -0.3758
      4 S1        114.6260   66.5190   10.8280 S.3       1 0TP        -0.0284
      5 C2        112.8430   64.5170    9.1160 C.ar      1 0TP        -0.0635
      6 N2        118.8000   67.9060    8.7460 N.pl3     1 0TP        -0.3192
      7 O2        114.5320   67.6480   13.5010 O.2       1 0TP        -0.3910
      8 C3        110.9210   62.9900    3.7670 C.3       1 0TP         0.0675
      9 N3        116.1090   68.9820   14.2930 N.am      1 0TP        -0.2911
     10 C4        111.6500   62.2340    4.8630 C.3       1 0TP         0.0509
     11 N4        111.3110   62.9430    6.0930 N.pl3     1 0TP        -0.3030
     12 C5        113.4580   64.0570    6.2970 C.ar      1 0TP        -0.0419
     13 C6        109.8480   63.0030    6.4180 C.3       1 0TP         0.0509
     14 C7        116.1990   66.4170    8.7990 C.2       1 0TP        -0.0526
     15 C8        116.6900   67.1590    9.7790 C.ar      1 0TP         0.0277
     16 C9        115.9430   67.3130   10.9880 C.ar      1 0TP         0.0630
     17 C10       117.9900   67.8970    9.8260 C.ar      1 0TP         0.1124
     18 C11       116.4020   68.0800   12.1220 C.ar      1 0TP         0.0711
     19 C12       115.5960   68.1970   13.3340 C.2       1 0TP         0.1980
     20 C13       117.6970   68.7430   12.0450 C.ar      1 0TP         0.0038
     21 C14       114.9510   65.9510    9.2760 C.2       1 0TP         0.0304
     22 C15       115.2220   69.4780   15.3450 C.3       1 0TP         0.0188
     23 C16       114.0590   65.0510    8.4900 C.ar      1 0TP        -0.0192
     24 C17       111.9270   63.7680    8.3390 C.ar      1 0TP        -0.0419
     25 C18       112.2250   63.5440    6.9090 C.ar      1 0TP         0.0429
     26 C19       114.3700   64.8020    7.0700 C.ar      1 0TP        -0.0635
     27 H         108.0666   63.6337    5.4131 H         1 0TP         0.0580
     28 H         109.4466   64.6935    5.1682 H         1 0TP         0.0580
     29 H         112.6467   64.6963   10.1731 H         1 0TP         0.0593
     30 H         118.5253   67.4096    7.8983 H         1 0TP         0.1803
     31 H         119.6867   68.4092    8.7777 H         1 0TP         0.1803
     32 H         111.2643   64.0230    3.7103 H         1 0TP         0.0580
     33 H         111.1151   62.5460    2.7907 H         1 0TP         0.0580
     34 H         117.0988   69.2284   14.2888 H         1 0TP         0.1837
     35 H         112.7262   62.2090    4.6922 H         1 0TP         0.0539
     36 H         111.3504   61.1867    4.9023 H         1 0TP         0.0539
     37 H         113.6671   63.8613    5.2453 H         1 0TP         0.0524
     38 H         109.4565   61.9994    6.5840 H         1 0TP         0.0539
     39 H         109.6867   63.5798    7.3287 H         1 0TP         0.0539
     40 H         116.6576   66.2095    7.8322 H         1 0TP         0.0417
     41 H         118.0695   69.3229   12.8894 H         1 0TP         0.0762
     42 H         114.4261   70.0728   14.8969 H         1 0TP         0.0483
     43 H         114.7885   68.6337   15.8810 H         1 0TP         0.0483
     44 H         115.7927   70.0958   16.0383 H         1 0TP         0.0483
     45 H         111.0191   63.3641    8.7870 H         1 0TP         0.0524
     46 H         115.2884   65.1872    6.6270 H         1 0TP         0.0593
@<TRIPOS>BOND
     1    1    3 1  
     2   13    1 1  
     3   17    2 ar 
     4    2   20 ar 
     5    8    3 1  
     6    4   16 1  
     7   21    4 1  
     8   23    5 ar 
     9    5   24 ar 
    10   17    6 1  
    11   19    7 2  
    12   10    8 1  
    13   19    9 am 
    14    9   22 1  
    15   11   10 1  
    16   11   13 1  
    17   25   11 1  
    18   12   25 ar 
    19   26   12 ar 
    20   14   15 1  
    21   21   14 2  
    22   15   16 ar 
    23   15   17 ar 
    24   16   18 ar 
    25   18   19 1  
    26   18   20 ar 
    27   23   21 1  
    28   23   26 ar 
    29   24   25 ar 
    30    1   27 1  
    31    1   28 1  
    32    5   29 1  
    33    6   30 1  
    34    6   31 1  
    35    8   32 1  
    36    8   33 1  
    37    9   34 1  
    38   10   35 1  
    39   10   36 1  
    40   12   37 1  
    41   13   38 1  
    42   13   39 1  
    43   14   40 1  
    44   20   41 1  
    45   22   42 1  
    46   22   43 1  
    47   22   44 1  
    48   24   45 1  
    49   26   46 1  
@<TRIPOS>SUBSTRUCTURE
     1 0TP         1

