### 
### Created by X-TOOL on Mon Sep 10 21:13:08 2018
### 

@<TRIPOS>MOLECULE
3tjd_ligand
   50    52     1     0     0
SMALL
GAST_HUCK


@<TRIPOS>ATOM
      1 C1        111.6190   60.4580    5.6300 C.3       1 6TP         0.0405
      2 N1        117.9580   67.9850   11.0670 N.ar      1 6TP        -0.2896
      3 O1        109.4440   62.8930    5.3700 O.2       1 6TP        -0.1504
      4 S1        113.9580   66.5050   10.3760 S.3       1 6TP        -0.0256
      5 C2        112.0330   64.8190    8.2820 C.ar      1 6TP        -0.0526
      6 N2        118.4060   67.4210    8.8200 N.pl3     1 6TP        -0.3183
      7 O2        113.8550   67.0920   13.3520 O.2       1 6TP        -0.3910
      8 S2        110.7490   63.1730    4.8880 S.o2      1 6TP         0.0682
      9 C3        111.4300   59.0750    4.9820 C.3       1 6TP        -0.0430
     10 N3        115.2660   68.5830   14.1290 N.am      1 6TP        -0.2911
     11 O3        110.7910   63.9390    3.7030 O.2       1 6TP        -0.1504
     12 C4        110.6120   60.5210    6.7440 C.3       1 6TP        -0.0430
     13 N4        111.5760   61.6350    4.6800 N.am      1 6TP        -0.2422
     14 C5        112.9340   64.4410    5.5320 C.ar      1 6TP        -0.0357
     15 C6        112.9790   60.4450    6.2490 C.3       1 6TP        -0.0430
     16 C7        115.6680   66.3170    8.4550 C.2       1 6TP        -0.0466
     17 C8        116.1750   66.9200    9.6350 C.ar      1 6TP         0.0325
     18 C9        115.3970   67.1030   10.7940 C.ar      1 6TP         0.0653
     19 C10       117.5310   67.4320    9.8730 C.ar      1 6TP         0.1147
     20 C11       115.7790   67.6510   12.0100 C.ar      1 6TP         0.0728
     21 C12       114.8760   67.7330   13.1870 C.2       1 6TP         0.1984
     22 C13       117.1250   68.1070   12.1320 C.ar      1 6TP         0.0053
     23 C14       114.3270   66.0170    8.7840 C.2       1 6TP         0.0387
     24 C15       114.4140   68.7250   15.2730 C.3       1 6TP         0.0188
     25 C16       113.3650   65.3070    7.8330 C.ar      1 6TP        -0.0085
     26 C17       111.1630   64.1490    7.3690 C.ar      1 6TP        -0.0357
     27 C18       111.6760   64.0000    6.0460 C.ar      1 6TP         0.1070
     28 C19       113.7850   65.1010    6.4440 C.ar      1 6TP        -0.0526
     29 H         111.7193   64.9739    9.3143 H         1 6TP         0.0615
     30 H         118.1067   67.0659    7.9119 H         1 6TP         0.1808
     31 H         119.3572   67.7679    8.9437 H         1 6TP         0.1808
     32 H         111.6098   58.2990    5.7260 H         1 6TP         0.0250
     33 H         110.4114   58.9886    4.6038 H         1 6TP         0.0250
     34 H         112.1355   58.9614    4.1589 H         1 6TP         0.0250
     35 H         116.1339   69.1119   14.0426 H         1 6TP         0.1837
     36 H         109.6091   60.4075    6.3323 H         1 6TP         0.0250
     37 H         110.8075   59.7179    7.4546 H         1 6TP         0.0250
     38 H         110.6917   61.4831    7.2501 H         1 6TP         0.0250
     39 H         112.0925   61.5219    3.8078 H         1 6TP         0.1678
     40 H         113.2205   64.2768    4.4932 H         1 6TP         0.0634
     41 H         113.0299   59.6515    6.9945 H         1 6TP         0.0250
     42 H         113.7269   60.2677    5.4761 H         1 6TP         0.0250
     43 H         113.1688   61.4064    6.7263 H         1 6TP         0.0250
     44 H         116.1897   66.1295    7.5165 H         1 6TP         0.0469
     45 H         117.4789   68.5461   13.0648 H         1 6TP         0.0774
     46 H         113.4323   69.0735   14.9523 H         1 6TP         0.0483
     47 H         114.3137   67.7609   15.7716 H         1 6TP         0.0483
     48 H         114.8504   69.4482   15.9619 H         1 6TP         0.0483
     49 H         110.1802   63.7790    7.6611 H         1 6TP         0.0634
     50 H         114.7599   65.4595    6.1136 H         1 6TP         0.0615
@<TRIPOS>BOND
     1    1    9 1  
     2    1   12 1  
     3   13    1 1  
     4    1   15 1  
     5   19    2 ar 
     6    2   22 ar 
     7    8    3 2  
     8    4   18 1  
     9   23    4 1  
    10   25    5 ar 
    11    5   26 ar 
    12   19    6 1  
    13   21    7 2  
    14    8   11 2  
    15    8   13 am 
    16   27    8 1  
    17   21   10 am 
    18   10   24 1  
    19   14   27 ar 
    20   28   14 ar 
    21   16   17 1  
    22   23   16 2  
    23   17   18 ar 
    24   17   19 ar 
    25   18   20 ar 
    26   20   21 1  
    27   20   22 ar 
    28   25   23 1  
    29   25   28 ar 
    30   26   27 ar 
    31    5   29 1  
    32    6   30 1  
    33    6   31 1  
    34    9   32 1  
    35    9   33 1  
    36    9   34 1  
    37   10   35 1  
    38   12   36 1  
    39   12   37 1  
    40   12   38 1  
    41   13   39 1  
    42   14   40 1  
    43   15   41 1  
    44   15   42 1  
    45   15   43 1  
    46   16   44 1  
    47   22   45 1  
    48   24   46 1  
    49   24   47 1  
    50   24   48 1  
    51   26   49 1  
    52   28   50 1  
@<TRIPOS>SUBSTRUCTURE
     1 6TP         1

