### 
### Created by X-TOOL on Mon Sep 10 21:13:09 2018
### 

@<TRIPOS>MOLECULE
3tkh_ligand
   61    65     1     0     0
SMALL
GAST_HUCK


@<TRIPOS>ATOM
      1 C1         11.5160   -2.1470   12.3520 C.ar      1 07S         0.0055
      2 C2         12.5040   -3.0730   12.0860 C.ar      1 07S        -0.0396
      3 C3         13.5850   -2.6620   11.3270 C.ar      1 07S        -0.0413
      4 C4         13.6230   -1.3650   10.8410 C.ar      1 07S         0.0079
      5 C5         12.5750   -0.5240   11.1600 C.ar      1 07S         0.0125
      6 N6         11.5200   -0.8800   11.9080 N.ar      1 07S        -0.3025
      7 C11        14.7590   -0.8600   10.0890 C.2       1 07S         0.0506
      8 S12        16.2510   -1.7110   10.0300 S.3       1 07S         0.0267
      9 C13        16.9780   -0.3950    9.1740 C.2       1 07S         0.2082
     10 N14        16.1520    0.6010    8.9180 N.2       1 07S        -0.3021
     11 C15        14.9130    0.3450    9.4360 C.2       1 07S        -0.0201
     12 N16        18.2770   -0.3330    8.7720 N.pl3     1 07S        -0.2224
     13 C17        19.2550   -1.3180    8.9760 C.ar      1 07S         0.1267
     14 N18        18.9900   -2.4550    9.6280 N.ar      1 07S        -0.2975
     15 C19        19.9860   -3.3340    9.7640 C.ar      1 07S        -0.0152
     16 C20        21.2570   -3.1430    9.2750 C.ar      1 07S        -0.0286
     17 C21        21.5390   -1.9760    8.5920 C.ar      1 07S         0.0506
     18 C22        20.5100   -1.0550    8.4530 C.ar      1 07S         0.0057
     19 N26        22.8530   -1.7470    8.1070 N.pl3     1 07S        -0.2932
     20 C27        23.7690   -2.8800    8.0740 C.3       1 07S         0.0692
     21 C28        25.1400   -2.3550    8.4590 C.3       1 07S        -0.0095
     22 N29        25.4710   -1.1440    7.6410 N.4       1 07S         0.2548
     23 C30        24.4290   -0.0800    7.4960 C.3       1 07S        -0.0095
     24 C31        23.0740   -0.6710    7.1520 C.3       1 07S         0.0692
     25 C40        26.7460   -0.5380    8.0960 C.3       1 07S         0.0582
     26 C41        27.7720   -0.7340    7.0220 C.2       1 07S         0.2241
     27 N44        28.9300   -1.3190    7.4980 N.am      1 07S        -0.2645
     28 C45        30.1500   -0.5380    7.5880 C.3       1 07S         0.0575
     29 C46        30.9350   -0.9000    8.8380 C.3       1 07S         0.0681
     30 O47        31.0850   -2.3220    8.9280 O.3       1 07S        -0.3758
     31 C48        29.8190   -2.9870    9.0350 C.3       1 07S         0.0681
     32 C49        29.0020   -2.7420    7.7760 C.3       1 07S         0.0575
     33 O58        27.5650   -0.3850    5.8670 O.2       1 07S        -0.3910
     34 H1         10.6782   -2.4648   12.9620 H         1 07S         0.0776
     35 H2         12.4353   -4.0884   12.4593 H         1 07S         0.0692
     36 H3         14.3959   -3.3492   11.1141 H         1 07S         0.0696
     37 H4         12.6071    0.4910   10.7808 H         1 07S         0.0789
     38 H5         14.0922    1.0540    9.3383 H         1 07S         0.0608
     39 H6         18.5697    0.5177    8.2705 H         1 07S         0.2268
     40 H7         19.7795   -4.2570   10.2936 H         1 07S         0.0746
     41 H8         22.0238   -3.8948    9.4229 H         1 07S         0.0520
     42 H9         20.6902   -0.1223    7.9308 H         1 07S         0.0516
     43 H10        23.8002   -3.3110    7.0624 H         1 07S         0.0572
     44 H11        23.4444   -3.6490    8.7904 H         1 07S         0.0572
     45 H12        25.8937   -3.1352    8.2768 H         1 07S         0.0835
     46 H13        25.1412   -2.0860    9.5256 H         1 07S         0.0835
     47 H14        25.6291   -1.4912    6.7080 H         1 07S         0.2054
     48 H15        24.7318    0.6099    6.6945 H         1 07S         0.0835
     49 H16        24.3477    0.4722    8.4439 H         1 07S         0.0835
     50 H17        22.2882    0.0928    7.2478 H         1 07S         0.0572
     51 H18        23.0785   -1.0658    6.1253 H         1 07S         0.0572
     52 H19        27.0801   -1.0273    9.0228 H         1 07S         0.1063
     53 H20        26.6017    0.5368    8.2803 H         1 07S         0.1063
     54 H21        29.8918    0.5307    7.6219 H         1 07S         0.0545
     55 H22        30.7713   -0.7372    6.7024 H         1 07S         0.0545
     56 H23        30.3970   -0.5337    9.7248 H         1 07S         0.0580
     57 H24        31.9290   -0.4311    8.7924 H         1 07S         0.0580
     58 H25        29.2734   -2.5961    9.9065 H         1 07S         0.0580
     59 H26        29.9831   -4.0675    9.1596 H         1 07S         0.0580
     60 H27        29.4783   -3.2550    6.9275 H         1 07S         0.0545
     61 H28        27.9853   -3.1368    7.9193 H         1 07S         0.0545
@<TRIPOS>BOND
     1    1    2 ar 
     2    1    6 ar 
     3    2    3 ar 
     4    3    4 ar 
     5    4    5 ar 
     6    4    7 1  
     7    5    6 ar 
     8    7    8 1  
     9    7   11 2  
    10    8    9 1  
    11    9   10 2  
    12    9   12 1  
    13   10   11 1  
    14   12   13 1  
    15   13   14 ar 
    16   13   18 ar 
    17   14   15 ar 
    18   15   16 ar 
    19   16   17 ar 
    20   17   18 ar 
    21   17   19 1  
    22   19   20 1  
    23   19   24 1  
    24   20   21 1  
    25   21   22 1  
    26   22   23 1  
    27   22   25 1  
    28   23   24 1  
    29   25   26 1  
    30   26   27 am 
    31   26   33 2  
    32   27   28 1  
    33   27   32 1  
    34   28   29 1  
    35   29   30 1  
    36   30   31 1  
    37   31   32 1  
    38    1   34 1  
    39    2   35 1  
    40    3   36 1  
    41    5   37 1  
    42   11   38 1  
    43   12   39 1  
    44   15   40 1  
    45   16   41 1  
    46   18   42 1  
    47   20   43 1  
    48   20   44 1  
    49   21   45 1  
    50   21   46 1  
    51   22   47 1  
    52   23   48 1  
    53   23   49 1  
    54   24   50 1  
    55   24   51 1  
    56   25   52 1  
    57   25   53 1  
    58   28   54 1  
    59   28   55 1  
    60   29   56 1  
    61   29   57 1  
    62   31   58 1  
    63   31   59 1  
    64   32   60 1  
    65   32   61 1  
@<TRIPOS>SUBSTRUCTURE
     1 07S         1

