### 
### Created by X-TOOL on Mon Sep 10 21:13:09 2018
### 

@<TRIPOS>MOLECULE
3tki_ligand
   54    57     1     0     0
SMALL
GAST_HUCK


@<TRIPOS>ATOM
      1 C          23.5040   -2.7800    8.0990 C.3       1 S25         0.0525
      2 N          22.5550   -1.6670    8.0230 N.pl3     1 S25        -0.2990
      3 O          23.7560   -2.5540    5.7210 O.3       1 S25        -0.3758
      4 S          15.9950   -1.5420   10.1210 S.3       1 S25         0.0268
      5 C1         23.5330   -3.5060    6.7670 C.3       1 S25         0.0677
      6 C2         22.6500   -1.6520    5.6010 C.3       1 S25         0.0677
      7 C3         22.5820   -0.7910    6.8510 C.3       1 S25         0.0525
      8 C4         13.3620   -1.1200   10.9120 C.ar      1 S25         0.0131
      9 C5         13.3150   -2.3430   11.5720 C.ar      1 S25        -0.0216
     10 C6         12.2170   -2.5940   12.3860 C.ar      1 S25         0.0720
     11 C7         11.2350   -1.6320   12.4890 C.ar      1 S25         0.0251
     12 N8         11.2400   -0.4490   11.8520 N.ar      1 S25        -0.2967
     13 C9         12.3260   -0.2260   11.1010 C.ar      1 S25         0.0163
     14 C10        16.7370   -0.2540    9.2330 C.2       1 S25         0.2082
     15 C11        14.5080   -0.6780   10.1340 C.2       1 S25         0.0516
     16 C12        14.6770    0.5110    9.4520 C.2       1 S25        -0.0201
     17 N13        15.9260    0.7410    8.9430 N.2       1 S25        -0.3022
     18 C14        21.0320   -3.0120    9.3910 C.ar      1 S25        -0.0286
     19 C15        19.7940   -3.1500    9.9780 C.ar      1 S25        -0.0152
     20 N16        18.7930   -2.2740    9.8470 N.ar      1 S25        -0.2975
     21 C17        19.0090   -1.2020    9.0760 C.ar      1 S25         0.1267
     22 C18        20.2350   -0.9920    8.4730 C.ar      1 S25         0.0057
     23 C19        21.2750   -1.8990    8.6070 C.ar      1 S25         0.0503
     24 N20        18.0420   -0.2130    8.8430 N.pl3     1 S25        -0.2224
     25 C21        12.0230   -3.8400   13.1550 C.2       1 S25         0.2115
     26 O22        10.9660   -3.9920   13.7680 O.2       1 S25        -0.3818
     27 N23        13.0790   -4.7220   13.1570 N.am      1 S25        -0.2801
     28 C24        13.0040   -5.9670   13.8920 C.3       1 S25         0.0703
     29 C25        14.1020   -6.0830   14.9330 C.3       1 S25        -0.0148
     30 N26        14.1750   -4.8330   15.7470 N.4       1 S25         0.2200
     31 H1         23.1907   -3.4767    8.8904 H         1 S25         0.0541
     32 H2         24.5076   -2.3922    8.3280 H         1 S25         0.0541
     33 H3         22.5716   -4.0148    6.6035 H         1 S25         0.0580
     34 H4         24.3449   -4.2481    6.7692 H         1 S25         0.0580
     35 H5         21.7164   -2.2239    5.4949 H         1 S25         0.0580
     36 H6         22.7898   -1.0111    4.7180 H         1 S25         0.0580
     37 H7         23.4649   -0.1366    6.8982 H         1 S25         0.0541
     38 H8         21.6704   -0.1758    6.8276 H         1 S25         0.0541
     39 H9         14.1065   -3.0745   11.4557 H         1 S25         0.0749
     40 H10        10.3917   -1.8471   13.1353 H         1 S25         0.0825
     41 H11        12.3980    0.7332   10.6012 H         1 S25         0.0817
     42 H12        13.8635    1.2240    9.3267 H         1 S25         0.0607
     43 H13        21.8011   -3.7612    9.5405 H         1 S25         0.0520
     44 H14        19.6194   -4.0290   10.5879 H         1 S25         0.0746
     45 H15        20.3869   -0.0966    7.8811 H         1 S25         0.0516
     46 H16        18.3477    0.6247    8.3276 H         1 S25         0.2268
     47 H17        13.9085   -4.5003   12.6444 H         1 S25         0.1849
     48 H18        13.0974   -6.8032   13.1835 H         1 S25         0.0573
     49 H19        12.0287   -6.0220   14.3977 H         1 S25         0.0573
     50 H20        15.0658   -6.2446   14.4281 H         1 S25         0.0833
     51 H21        13.8871   -6.9352   15.5944 H         1 S25         0.0833
     52 H22        14.9070   -4.9219   16.4342 H         1 S25         0.1995
     53 H23        13.2936   -4.6832   16.2125 H         1 S25         0.1995
     54 H24        14.3737   -4.0503   15.1437 H         1 S25         0.1995
@<TRIPOS>BOND
     1    2    1 1  
     2    1    5 1  
     3    2    7 1  
     4   23    2 1  
     5    5    3 1  
     6    6    3 1  
     7   14    4 1  
     8    4   15 1  
     9    7    6 1  
    10    8    9 ar 
    11    8   13 ar 
    12   15    8 1  
    13    9   10 ar 
    14   10   11 ar 
    15   10   25 1  
    16   12   11 ar 
    17   13   12 ar 
    18   14   17 2  
    19   24   14 1  
    20   16   15 2  
    21   17   16 1  
    22   19   18 ar 
    23   18   23 ar 
    24   20   19 ar 
    25   21   20 ar 
    26   21   22 ar 
    27   21   24 1  
    28   22   23 ar 
    29   25   26 2  
    30   25   27 am 
    31   27   28 1  
    32   28   29 1  
    33   29   30 1  
    34    1   31 1  
    35    1   32 1  
    36    5   33 1  
    37    5   34 1  
    38    6   35 1  
    39    6   36 1  
    40    7   37 1  
    41    7   38 1  
    42    9   39 1  
    43   11   40 1  
    44   13   41 1  
    45   16   42 1  
    46   18   43 1  
    47   19   44 1  
    48   22   45 1  
    49   24   46 1  
    50   27   47 1  
    51   28   48 1  
    52   28   49 1  
    53   29   50 1  
    54   29   51 1  
    55   30   52 1  
    56   30   53 1  
    57   30   54 1  
@<TRIPOS>SUBSTRUCTURE
     1 S25         1

