### 
### Created by X-TOOL on Mon Sep 10 21:13:10 2018
### 

@<TRIPOS>MOLECULE
3tkm_ligand
   47    49     1     0     0
SMALL
GAST_HUCK


@<TRIPOS>ATOM
      1 CAA         4.8670    6.9830   29.2390 C.3       1 GW0        -0.0345
      2 CAB        10.9620    4.7300   26.7940 C.3       1 GW0        -0.0295
      3 OAC         7.0120   10.9350   24.9670 O.co2     1 GW0        -0.5663
      4 OAD         5.3840    9.6060   24.9310 O.co2     1 GW0        -0.5663
      5 FAE        12.8320    3.7960   33.9580 F         1 GW0        -0.1589
      6 FAF        11.4840    3.4920   36.1250 F         1 GW0        -0.2419
      7 FAG        10.4250    1.8530   36.1910 F         1 GW0        -0.2419
      8 FAH        12.3150    1.7620   35.7210 F         1 GW0        -0.2419
      9 CAI         7.2190    5.8440   25.9160 C.ar      1 GW0        -0.0652
     10 CAJ         9.7860    2.1920   32.1300 C.ar      1 GW0        -0.0284
     11 CAK         6.9770    7.1720   26.1770 C.ar      1 GW0        -0.0451
     12 CAL         9.9320    2.0030   33.4830 C.ar      1 GW0        -0.0378
     13 CAM         5.9410    5.2770   27.7940 C.ar      1 GW0        -0.0566
     14 CAN        11.7070    3.5050   31.9840 C.ar      1 GW0         0.0097
     15 CAO         6.6530    9.7730   26.9060 C.3       1 GW0         0.1194
     16 CAP         8.7230    2.9860   26.4070 C.3       1 GW0         0.0570
     17 NAQ        11.0100    3.9220   29.1750 N.2       1 GW0        -0.2945
     18 OAR         5.9490    8.7930   27.5210 O.3       1 GW0        -0.3121
     19 SAS         6.9190    3.1820   26.4680 S.3       1 GW0        -0.0939
     20 SAT         9.1840    2.3510   29.1170 S.3       1 GW0         0.0095
     21 CAU         6.3030   10.1300   25.4930 C.2       1 GW0         0.0648
     22 CAV         5.7100    6.5970   28.0570 C.ar      1 GW0        -0.0221
     23 CAW        10.4940    3.9240   27.9640 C.2       1 GW0         0.0226
     24 CAX         6.6960    4.8760   26.7250 C.ar      1 GW0         0.0003
     25 CAY        11.8430    3.3000   33.3200 C.ar      1 GW0         0.1632
     26 CAZ        10.6590    2.9160   31.3470 C.ar      1 GW0         0.0367
     27 CBA         6.2170    7.5460   27.2430 C.ar      1 GW0         0.0877
     28 CBB         9.4470    3.1190   27.7460 C.2       1 GW0         0.0615
     29 CBC        10.9900    2.5910   34.0770 C.ar      1 GW0         0.0660
     30 CBD        10.4050    3.1160   29.9940 C.2       1 GW0         0.1263
     31 CBE        11.3030    2.4440   35.5620 C.3       1 GW0         0.3571
     32 H1          4.5501    6.0762   29.7751 H         1 GW0         0.0367
     33 H2          3.9796    7.5330   28.8926 H         1 GW0         0.0367
     34 H3          5.4539    7.6223   29.9149 H         1 GW0         0.0367
     35 H4         10.3277    4.5129   25.9219 H         1 GW0         0.0351
     36 H5         12.0052    4.4690   26.5626 H         1 GW0         0.0351
     37 H6         10.8972    5.8009   27.0370 H         1 GW0         0.0351
     38 H7          7.8279    5.5640   25.0640 H         1 GW0         0.0480
     39 H8          8.9269    1.7416   31.6461 H         1 GW0         0.0678
     40 H9          7.3964    7.9306   25.5261 H         1 GW0         0.0505
     41 H10         9.2262    1.4061   34.0492 H         1 GW0         0.0803
     42 H11         5.5148    4.5263   28.4497 H         1 GW0         0.0475
     43 H12        12.4141    4.1210   31.4403 H         1 GW0         0.0681
     44 H13         7.7090    9.4651   26.9104 H         1 GW0         0.0779
     45 H14         6.5344   10.6849   27.5095 H         1 GW0         0.0779
     46 H15         9.1240    3.7527   25.7278 H         1 GW0         0.0608
     47 H16         8.9414    1.9869   26.0020 H         1 GW0         0.0608
@<TRIPOS>BOND
     1   22    1 1  
     2   23    2 1  
     3   21    3 ar 
     4   21    4 ar 
     5   25    5 1  
     6   31    6 1  
     7   31    7 1  
     8   31    8 1  
     9    9   11 ar 
    10   24    9 ar 
    11   12   10 ar 
    12   10   26 ar 
    13   11   27 ar 
    14   29   12 ar 
    15   13   22 ar 
    16   24   13 ar 
    17   25   14 ar 
    18   14   26 ar 
    19   18   15 1  
    20   15   21 1  
    21   16   19 1  
    22   28   16 1  
    23   17   23 1  
    24   30   17 2  
    25   27   18 1  
    26   19   24 1  
    27   20   28 1  
    28   30   20 1  
    29   22   27 ar 
    30   28   23 2  
    31   29   25 ar 
    32   26   30 1  
    33   29   31 1  
    34    1   32 1  
    35    1   33 1  
    36    1   34 1  
    37    2   35 1  
    38    2   36 1  
    39    2   37 1  
    40    9   38 1  
    41   10   39 1  
    42   11   40 1  
    43   12   41 1  
    44   13   42 1  
    45   14   43 1  
    46   15   44 1  
    47   15   45 1  
    48   16   46 1  
    49   16   47 1  
@<TRIPOS>SUBSTRUCTURE
     1 GW0         1

