### 
### Created by X-TOOL on Mon Sep 10 21:13:09 2018
### 

@<TRIPOS>MOLECULE
3tkw_ligand
   75    78     1     0     0
SMALL
GAST_HUCK


@<TRIPOS>ATOM
      1 N1        -16.8750   26.1950  -21.1310 N.pl3     1 017        -0.3369
      2 C2        -15.9990   25.5120  -20.4360 C.ar      1 017         0.0353
      3 C3        -15.5820   24.3470  -21.0680 C.ar      1 017        -0.0429
      4 C4        -14.6470   23.5180  -20.4380 C.ar      1 017        -0.0471
      5 C5        -14.1450   23.8660  -19.1950 C.ar      1 017         0.0949
      6 C6        -14.5510   25.0220  -18.5550 C.ar      1 017        -0.0471
      7 C7        -15.4810   25.8450  -19.1810 C.ar      1 017        -0.0429
      8 S8        -12.9690   22.8620  -18.3610 S.o2      1 017         0.0648
      9 O9        -11.9750   22.3610  -19.3540 O.2       1 017        -0.1518
     10 O10       -12.3610   23.6910  -17.2770 O.2       1 017        -0.1518
     11 N11       -13.7060   21.5720  -17.7020 N.am      1 017        -0.2327
     12 C12       -14.8000   21.8230  -16.7950 C.3       1 017         0.0319
     13 C13       -14.7620   20.8190  -15.6420 C.3       1 017        -0.0296
     14 C14       -13.4030   20.8610  -14.9230 C.3       1 017        -0.0612
     15 C15       -15.9180   21.0490  -14.6610 C.3       1 017        -0.0612
     16 C16       -13.9340   20.5210  -18.6830 C.3       1 017         0.0578
     17 C17       -13.1620   19.2550  -18.3170 C.3       1 017         0.0967
     18 O18       -13.6170   18.1480  -19.1090 O.3       1 017        -0.3877
     19 C19       -11.6500   19.3880  -18.5590 C.3       1 017         0.0807
     20 N20       -11.0230   18.2120  -17.9500 N.am      1 017        -0.2550
     21 C21       -10.1500   18.2790  -16.9390 C.2       1 017         0.3203
     22 O22        -9.8550   19.3480  -16.4010 O.2       1 017        -0.3775
     23 O23        -9.6010   17.1200  -16.5390 O.3       1 017        -0.2578
     24 C24        -8.5260   17.0920  -15.6360 C.3       1 017         0.1189
     25 C25        -8.7100   15.8470  -14.7530 C.3       1 017         0.0815
     26 O26        -8.2900   14.7780  -15.6160 O.3       1 017        -0.3480
     27 C27        -7.1900   15.2470  -16.3940 C.3       1 017         0.1648
     28 O28        -7.3580   14.8840  -17.7770 O.3       1 017        -0.3509
     29 C29        -7.6450   16.0470  -18.5340 C.3       1 017         0.0512
     30 C30        -7.0730   17.2360  -17.7570 C.3       1 017        -0.0191
     31 C31        -7.1770   16.7660  -16.2940 C.3       1 017         0.0449
     32 C32       -11.3390   19.4330  -20.0590 C.3       1 017         0.0064
     33 C33        -9.1180   18.4550  -20.7980 C.ar      1 017        -0.0603
     34 C34        -7.7400   18.5460  -20.9540 C.ar      1 017        -0.0686
     35 C35        -7.0640   19.6970  -20.5670 C.ar      1 017        -0.0687
     36 C36        -7.7860   20.7660  -20.0520 C.ar      1 017        -0.0686
     37 C37        -9.1640   20.6950  -19.8970 C.ar      1 017        -0.0603
     38 C38        -9.8250   19.5350  -20.2800 C.ar      1 017        -0.0408
     39 H1        -17.1854   25.8494  -22.0503 H         1 017         0.1719
     40 H2        -17.2532   27.0775  -20.7580 H         1 017         0.1719
     41 H3        -15.9780   24.0822  -22.0418 H         1 017         0.0515
     42 H4        -14.3165   22.6059  -20.9216 H         1 017         0.0602
     43 H5        -14.1513   25.2826  -17.5817 H         1 017         0.0602
     44 H6        -15.8078   26.7547  -18.6904 H         1 017         0.0515
     45 H7        -15.7525   21.7213  -17.3357 H         1 017         0.0480
     46 H8        -14.7136   22.8432  -16.3930 H         1 017         0.0480
     47 H9        -14.8836   19.8131  -16.0701 H         1 017         0.0311
     48 H10       -13.4011   20.1315  -14.0997 H         1 017         0.0233
     49 H11       -13.2328   21.8699  -14.5192 H         1 017         0.0233
     50 H12       -12.6032   20.6115  -15.6358 H         1 017         0.0233
     51 H13       -16.8733   21.0130  -15.2052 H         1 017         0.0233
     52 H14       -15.8043   22.0340  -14.1847 H         1 017         0.0233
     53 H15       -15.9058   20.2650  -13.8895 H         1 017         0.0233
     54 H16       -13.6013   20.8724  -19.6708 H         1 017         0.0504
     55 H17       -15.0087   20.2893  -18.7190 H         1 017         0.0504
     56 H18       -13.3358   19.0400  -17.2523 H         1 017         0.0634
     57 H19       -13.4796   18.3407  -20.0290 H         1 017         0.2100
     58 H20       -11.2736   20.3056  -18.0833 H         1 017         0.0604
     59 H21       -11.2609   17.3099  -18.3100 H         1 017         0.1873
     60 H22        -8.4831   18.0283  -15.0603 H         1 017         0.0675
     61 H23        -9.7617   15.7250  -14.4547 H         1 017         0.0590
     62 H24        -8.0780   15.9019  -13.8544 H         1 017         0.0590
     63 H25        -6.2490   14.8274  -16.0089 H         1 017         0.0913
     64 H26        -8.7324   16.1615  -18.6539 H         1 017         0.0561
     65 H27        -7.1718   15.9798  -19.5247 H         1 017         0.0561
     66 H28        -7.6704   18.1442  -17.9252 H         1 017         0.0293
     67 H29        -6.0271   17.4277  -18.0386 H         1 017         0.0293
     68 H30        -6.3396   17.1529  -15.6948 H         1 017         0.0380
     69 H31       -11.8319   20.3086  -20.5067 H         1 017         0.0449
     70 H32       -11.7154   18.5163  -20.5364 H         1 017         0.0449
     71 H33        -9.6392   17.5469  -21.0786 H         1 017         0.0557
     72 H34        -7.1896   17.7149  -21.3798 H         1 017         0.0599
     73 H35        -5.9863   19.7597  -20.6659 H         1 017         0.0559
     74 H36        -7.2642   21.6721  -19.7659 H         1 017         0.0599
     75 H37        -9.7153   21.5318  -19.4836 H         1 017         0.0557
@<TRIPOS>BOND
     1    2    1 1  
     2    3    2 ar 
     3    7    2 ar 
     4    4    3 ar 
     5    5    4 ar 
     6    5    6 ar 
     7    8    5 1  
     8    6    7 ar 
     9    8    9 2  
    10    8   10 2  
    11   11    8 am 
    12   11   12 1  
    13   16   11 1  
    14   12   13 1  
    15   13   14 1  
    16   13   15 1  
    17   17   16 1  
    18   17   18 1  
    19   19   17 1  
    20   19   20 1  
    21   32   19 1  
    22   20   21 am 
    23   21   22 2  
    24   21   23 1  
    25   23   24 1  
    26   24   25 1  
    27   24   31 1  
    28   25   26 1  
    29   27   26 1  
    30   27   28 1  
    31   31   27 1  
    32   29   28 1  
    33   30   29 1  
    34   31   30 1  
    35   38   32 1  
    36   33   34 ar 
    37   33   38 ar 
    38   34   35 ar 
    39   35   36 ar 
    40   36   37 ar 
    41   37   38 ar 
    42    1   39 1  
    43    1   40 1  
    44    3   41 1  
    45    4   42 1  
    46    6   43 1  
    47    7   44 1  
    48   12   45 1  
    49   12   46 1  
    50   13   47 1  
    51   14   48 1  
    52   14   49 1  
    53   14   50 1  
    54   15   51 1  
    55   15   52 1  
    56   15   53 1  
    57   16   54 1  
    58   16   55 1  
    59   17   56 1  
    60   18   57 1  
    61   19   58 1  
    62   20   59 1  
    63   24   60 1  
    64   25   61 1  
    65   25   62 1  
    66   27   63 1  
    67   29   64 1  
    68   29   65 1  
    69   30   66 1  
    70   30   67 1  
    71   31   68 1  
    72   32   69 1  
    73   32   70 1  
    74   33   71 1  
    75   34   72 1  
    76   35   73 1  
    77   36   74 1  
    78   37   75 1  
@<TRIPOS>SUBSTRUCTURE
     1 017         1

