### 
### Created by X-TOOL on Mon Sep 10 21:12:46 2018
### 

@<TRIPOS>MOLECULE
3tlh_ligand
   66    67     1     0     0
SMALL
GAST_HUCK


@<TRIPOS>ATOM
      1 C1        -10.8980   15.6660   28.1900 C.3       1 3TL         0.0745
      2 C2        -10.6990   17.0740   27.5780 C.3       1 3TL         0.0689
      3 O1        -11.6950   17.9760   28.0890 O.3       1 3TL        -0.3926
      4 C3        -12.2740   15.1240   27.7430 C.3       1 3TL         0.0061
      5 C4        -12.4980   13.6760   28.1510 C.ar      1 3TL        -0.0408
      6 C5        -13.4090   13.3590   29.1750 C.ar      1 3TL        -0.0603
      7 C6        -13.6320   12.0100   29.5310 C.ar      1 3TL        -0.0686
      8 C7        -12.8530   11.0060   28.9270 C.ar      1 3TL        -0.0687
      9 C8        -11.9990   11.3240   27.8520 C.ar      1 3TL        -0.0686
     10 C9        -11.7950   12.6610   27.4670 C.ar      1 3TL        -0.0603
     11 N1        -10.8640   15.6730   29.6610 N.am      1 3TL        -0.2778
     12 C10       -10.1580   15.1010   31.9390 C.3       1 3TL         0.1331
     13 C11       -10.0020   14.9730   30.3970 C.2       1 3TL         0.2024
     14 O2         -9.1330   14.2470   29.9260 O.2       1 3TL        -0.3945
     15 C12        -8.8090   15.3800   32.6590 C.3       1 3TL        -0.0063
     16 CG1        -8.1090   16.5860   32.0050 C.3       1 3TL        -0.0584
     17 CG2        -9.0100   15.6490   34.1650 C.3       1 3TL        -0.0584
     18 N2        -10.7810   13.8790   32.5180 N.am      1 3TL        -0.2635
     19 C19       -11.9140   13.9480   33.2250 C.2       1 3TL         0.2036
     20 O4        -12.2480   15.0360   33.6770 O.2       1 3TL        -0.3944
     21 C18       -12.6740   12.5910   33.3750 C.3       1 3TL         0.1300
     22 C20       -14.1920   12.7440   33.5010 C.3       1 3TL        -0.0244
     23 N4        -12.2180   11.8320   34.5640 N.am      1 3TL        -0.2413
     24 C31       -12.4200   12.1700   35.8190 C.2       1 3TL         0.3239
     25 O8        -13.2290   13.0360   36.1140 O.2       1 3TL        -0.3773
     26 O9        -11.6970   11.4700   36.7340 O.3       1 3TL        -0.2506
     27 CA        -12.4270   11.2850   37.9560 C.3       1 3TL         0.1113
     28 C         -12.8110    9.8050   37.9640 C.ar      1 3TL        -0.0130
     29 C13       -11.9130    8.8230   38.4190 C.ar      1 3TL        -0.0578
     30 C14       -12.2810    7.4590   38.4450 C.ar      1 3TL        -0.0685
     31 C15       -13.5420    7.0720   37.9440 C.ar      1 3TL        -0.0687
     32 C16       -14.4580    8.0550   37.5130 C.ar      1 3TL        -0.0685
     33 C17       -14.0920    9.4160   37.5090 C.ar      1 3TL        -0.0578
     34 H1        -10.1012   15.0041   27.8198 H         1 3TL         0.0601
     35 H2        -10.7905   17.0121   26.4836 H         1 3TL         0.0582
     36 H3         -9.6988   17.4481   27.8418 H         1 3TL         0.0582
     37 H4        -11.5658   18.8370   27.7088 H         1 3TL         0.2095
     38 H5        -12.3405   15.1947   26.6473 H         1 3TL         0.0449
     39 H6        -13.0606   15.7432   28.1988 H         1 3TL         0.0449
     40 H7        -13.9403   14.1503   29.6913 H         1 3TL         0.0557
     41 H8        -14.3925   11.7522   30.2592 H         1 3TL         0.0599
     42 H9        -12.9098    9.9859   29.2892 H         1 3TL         0.0559
     43 H10       -11.4936   10.5289   27.3158 H         1 3TL         0.0599
     44 H11       -11.1122   12.9070   26.6618 H         1 3TL         0.0557
     45 H12       -11.5328   16.2413   30.1404 H         1 3TL         0.1857
     46 H13       -10.8266   15.9524   32.1341 H         1 3TL         0.0802
     47 H14        -8.1665   14.4941   32.5474 H         1 3TL         0.0343
     48 H15        -7.1553   16.7790   32.5181 H         1 3TL         0.0234
     49 H16        -8.7547   17.4729   32.0857 H         1 3TL         0.0234
     50 H17        -7.9169   16.3675   30.9442 H         1 3TL         0.0234
     51 H18        -9.5100   14.7856   34.6281 H         1 3TL         0.0234
     52 H19        -9.6314   16.5470   34.2974 H         1 3TL         0.0234
     53 H20        -8.0319   15.8061   34.6432 H         1 3TL         0.0234
     54 H21       -10.3444   12.9907   32.3756 H         1 3TL         0.1883
     55 H22       -12.4612   11.9958   32.4748 H         1 3TL         0.0796
     56 H23       -14.6535   11.7506   33.6023 H         1 3TL         0.0277
     57 H24       -14.5862   13.2415   32.6026 H         1 3TL         0.0277
     58 H25       -14.4271   13.3497   34.3886 H         1 3TL         0.0277
     59 H26       -11.7109   10.9865   34.3968 H         1 3TL         0.1899
     60 H27       -13.3263   11.9183   37.9694 H         1 3TL         0.0776
     61 H28       -11.7959   11.5258   38.8242 H         1 3TL         0.0776
     62 H29       -10.9249    9.1165   38.7544 H         1 3TL         0.0557
     63 H30       -11.6006    6.7166   38.8462 H         1 3TL         0.0599
     64 H31       -13.8064    6.0221   37.8903 H         1 3TL         0.0559
     65 H32       -15.4482    7.7619   37.1833 H         1 3TL         0.0599
     66 H33       -14.7926   10.1646   37.1571 H         1 3TL         0.0557
@<TRIPOS>BOND
     1    1    2 1  
     2    1    4 1  
     3    1   11 1  
     4    2    3 1  
     5    4    5 1  
     6    5    6 ar 
     7    5   10 ar 
     8    6    7 ar 
     9    7    8 ar 
    10    8    9 ar 
    11    9   10 ar 
    12   11   13 am 
    13   13   12 1  
    14   12   15 1  
    15   12   18 1  
    16   13   14 2  
    17   15   16 1  
    18   15   17 1  
    19   18   19 am 
    20   19   20 2  
    21   19   21 1  
    22   21   22 1  
    23   21   23 1  
    24   23   24 am 
    25   24   25 2  
    26   24   26 1  
    27   26   27 1  
    28   27   28 1  
    29   28   29 ar 
    30   28   33 ar 
    31   29   30 ar 
    32   30   31 ar 
    33   31   32 ar 
    34   32   33 ar 
    35    1   34 1  
    36    2   35 1  
    37    2   36 1  
    38    3   37 1  
    39    4   38 1  
    40    4   39 1  
    41    6   40 1  
    42    7   41 1  
    43    8   42 1  
    44    9   43 1  
    45   10   44 1  
    46   11   45 1  
    47   12   46 1  
    48   15   47 1  
    49   16   48 1  
    50   16   49 1  
    51   16   50 1  
    52   17   51 1  
    53   17   52 1  
    54   17   53 1  
    55   18   54 1  
    56   21   55 1  
    57   22   56 1  
    58   22   57 1  
    59   22   58 1  
    60   23   59 1  
    61   27   60 1  
    62   27   61 1  
    63   29   62 1  
    64   30   63 1  
    65   31   64 1  
    66   32   65 1  
    67   33   66 1  
@<TRIPOS>SUBSTRUCTURE
     1 3TL         1

