### 
### Created by X-TOOL on Mon Sep 10 21:13:08 2018
### 

@<TRIPOS>MOLECULE
3tll_ligand
   34    36     1     0     0
SMALL
GAST_HUCK


@<TRIPOS>ATOM
      1 N1         17.5470   17.5420   17.3130 N.pl3     1 62D        -0.1846
      2 N3         19.5340   18.1670   17.9430 N.2       1 62D        -0.1918
      3 C4         18.8410   18.0110   16.8850 C.2       1 62D         0.2965
      4 C5         18.2510   17.9700   14.5420 C.3       1 62D         0.0372
      5 C6         18.8250   17.8400   19.1360 C.ar      1 62D         0.1175
      6 C7         19.1840   17.8660   20.4440 C.ar      1 62D         0.0129
      7 C8         18.1170   17.4510   21.4030 C.ar      1 62D         0.1178
      8 C10        16.0980   16.6700   23.1160 C.cat     1 62D         0.1898
      9 C1         16.8010   17.0430   20.8620 C.ar      1 62D         0.1328
     10 C2         16.4930   17.0070   19.5400 C.ar      1 62D         0.0491
     11 C3         17.5260   17.4310   18.6210 C.ar      1 62D         0.1433
     12 N2         19.1530   18.2310   15.6410 N.pl3     1 62D        -0.2425
     13 C9         18.2580   17.4530   22.7500 C.2       1 62D         0.2089
     14 O1         19.3710   17.8760   23.3190 O.2       1 62D        -0.3882
     15 N4         17.2680   17.1280   23.5770 N.am      1 62D        -0.2584
     16 N5         15.1750   16.3130   23.9690 N.pl3     1 62D        -0.3234
     17 C11        13.8360   15.8110   23.6820 C.3       1 62D         0.0207
     18 N6         15.8430   16.6250   21.8390 N.pl3     1 62D        -0.2479
     19 C12        13.8340   14.2760   23.8680 C.3       1 62D        -0.0443
     20 H          16.7655   17.3286   16.6932 H         1 62D         0.2433
     21 H          17.9887   16.9121   14.5323 H         1 62D         0.0533
     22 H          17.3482   18.5684   14.6646 H         1 62D         0.0533
     23 H          18.7383   18.2334   13.6033 H         1 62D         0.0533
     24 H          20.1789   18.1679   20.7712 H         1 62D         0.0890
     25 H          15.5159   16.6751   19.1890 H         1 62D         0.0743
     26 H          20.0783   18.6055   15.4313 H         1 62D         0.2168
     27 H          17.4034   17.2299   24.5828 H         1 62D         0.1811
     28 H          15.4207   16.3954   24.9555 H         1 62D         0.1790
     29 H          13.5575   16.0611   22.6583 H         1 62D         0.0527
     30 H          13.1152   16.2679   24.3601 H         1 62D         0.0527
     31 H          14.9345   16.2820   21.5270 H         1 62D         0.2306
     32 H          14.5537   13.8274   23.1833 H         1 62D         0.0250
     33 H          14.1089   14.0354   24.8950 H         1 62D         0.0250
     34 H          12.8380   13.8870   23.6564 H         1 62D         0.0250
@<TRIPOS>BOND
     1    1    3 1  
     2   11    1 1  
     3    2    3 2  
     4    5    2 1  
     5    3   12 1  
     6   12    4 1  
     7    6    5 ar 
     8    5   11 ar 
     9    7    6 ar 
    10    9    7 ar 
    11    7   13 1  
    12    8   15 ar 
    13    8   16 ar 
    14   18    8 ar 
    15    9   10 ar 
    16    9   18 1  
    17   10   11 ar 
    18   13   14 2  
    19   13   15 am 
    20   16   17 1  
    21   17   19 1  
    22    1   20 1  
    23    4   21 1  
    24    4   22 1  
    25    4   23 1  
    26    6   24 1  
    27   10   25 1  
    28   12   26 1  
    29   15   27 1  
    30   16   28 1  
    31   17   29 1  
    32   17   30 1  
    33   18   31 1  
    34   19   32 1  
    35   19   33 1  
    36   19   34 1  
@<TRIPOS>SUBSTRUCTURE
     1 62D         1

