### 
### Created by X-TOOL on Mon Sep 10 21:13:09 2018
### 

@<TRIPOS>MOLECULE
3tn8_ligand
   26    27     1     0     0
SMALL
GAST_HUCK


@<TRIPOS>ATOM
      1 C3         47.4620  -14.9800  -13.2600 C.ar      1 F18         0.0897
      2 C6         47.9050  -13.6720  -13.0960 C.ar      1 F18        -0.0304
      3 C2         49.2430  -13.3680  -13.2230 C.ar      1 F18        -0.0482
      4 O3         46.1400  -15.2670  -13.1260 O.3       1 F18        -0.3317
      5 C5         50.1510  -14.3890  -13.5140 C.ar      1 F18         0.0436
      6 C4         49.7020  -15.7030  -13.6730 C.ar      1 F18        -0.0482
      7 C1         48.3630  -15.9950  -13.5480 C.ar      1 F18        -0.0304
      8 N9         51.4830  -14.1110  -13.6370 N.2       1 F18        -0.2227
      9 N13        52.3450  -15.0700  -13.5740 N.2       1 F18        -0.2166
     10 C14        53.6620  -14.8120  -13.7830 C.2       1 F18         0.1379
     11 C19        54.6660  -15.7650  -13.9190 C.2       1 F18         0.1927
     12 N16        54.5010  -17.1370  -13.8550 N.pl3     1 F18        -0.2973
     13 N20        55.8250  -15.1030  -14.1190 N.pl3     1 F18        -0.2074
     14 N17        55.5620  -13.7280  -14.1090 N.2       1 F18        -0.2348
     15 C15        54.2840  -13.5380  -13.9100 C.2       1 F18         0.1006
     16 N18        53.6600  -12.2940  -13.8350 N.pl3     1 F18        -0.3355
     17 H          47.1896  -12.8826  -12.8656 H         1 F18         0.0550
     18 H          49.5892  -12.3420  -13.0978 H         1 F18         0.0607
     19 H          45.6378  -14.7664  -13.7732 H         1 F18         0.2492
     20 H          50.4136  -16.4978  -13.8964 H         1 F18         0.0607
     21 H          48.0119  -17.0191  -13.6747 H         1 F18         0.0550
     22 H          53.5745  -17.5323  -13.6948 H         1 F18         0.1862
     23 H          55.3059  -17.7533  -13.9680 H         1 F18         0.1862
     24 H          56.7400  -15.5328  -14.2548 H         1 F18         0.2458
     25 H          54.2093  -11.4408  -13.9385 H         1 F18         0.1699
     26 H          52.6540  -12.2368  -13.6766 H         1 F18         0.1699
@<TRIPOS>BOND
     1    1    2 ar 
     2    1    4 1  
     3    1    7 ar 
     4    2    3 ar 
     5    3    5 ar 
     6    5    6 ar 
     7    5    8 1  
     8    6    7 ar 
     9    8    9 2  
    10    9   10 1  
    11   10   11 2  
    12   10   15 1  
    13   11   12 1  
    14   11   13 1  
    15   13   14 1  
    16   14   15 2  
    17   15   16 1  
    18    2   17 1  
    19    3   18 1  
    20    4   19 1  
    21    6   20 1  
    22    7   21 1  
    23   12   22 1  
    24   12   23 1  
    25   13   24 1  
    26   16   25 1  
    27   16   26 1  
@<TRIPOS>SUBSTRUCTURE
     1 F18         1

