### 
### Created by X-TOOL on Mon Sep 10 21:13:12 2018
### 

@<TRIPOS>MOLECULE
3tne_ligand
   98   101     1     0     0
SMALL
GAST_HUCK


@<TRIPOS>ATOM
      1 C1          2.8150  -26.1570  -28.0330 C.2       1 RIT        -0.0174
      2 C2          3.9470  -26.5360  -27.3180 C.2       1 RIT         0.0612
      3 S3          3.7290  -28.1040  -26.6090 S.3       1 RIT        -0.0006
      4 C4          2.1510  -28.2710  -27.2870 C.2       1 RIT         0.0672
      5 N5          1.8480  -27.1420  -27.9920 N.2       1 RIT        -0.3288
      6 C6          5.2470  -25.8690  -27.0090 C.3       1 RIT         0.1243
      7 O7          4.9610  -24.5250  -26.6730 O.3       1 RIT        -0.2484
      8 C10         5.6960  -23.4980  -27.3990 C.2       1 RIT         0.3223
      9 O24         6.6360  -23.8230  -28.1240 O.2       1 RIT        -0.3774
     10 N11         5.3590  -22.2280  -27.2570 N.am      1 RIT        -0.2549
     11 C12         6.1910  -21.2110  -27.8800 C.3       1 RIT         0.0793
     12 C13         6.2250  -20.0070  -26.9340 C.3       1 RIT         0.0821
     13 C14         6.6640  -20.3200  -25.4850 C.3       1 RIT         0.0004
     14 C15         8.1730  -20.3470  -25.2060 C.3       1 RIT         0.0540
     15 C26         5.7150  -20.9260  -29.3210 C.3       1 RIT         0.0064
     16 C28         5.8430  -22.1550  -30.2150 C.ar      1 RIT        -0.0408
     17 C31         6.9970  -22.3510  -30.9960 C.ar      1 RIT        -0.0603
     18 C32         7.1340  -23.4790  -31.8300 C.ar      1 RIT        -0.0686
     19 C33         6.1260  -24.4420  -31.8900 C.ar      1 RIT        -0.0687
     20 C34         4.9740  -24.2600  -31.1200 C.ar      1 RIT        -0.0686
     21 C35         4.8280  -23.1210  -30.2890 C.ar      1 RIT        -0.0603
     22 O41         4.9160  -19.4520  -26.8900 O.3       1 RIT        -0.3893
     23 C44         8.4980  -19.5050  -23.9590 C.3       1 RIT         0.0040
     24 C45         9.8610  -19.7440  -23.3170 C.ar      1 RIT        -0.0408
     25 C48        10.1350  -18.9940  -22.1740 C.ar      1 RIT        -0.0603
     26 C49        11.3340  -19.1330  -21.4580 C.ar      1 RIT        -0.0686
     27 C50        12.2850  -20.0550  -21.8890 C.ar      1 RIT        -0.0687
     28 C51        12.0250  -20.8220  -23.0350 C.ar      1 RIT        -0.0686
     29 C52        10.8220  -20.6790  -23.7460 C.ar      1 RIT        -0.0603
     30 N58         8.9460  -19.7340  -26.2510 N.am      1 RIT        -0.2800
     31 N20        11.7110  -18.9270  -27.3250 N.am      1 RIT        -0.2514
     32 C19        10.4480  -19.2890  -27.9360 C.3       1 RIT         0.1335
     33 C18         9.7760  -20.3210  -27.0970 C.2       1 RIT         0.2020
     34 O61        10.0290  -21.5200  -27.2180 O.2       1 RIT        -0.3945
     35 C62        10.7130  -19.8110  -29.3620 C.3       1 RIT        -0.0065
     36 C64         9.4270  -19.9800  -30.1530 C.3       1 RIT        -0.0585
     37 C68        11.7070  -18.9330  -30.1190 C.3       1 RIT        -0.0585
     38 C21        12.1610  -17.7030  -27.4110 C.2       1 RIT         0.2635
     39 N74        13.4640  -17.4990  -27.5110 N.am      1 RIT        -0.2534
     40 C75        14.0710  -16.2830  -26.9960 C.3       1 RIT         0.0647
     41 O76        11.4060  -16.7770  -27.5530 O.2       1 RIT        -0.4004
     42 C77        14.0030  -16.3670  -25.5060 C.2       1 RIT         0.0075
     43 C80        12.8330  -16.6210  -24.7810 C.2       1 RIT        -0.0033
     44 S81        13.1900  -16.6510  -23.0900 S.3       1 RIT        -0.0199
     45 C82        14.8830  -16.3350  -23.3860 C.2       1 RIT         0.0910
     46 N83        15.1200  -16.2200  -24.7250 N.2       1 RIT        -0.3157
     47 C85        15.7900  -16.2480  -22.2110 C.3       1 RIT         0.0236
     48 C86        15.0210  -15.8990  -20.9300 C.3       1 RIT        -0.0458
     49 C90        16.9160  -15.2470  -22.5190 C.3       1 RIT        -0.0458
     50 C95        14.3970  -18.4060  -28.1880 C.3       1 RIT         0.0248
     51 H           2.7060  -25.2082  -28.5562 H         1 RIT         0.0425
     52 H           1.5015  -29.1374  -27.1711 H         1 RIT         0.1080
     53 H           5.9068  -25.9049  -27.8884 H         1 RIT         0.0803
     54 H           5.7366  -26.3726  -26.1624 H         1 RIT         0.0803
     55 H           4.5478  -21.9715  -26.7315 H         1 RIT         0.1873
     56 H           7.2176  -21.5987  -27.9559 H         1 RIT         0.0604
     57 H           6.9244  -19.2663  -27.3489 H         1 RIT         0.0619
     58 H           6.2599  -21.3086  -25.2218 H         1 RIT         0.0315
     59 H           6.2190  -19.5559  -24.8307 H         1 RIT         0.0315
     60 H           8.4904  -21.3905  -25.0634 H         1 RIT         0.0579
     61 H           6.3252  -20.1139  -29.7432 H         1 RIT         0.0449
     62 H           4.6602  -20.6153  -29.2924 H         1 RIT         0.0449
     63 H           7.7964  -21.6200  -30.9554 H         1 RIT         0.0557
     64 H           8.0292  -23.5993  -32.4293 H         1 RIT         0.0599
     65 H           6.2345  -25.3156  -32.5225 H         1 RIT         0.0559
     66 H           4.1821  -24.9992  -31.1587 H         1 RIT         0.0599
     67 H           3.9235  -22.9950  -29.7050 H         1 RIT         0.0557
     68 H           4.6280  -19.2525  -27.7730 H         1 RIT         0.2099
     69 H           7.7292  -19.7177  -23.2016 H         1 RIT         0.0448
     70 H           8.4451  -18.4449  -24.2476 H         1 RIT         0.0448
     71 H           9.3973  -18.2797  -21.8268 H         1 RIT         0.0557
     72 H          11.5184  -18.5283  -20.5774 H         1 RIT         0.0599
     73 H          13.2148  -20.1786  -21.3456 H         1 RIT         0.0559
     74 H          12.7647  -21.5367  -23.3772 H         1 RIT         0.0599
     75 H          10.6340  -21.2874  -24.6233 H         1 RIT         0.0557
     76 H           8.8440  -18.7442  -26.3505 H         1 RIT         0.1856
     77 H          12.2417  -19.6181  -26.8344 H         1 RIT         0.1877
     78 H           9.8021  -18.4005  -27.9945 H         1 RIT         0.0799
     79 H          11.1682  -20.8073  -29.2615 H         1 RIT         0.0342
     80 H           9.6627  -20.3529  -31.1607 H         1 RIT         0.0234
     81 H           8.9147  -19.0098  -30.2317 H         1 RIT         0.0234
     82 H           8.7725  -20.6997  -29.6395 H         1 RIT         0.0234
     83 H          12.6275  -18.8265  -29.5263 H         1 RIT         0.0234
     84 H          11.2639  -17.9407  -30.2896 H         1 RIT         0.0234
     85 H          11.9456  -19.3993  -31.0863 H         1 RIT         0.0234
     86 H          13.5162  -15.4023  -27.3517 H         1 RIT         0.0654
     87 H          15.1186  -16.2137  -27.3243 H         1 RIT         0.0654
     88 H          11.8470  -16.7762  -25.2164 H         1 RIT         0.0503
     89 H          16.2490  -17.2361  -22.0597 H         1 RIT         0.0551
     90 H          15.7227  -15.8435  -20.0847 H         1 RIT         0.0263
     91 H          14.2681  -16.6759  -20.7311 H         1 RIT         0.0263
     92 H          14.5209  -14.9274  -21.0557 H         1 RIT         0.0263
     93 H          17.4301  -15.5467  -23.4442 H         1 RIT         0.0263
     94 H          17.6352  -15.2367  -21.6868 H         1 RIT         0.0263
     95 H          16.4882  -14.2417  -22.6465 H         1 RIT         0.0263
     96 H          13.8530  -19.2938  -28.5427 H         1 RIT         0.0485
     97 H          15.1838  -18.7151  -27.4841 H         1 RIT         0.0485
     98 H          14.8539  -17.8894  -29.0449 H         1 RIT         0.0485
@<TRIPOS>BOND
     1    2    1 2  
     2    1    5 1  
     3    2    3 1  
     4    6    2 1  
     5    3    4 1  
     6    4    5 2  
     7    7    6 1  
     8    8    7 1  
     9    8    9 2  
    10   10    8 am 
    11   11   10 1  
    12   12   11 1  
    13   11   15 1  
    14   13   12 1  
    15   12   22 1  
    16   14   13 1  
    17   14   23 1  
    18   30   14 1  
    19   15   16 1  
    20   16   17 ar 
    21   16   21 ar 
    22   17   18 ar 
    23   18   19 ar 
    24   20   19 ar 
    25   21   20 ar 
    26   23   24 1  
    27   24   25 ar 
    28   24   29 ar 
    29   25   26 ar 
    30   26   27 ar 
    31   28   27 ar 
    32   29   28 ar 
    33   33   30 am 
    34   32   31 1  
    35   31   38 am 
    36   32   33 1  
    37   32   35 1  
    38   33   34 2  
    39   35   36 1  
    40   35   37 1  
    41   38   39 am 
    42   38   41 2  
    43   39   40 1  
    44   39   50 1  
    45   40   42 1  
    46   42   43 2  
    47   42   46 1  
    48   43   44 1  
    49   44   45 1  
    50   45   46 2  
    51   45   47 1  
    52   47   48 1  
    53   47   49 1  
    54    1   51 1  
    55    4   52 1  
    56    6   53 1  
    57    6   54 1  
    58   10   55 1  
    59   11   56 1  
    60   12   57 1  
    61   13   58 1  
    62   13   59 1  
    63   14   60 1  
    64   15   61 1  
    65   15   62 1  
    66   17   63 1  
    67   18   64 1  
    68   19   65 1  
    69   20   66 1  
    70   21   67 1  
    71   22   68 1  
    72   23   69 1  
    73   23   70 1  
    74   25   71 1  
    75   26   72 1  
    76   27   73 1  
    77   28   74 1  
    78   29   75 1  
    79   30   76 1  
    80   31   77 1  
    81   32   78 1  
    82   35   79 1  
    83   36   80 1  
    84   36   81 1  
    85   36   82 1  
    86   37   83 1  
    87   37   84 1  
    88   37   85 1  
    89   40   86 1  
    90   40   87 1  
    91   43   88 1  
    92   47   89 1  
    93   48   90 1  
    94   48   91 1  
    95   48   92 1  
    96   49   93 1  
    97   49   94 1  
    98   49   95 1  
    99   50   96 1  
   100   50   97 1  
   101   50   98 1  
@<TRIPOS>SUBSTRUCTURE
     1 RIT         1

