### 
### Created by X-TOOL on Mon Sep 10 21:13:09 2018
### 

@<TRIPOS>MOLECULE
3tnh_ligand
   26    27     1     0     0
SMALL
GAST_HUCK


@<TRIPOS>ATOM
      1 C3         47.5240  -15.2590  -12.2740 C.ar      1 F18         0.0897
      2 C6         47.9870  -13.9670  -12.0620 C.ar      1 F18        -0.0304
      3 C2         49.3310  -13.6780  -12.1500 C.ar      1 F18        -0.0482
      4 O3         46.2000  -15.4960  -12.1810 O.3       1 F18        -0.3317
      5 C5         50.2240  -14.7040  -12.4550 C.ar      1 F18         0.0436
      6 C4         49.7450  -16.0080  -12.6630 C.ar      1 F18        -0.0482
      7 C1         48.3950  -16.2960  -12.5750 C.ar      1 F18        -0.0304
      8 N9         51.5560  -14.4120  -12.5630 N.2       1 F18        -0.2227
      9 N13        52.4580  -15.3410  -12.6420 N.2       1 F18        -0.2166
     10 C14        53.7680  -14.9780  -12.7450 C.2       1 F18         0.1379
     11 C19        54.8790  -15.8000  -12.7020 C.2       1 F18         0.1927
     12 N16        54.8350  -17.1690  -12.5500 N.pl3     1 F18        -0.2973
     13 N20        55.9770  -15.0270  -12.8440 N.pl3     1 F18        -0.2074
     14 N17        55.5600  -13.7080  -12.9790 N.2       1 F18        -0.2348
     15 C15        54.2530  -13.6670  -12.9240 C.2       1 F18         0.1006
     16 N18        53.4330  -12.5480  -13.0420 N.pl3     1 F18        -0.3355
     17 H1         47.2832  -13.1774  -11.8247 H         1 F18         0.0550
     18 H2         49.6887  -12.6682  -11.9846 H         1 F18         0.0607
     19 H3         45.7389  -14.9664  -12.8208 H         1 F18         0.2492
     20 H4         50.4451  -16.8020  -12.8964 H         1 F18         0.0607
     21 H5         48.0281  -17.3031  -12.7366 H         1 F18         0.0550
     22 H6         55.7093  -17.7130  -12.5274 H         1 F18         0.1862
     23 H7         53.9278  -17.6482  -12.4590 H         1 F18         0.1862
     24 H8         56.9527  -15.3570  -12.8510 H         1 F18         0.2458
     25 H9         53.8501  -11.6152  -13.1714 H         1 F18         0.1699
     26 H10        52.4092  -12.6530  -12.9999 H         1 F18         0.1699
@<TRIPOS>BOND
     1    1    2 ar 
     2    1    4 1  
     3    1    7 ar 
     4    2    3 ar 
     5    3    5 ar 
     6    5    6 ar 
     7    5    8 1  
     8    6    7 ar 
     9    8    9 2  
    10    9   10 1  
    11   10   11 2  
    12   10   15 1  
    13   11   12 1  
    14   11   13 1  
    15   13   14 1  
    16   14   15 2  
    17   15   16 1  
    18    2   17 1  
    19    3   18 1  
    20    4   19 1  
    21    6   20 1  
    22    7   21 1  
    23   12   22 1  
    24   12   23 1  
    25   13   24 1  
    26   16   25 1  
    27   16   26 1  
@<TRIPOS>SUBSTRUCTURE
     1 F18         1

