### 
### Created by X-TOOL on Mon Sep 10 21:13:05 2018
### 

@<TRIPOS>MOLECULE
3tpp_ligand
   80    83     1     0     0
SMALL
GAST_HUCK


@<TRIPOS>ATOM
      1 C1         26.3450   36.1600    2.4520 C.3       1 5HA        -0.0046
      2 C2         27.6890   35.5430    2.2710 C.3       1 5HA        -0.0222
      3 C3         26.7370   34.7200    3.0660 C.3       1 5HA        -0.0046
      4 N1         28.7400   36.1130    3.0810 N.4       1 5HA         0.2311
      5 C4         29.4950   37.0920    2.2420 C.3       1 5HA        -0.0044
      6 C5         30.8220   37.4050    2.9060 C.3       1 5HA         0.1192
      7 C6         31.5150   38.3460    1.9300 C.3       1 5HA         0.0818
      8 N2         31.0010   39.7030    1.7940 N.am      1 5HA        -0.2786
      9 C7         30.1900   40.0840    0.7690 C.2       1 5HA         0.2025
     10 O2         29.9240   39.3110   -0.1310 O.2       1 5HA        -0.3847
     11 O3         31.5100   36.1420    3.0210 O.3       1 5HA        -0.3840
     12 C8         33.0390   38.5410    2.3710 C.3       1 5HA         0.0065
     13 C9         29.7870   41.5160    0.8260 C.ar      1 5HA         0.0397
     14 C10        30.7350   42.4270    1.3270 C.ar      1 5HA        -0.0393
     15 C11        30.3550   43.7710    1.4300 C.ar      1 5HA         0.0398
     16 C12        29.0860   44.2090    0.9470 C.ar      1 5HA        -0.0214
     17 C13        28.1500   43.2680    0.5480 C.ar      1 5HA         0.0754
     18 C14        28.4700   41.9470    0.4230 C.ar      1 5HA        -0.0214
     19 C15        31.3150   44.8100    1.9260 C.2       1 5HA         0.2041
     20 N3         26.8170   43.5970    0.1170 N.am      1 5HA        -0.1796
     21 O4         31.4640   45.9420    1.4200 O.2       1 5HA        -0.3845
     22 C16        26.1550   42.8100   -0.9810 C.3       1 5HA         0.0445
     23 S1         25.9860   44.7960    0.7960 S.o2      1 5HA         0.0593
     24 C23        26.3030   46.2370   -0.1690 C.3       1 5HA         0.0790
     25 O5         24.5950   44.4440    0.7080 O.2       1 5HA        -0.1500
     26 O6         26.5450   45.0600    2.1220 O.2       1 5HA        -0.1500
     27 C24        33.5910   39.7890    0.2230 C.ar      1 5HA        -0.0603
     28 C25        34.2860   40.7690   -0.4490 C.ar      1 5HA        -0.0686
     29 C26        35.1450   41.6850    0.2020 C.ar      1 5HA        -0.0687
     30 C27        35.3230   41.5390    1.5960 C.ar      1 5HA        -0.0686
     31 C28        34.5870   40.5130    2.2660 C.ar      1 5HA        -0.0603
     32 C29        33.7960   39.6420    1.5800 C.ar      1 5HA        -0.0408
     33 N4         32.0780   44.3060    2.9780 N.am      1 5HA        -0.2723
     34 C17        33.0830   45.1870    3.5950 C.3       1 5HA         0.0723
     35 C18        34.4230   44.4130    3.7510 C.3       1 5HA        -0.0320
     36 C30        32.6190   45.5730    4.9960 C.ar      1 5HA        -0.0183
     37 C31        32.1930   44.5870    5.9230 C.ar      1 5HA        -0.0582
     38 C32        31.7960   45.0120    7.2010 C.ar      1 5HA        -0.0685
     39 C33        31.6650   46.3500    7.5640 C.ar      1 5HA        -0.0687
     40 C34        32.0410   47.2890    6.6000 C.ar      1 5HA        -0.0685
     41 C35        32.4990   46.8990    5.3430 C.ar      1 5HA        -0.0582
     42 H          25.5559   36.6407    1.8737 H         1 5HA         0.0322
     43 H          25.8860   37.1033    2.7480 H         1 5HA         0.0322
     44 H          28.2861   35.3553    1.3786 H         1 5HA         0.0850
     45 H          26.3555   33.7007    3.1267 H         1 5HA         0.0322
     46 H          26.6861   34.1640    4.0021 H         1 5HA         0.0322
     47 H          29.3655   35.3786    3.4123 H         1 5HA         0.2017
     48 H          28.3414   36.5817    3.8945 H         1 5HA         0.2017
     49 H          28.9138   38.0084    2.1395 H         1 5HA         0.0840
     50 H          29.6732   36.6648    1.2552 H         1 5HA         0.0840
     51 H          30.7657   37.8633    3.8934 H         1 5HA         0.0672
     52 H          31.3467   37.8430    0.9778 H         1 5HA         0.0606
     53 H          31.2597   40.3962    2.4961 H         1 5HA         0.1851
     54 H          32.4047   36.2936    3.3343 H         1 5HA         0.2101
     55 H          33.5517   37.5983    2.1799 H         1 5HA         0.0449
     56 H          33.0341   38.8438    3.4181 H         1 5HA         0.0449
     57 H          31.7307   42.0981    1.6246 H         1 5HA         0.0576
     58 H          28.8550   45.2728    0.8924 H         1 5HA         0.0566
     59 H          27.7470   41.2336    0.0276 H         1 5HA         0.0566
     60 H          26.7492   42.8883   -1.8915 H         1 5HA         0.0517
     61 H          26.0809   41.7642   -0.6828 H         1 5HA         0.0517
     62 H          25.1569   43.2092   -1.1615 H         1 5HA         0.0517
     63 H          26.0468   46.0393   -1.2099 H         1 5HA         0.0487
     64 H          25.6982   47.0633    0.2047 H         1 5HA         0.0487
     65 H          27.3592   46.4962   -0.0964 H         1 5HA         0.0487
     66 H          32.8921   39.1414   -0.3065 H         1 5HA         0.0557
     67 H          34.1692   40.8423   -1.5302 H         1 5HA         0.0599
     68 H          35.6516   42.4753   -0.3520 H         1 5HA         0.0559
     69 H          36.0026   42.1906    2.1452 H         1 5HA         0.0599
     70 H          34.6605   40.4258    3.3500 H         1 5HA         0.0557
     71 H          31.9435   43.3515    3.3116 H         1 5HA         0.1875
     72 H          33.2141   46.0688    2.9679 H         1 5HA         0.0716
     73 H          34.2653   43.5402    4.3846 H         1 5HA         0.0274
     74 H          34.7725   44.0927    2.7695 H         1 5HA         0.0274
     75 H          35.1670   45.0656    4.2079 H         1 5HA         0.0274
     76 H          32.1745   43.5316    5.6513 H         1 5HA         0.0557
     77 H          31.5781   44.2518    7.9512 H         1 5HA         0.0599
     78 H          31.2908   46.6476    8.5435 H         1 5HA         0.0559
     79 H          31.9745   48.3509    6.8366 H         1 5HA         0.0599
     80 H          32.7693   47.6645    4.6156 H         1 5HA         0.0557
@<TRIPOS>BOND
     1    2    1 1  
     2    3    1 1  
     3    2    3 1  
     4    4    2 1  
     5    5    4 1  
     6    6    5 1  
     7    7    6 1  
     8    6   11 1  
     9    7    8 1  
    10   12    7 1  
    11    8    9 am 
    12    9   10 2  
    13    9   13 1  
    14   32   12 1  
    15   13   14 ar 
    16   13   18 ar 
    17   14   15 ar 
    18   15   16 ar 
    19   15   19 1  
    20   17   16 ar 
    21   18   17 ar 
    22   17   20 1  
    23   19   21 2  
    24   19   33 am 
    25   20   22 1  
    26   20   23 am 
    27   23   24 1  
    28   23   25 2  
    29   23   26 2  
    30   27   28 ar 
    31   27   32 ar 
    32   28   29 ar 
    33   29   30 ar 
    34   30   31 ar 
    35   31   32 ar 
    36   33   34 1  
    37   34   35 1  
    38   34   36 1  
    39   36   37 ar 
    40   36   41 ar 
    41   37   38 ar 
    42   38   39 ar 
    43   39   40 ar 
    44   40   41 ar 
    45    1   42 1  
    46    1   43 1  
    47    2   44 1  
    48    3   45 1  
    49    3   46 1  
    50    4   47 1  
    51    4   48 1  
    52    5   49 1  
    53    5   50 1  
    54    6   51 1  
    55    7   52 1  
    56    8   53 1  
    57   11   54 1  
    58   12   55 1  
    59   12   56 1  
    60   14   57 1  
    61   16   58 1  
    62   18   59 1  
    63   22   60 1  
    64   22   61 1  
    65   22   62 1  
    66   24   63 1  
    67   24   64 1  
    68   24   65 1  
    69   27   66 1  
    70   28   67 1  
    71   29   68 1  
    72   30   69 1  
    73   31   70 1  
    74   33   71 1  
    75   34   72 1  
    76   35   73 1  
    77   35   74 1  
    78   35   75 1  
    79   37   76 1  
    80   38   77 1  
    81   39   78 1  
    82   40   79 1  
    83   41   80 1  
@<TRIPOS>SUBSTRUCTURE
     1 5HA         1

