### 
### Created by X-TOOL on Mon Sep 10 21:13:07 2018
### 

@<TRIPOS>MOLECULE
3tpr_ligand
   80    83     1     0     0
SMALL
GAST_HUCK


@<TRIPOS>ATOM
      1 C1         62.4840   47.5100    8.8550 C.3       1 5HA        -0.0046
      2 C2         63.9690   47.2340    8.8690 C.3       1 5HA        -0.0222
      3 C3         63.2960   47.9270   10.0700 C.3       1 5HA        -0.0046
      4 N1         64.7250   48.1590    7.9970 N.4       1 5HA         0.2311
      5 C4         66.1490   47.9030    8.1500 C.3       1 5HA        -0.0044
      6 C5         66.9020   49.0400    7.4850 C.3       1 5HA         0.1192
      7 C6         68.3160   48.9290    7.9120 C.3       1 5HA         0.0818
      8 N2         68.9510   47.6670    7.4500 N.am      1 5HA        -0.2786
      9 C7         69.0490   46.6130    8.2860 C.2       1 5HA         0.2025
     10 O2         68.4160   46.5130    9.3430 O.2       1 5HA        -0.3847
     11 O3         66.4040   50.3210    7.8760 O.3       1 5HA        -0.3840
     12 C8         69.1060   50.0840    7.3980 C.3       1 5HA         0.0065
     13 C9         69.7340   45.3860    7.6610 C.ar      1 5HA         0.0397
     14 C10        70.8140   45.5120    6.7860 C.ar      1 5HA        -0.0393
     15 C11        71.3810   44.3950    6.1890 C.ar      1 5HA         0.0398
     16 C12        70.8670   43.1050    6.4020 C.ar      1 5HA        -0.0214
     17 C13        69.7930   42.9850    7.3240 C.ar      1 5HA         0.0754
     18 C14        69.2210   44.1290    7.9310 C.ar      1 5HA        -0.0214
     19 C15        72.4900   44.6600    5.2300 C.2       1 5HA         0.2041
     20 N3         69.1290   41.8320    7.5980 N.am      1 5HA        -0.1796
     21 O4         73.2230   43.8380    4.7480 O.2       1 5HA        -0.3845
     22 C16        68.8930   41.4820    9.0270 C.3       1 5HA         0.0445
     23 S1         69.4040   40.4940    6.6800 S.o2      1 5HA         0.0593
     24 C23        70.8840   39.6150    7.2220 C.3       1 5HA         0.0790
     25 O5         68.1800   39.6600    7.0080 O.2       1 5HA        -0.1500
     26 O6         69.6080   40.7220    5.1880 O.2       1 5HA        -0.1500
     27 C24        71.1640   49.8310    8.9030 C.ar      1 5HA        -0.0603
     28 C25        72.5400   49.6690    9.0700 C.ar      1 5HA        -0.0686
     29 C26        73.4090   49.5370    8.0020 C.ar      1 5HA        -0.0687
     30 C27        72.8550   49.5970    6.7460 C.ar      1 5HA        -0.0686
     31 C28        71.4890   49.7530    6.5610 C.ar      1 5HA        -0.0603
     32 C29        70.6300   49.8740    7.6230 C.ar      1 5HA        -0.0408
     33 N4         72.4590   45.8200    4.6560 N.am      1 5HA        -0.2723
     34 C17        73.5010   46.0490    3.7000 C.3       1 5HA         0.0723
     35 C18        74.1180   47.3720    4.1460 C.3       1 5HA        -0.0320
     36 C30        72.9050   46.0870    2.2980 C.ar      1 5HA        -0.0183
     37 C31        71.7060   46.7360    2.0440 C.ar      1 5HA        -0.0582
     38 C32        71.2190   46.7490    0.7050 C.ar      1 5HA        -0.0685
     39 C33        71.8930   46.1320   -0.3330 C.ar      1 5HA        -0.0687
     40 C34        73.0930   45.4900   -0.0540 C.ar      1 5HA        -0.0685
     41 C35        73.6030   45.4760    1.2530 C.ar      1 5HA        -0.0582
     42 H1         61.7719   46.6753    8.9335 H         1 5HA         0.0322
     43 H2         62.0768   48.2771    8.1800 H         1 5HA         0.0322
     44 H3         64.4005   46.2234    8.9199 H         1 5HA         0.0850
     45 H4         63.1793   47.3904   11.0231 H         1 5HA         0.0322
     46 H5         63.4841   48.9922   10.2696 H         1 5HA         0.0322
     47 H6         64.5233   49.1110    8.2599 H         1 5HA         0.2017
     48 H7         64.4572   48.0117    7.0365 H         1 5HA         0.2017
     49 H8         66.4110   46.9493    7.6685 H         1 5HA         0.0840
     50 H9         66.4079   47.8578    9.2181 H         1 5HA         0.0840
     51 H10        66.8259   48.9414    6.3921 H         1 5HA         0.0672
     52 H11        68.3414   48.9458    9.0116 H         1 5HA         0.0606
     53 H12        69.3062   47.5992    6.5177 H         1 5HA         0.1851
     54 H13        66.9213   51.0010    7.4604 H         1 5HA         0.2101
     55 H14        68.7891   50.9967    7.9238 H         1 5HA         0.0449
     56 H15        68.9156   50.1967    6.3205 H         1 5HA         0.0449
     57 H16        71.2152   46.4955    6.5699 H         1 5HA         0.0576
     58 H17        71.2712   42.2412    5.8867 H         1 5HA         0.0566
     59 H18        68.3810   44.0205    8.6075 H         1 5HA         0.0566
     60 H19        68.7139   42.4008    9.6047 H         1 5HA         0.0517
     61 H20        69.7760   40.9630    9.4281 H         1 5HA         0.0517
     62 H21        68.0148   40.8240    9.1032 H         1 5HA         0.0517
     63 H22        71.0369   38.7290    6.5883 H         1 5HA         0.0487
     64 H23        70.7609   39.3003    8.2688 H         1 5HA         0.0487
     65 H24        71.7564   40.2799    7.1392 H         1 5HA         0.0487
     66 H25        70.5166   49.9226    9.7676 H         1 5HA         0.0557
     67 H26        72.9435   49.6457   10.0758 H         1 5HA         0.0599
     68 H27        74.4734   49.3935    8.1485 H         1 5HA         0.0559
     69 H28        73.5009   49.5206    5.8788 H         1 5HA         0.0599
     70 H29        71.0912   49.7799    5.5530 H         1 5HA         0.0557
     71 H30        71.7604   46.5045    4.8643 H         1 5HA         0.1875
     72 H31        74.2554   45.2496    3.7436 H         1 5HA         0.0716
     73 H32        74.9403   47.6406    3.4665 H         1 5HA         0.0274
     74 H33        74.5072   47.2685    5.1696 H         1 5HA         0.0274
     75 H34        73.3512   48.1604    4.1232 H         1 5HA         0.0274
     76 H35        71.1546   47.2200    2.8420 H         1 5HA         0.0557
     77 H36        70.2873   47.2606    0.4925 H         1 5HA         0.0599
     78 H37        71.4943   46.1489   -1.3409 H         1 5HA         0.0559
     79 H38        73.6384   44.9971   -0.8506 H         1 5HA         0.0599
     80 H39        74.5487   44.9859    1.4543 H         1 5HA         0.0557
@<TRIPOS>BOND
     1    2    1 1  
     2    3    1 1  
     3    2    3 1  
     4    4    2 1  
     5    5    4 1  
     6    6    5 1  
     7    7    6 1  
     8    6   11 1  
     9    7    8 1  
    10   12    7 1  
    11    8    9 am 
    12    9   10 2  
    13    9   13 1  
    14   32   12 1  
    15   13   14 ar 
    16   13   18 ar 
    17   14   15 ar 
    18   15   16 ar 
    19   15   19 1  
    20   17   16 ar 
    21   18   17 ar 
    22   17   20 1  
    23   19   21 2  
    24   19   33 am 
    25   20   22 1  
    26   20   23 am 
    27   23   24 1  
    28   23   25 2  
    29   23   26 2  
    30   27   28 ar 
    31   27   32 ar 
    32   28   29 ar 
    33   29   30 ar 
    34   30   31 ar 
    35   31   32 ar 
    36   33   34 1  
    37   34   35 1  
    38   34   36 1  
    39   36   37 ar 
    40   36   41 ar 
    41   37   38 ar 
    42   38   39 ar 
    43   39   40 ar 
    44   40   41 ar 
    45    1   42 1  
    46    1   43 1  
    47    2   44 1  
    48    3   45 1  
    49    3   46 1  
    50    4   47 1  
    51    4   48 1  
    52    5   49 1  
    53    5   50 1  
    54    6   51 1  
    55    7   52 1  
    56    8   53 1  
    57   11   54 1  
    58   12   55 1  
    59   12   56 1  
    60   14   57 1  
    61   16   58 1  
    62   18   59 1  
    63   22   60 1  
    64   22   61 1  
    65   22   62 1  
    66   24   63 1  
    67   24   64 1  
    68   24   65 1  
    69   27   66 1  
    70   28   67 1  
    71   29   68 1  
    72   30   69 1  
    73   31   70 1  
    74   33   71 1  
    75   34   72 1  
    76   35   73 1  
    77   35   74 1  
    78   35   75 1  
    79   37   76 1  
    80   38   77 1  
    81   39   78 1  
    82   40   79 1  
    83   41   80 1  
@<TRIPOS>SUBSTRUCTURE
     1 5HA         1

