### 
### Created by X-TOOL on Mon Sep 10 21:13:09 2018
### 

@<TRIPOS>MOLECULE
3ts4_ligand
   69    71     1     0     0
SMALL
GAST_HUCK


@<TRIPOS>ATOM
      1 O2         10.2960   26.6000    3.2930 O.2       1 EEG        -0.3967
      2 S7          2.8430   22.5900    7.7400 S.3       1 EEG        -0.0356
      3 C11         9.1700   26.7020    2.7720 C.2       1 EEG         0.1802
      4 C12         7.9050   26.4690    3.6460 C.3       1 EEG         0.0470
      5 C13         7.4490   25.0310    3.4090 C.3       1 EEG        -0.0024
      6 C14         4.9870   25.1020    3.7560 C.ar      1 EEG        -0.0604
      7 C15         5.2110   23.4950    6.0110 C.ar      1 EEG        -0.0612
      8 C16         3.9630   23.9550    5.5660 C.ar      1 EEG        -0.0168
      9 C17         3.8360   24.7570    4.4470 C.ar      1 EEG        -0.0612
     10 C18         2.7260   23.5580    6.3890 C.2       1 EEG         0.0327
     11 C19         1.4020   23.9480    6.2260 C.2       1 EEG        -0.0608
     12 C20         0.5550   23.3870    7.2140 C.2       1 EEG        -0.0281
     13 C21        -0.9070   23.6320    7.2560 C.ar      1 EEG        -0.0317
     14 C22        -1.4140   24.7630    6.6430 C.ar      1 EEG        -0.0592
     15 C23        -2.7780   25.0010    6.6840 C.ar      1 EEG        -0.0646
     16 C24        -3.6090   24.1210    7.3230 C.ar      1 EEG        -0.0648
     17 C25        -3.0990   22.9760    7.9370 C.ar      1 EEG        -0.0646
     18 C26        -1.7380   22.7380    7.9000 C.ar      1 EEG        -0.0592
     19 C27         6.2070   24.6350    4.1910 C.ar      1 EEG        -0.0411
     20 C28         6.3380   23.8440    5.3340 C.ar      1 EEG        -0.0604
     21 C29         1.2020   22.5930    8.1570 C.2       1 EEG         0.0059
     22 N2          8.9990   26.9740    1.3920 N.am      1 EEG        -0.2654
     23 C7         10.1740   27.1430    0.5750 C.3       1 EEG         0.1324
     24 C6         10.6320   28.5370    0.3510 C.2       1 EEG         0.2040
     25 O1         11.6390   28.7550   -0.3700 O.2       1 EEG        -0.3944
     26 C8          9.7600   26.4780   -0.7010 C.3       1 EEG        -0.0008
     27 C9          9.5700   25.0040   -0.5840 C.3       1 EEG         0.0044
     28 C10         8.0960   24.6090   -0.3200 C.2       1 EEG         0.0350
     29 O4E         7.3120   25.4190   -0.7680 O.co2     1 EEG        -0.5690
     30 O4          7.8420   23.6230    0.2760 O.co2     1 EEG        -0.5690
     31 N1          9.9160   29.5950    0.9410 N.am      1 EEG        -0.2636
     32 C2         10.3470   31.0270    0.7240 C.3       1 EEG         0.1321
     33 C1         10.5670   31.6680    1.9950 C.2       1 EEG         0.1993
     34 O9          9.9440   31.2660    3.0430 O.2       1 EEG        -0.3947
     35 C3          9.3400   31.8540   -0.0930 C.3       1 EEG        -0.0008
     36 C4          8.5150   31.1890   -0.9620 C.3       1 EEG         0.0044
     37 C5          9.0700   31.1520   -2.4250 C.2       1 EEG         0.0350
     38 O8E         9.6360   30.0260   -2.8320 O.co2     1 EEG        -0.5690
     39 O8          9.0260   32.1650   -3.1490 O.co2     1 EEG        -0.5690
     40 N9         11.5260   32.8040    2.0900 N.am      1 EEG        -0.2990
     41 H1          7.1097   27.1696    3.3517 H         1 EEG         0.0525
     42 H2          8.1489   26.6164    4.7084 H         1 EEG         0.0525
     43 H3          8.2686   24.3569    3.6985 H         1 EEG         0.0452
     44 H4          7.2352   24.9090    2.3369 H         1 EEG         0.0452
     45 H5          4.9270   25.7356    2.8785 H         1 EEG         0.0557
     46 H6          5.2771   22.8644    6.8902 H         1 EEG         0.0594
     47 H7          2.8635   25.1062    4.1192 H         1 EEG         0.0594
     48 H8          1.0558   24.6077    5.4317 H         1 EEG         0.0428
     49 H9         -0.7517   25.4555    6.1362 H         1 EEG         0.0594
     50 H10        -3.1877   25.8853    6.2094 H         1 EEG         0.0609
     51 H11        -4.6750   24.3154    7.3526 H         1 EEG         0.0592
     52 H12        -3.7633   22.2808    8.4375 H         1 EEG         0.0609
     53 H13        -1.3258   21.8545    8.3739 H         1 EEG         0.0594
     54 H14         7.3138   23.5161    5.6736 H         1 EEG         0.0557
     55 H15         0.7427   22.0754    8.9979 H         1 EEG         0.0780
     56 H16         8.0844   27.0470    0.9943 H         1 EEG         0.1883
     57 H17        11.0116   26.5952    1.0315 H         1 EEG         0.0801
     58 H18        10.5360   26.6675   -1.4572 H         1 EEG         0.0330
     59 H19         8.8100   26.9238   -1.0308 H         1 EEG         0.0330
     60 H20        10.1874   24.6348    0.2482 H         1 EEG         0.0433
     61 H21         9.8980   24.5316   -1.5217 H         1 EEG         0.0433
     62 H22         9.1162   29.3978    1.5080 H         1 EEG         0.1883
     63 H23        11.2974   31.0106    0.1704 H         1 EEG         0.0801
     64 H24         9.9167   32.5821   -0.6823 H         1 EEG         0.0330
     65 H25         8.6982   32.3880    0.6232 H         1 EEG         0.0330
     66 H26         7.5367   31.6919   -0.9709 H         1 EEG         0.0433
     67 H27         8.3926   30.1550   -0.6073 H         1 EEG         0.0433
     68 H28        11.6833   33.2534    2.9694 H         1 EEG         0.1815
     69 H29        12.0125   33.1172    1.2744 H         1 EEG         0.1815
@<TRIPOS>BOND
     1    3    1 2  
     2   10    2 1  
     3    2   21 1  
     4    4    3 1  
     5    3   22 am 
     6    5    4 1  
     7   19    5 1  
     8    9    6 ar 
     9    6   19 ar 
    10    8    7 ar 
    11    7   20 ar 
    12    8    9 ar 
    13    8   10 1  
    14   10   11 2  
    15   11   12 1  
    16   12   13 1  
    17   12   21 2  
    18   13   14 ar 
    19   13   18 ar 
    20   14   15 ar 
    21   15   16 ar 
    22   16   17 ar 
    23   17   18 ar 
    24   19   20 ar 
    25   22   23 1  
    26   23   24 1  
    27   23   26 1  
    28   24   25 2  
    29   24   31 am 
    30   26   27 1  
    31   27   28 1  
    32   28   29 ar 
    33   28   30 ar 
    34   31   32 1  
    35   32   33 1  
    36   32   35 1  
    37   33   34 2  
    38   33   40 am 
    39   35   36 1  
    40   36   37 1  
    41   37   38 ar 
    42   37   39 ar 
    43    4   41 1  
    44    4   42 1  
    45    5   43 1  
    46    5   44 1  
    47    6   45 1  
    48    7   46 1  
    49    9   47 1  
    50   11   48 1  
    51   14   49 1  
    52   15   50 1  
    53   16   51 1  
    54   17   52 1  
    55   18   53 1  
    56   20   54 1  
    57   21   55 1  
    58   22   56 1  
    59   23   57 1  
    60   26   58 1  
    61   26   59 1  
    62   27   60 1  
    63   27   61 1  
    64   31   62 1  
    65   32   63 1  
    66   35   64 1  
    67   35   65 1  
    68   36   66 1  
    69   36   67 1  
    70   40   68 1  
    71   40   69 1  
@<TRIPOS>SUBSTRUCTURE
     1 EEG         1

