### 
### Created by X-TOOL on Mon Sep 10 21:13:09 2018
### 

@<TRIPOS>MOLECULE
3tsk_ligand
   71    73     1     0     0
SMALL
GAST_HUCK


@<TRIPOS>ATOM
      1 O2          9.7400   26.2240    4.4400 O.2       1 QEG        -0.3967
      2 S7          2.4460   22.3030    8.4120 S.3       1 QEG        -0.0356
      3 C11         8.5610   26.3170    4.3850 C.2       1 QEG         0.1802
      4 C12         7.7730   25.1900    3.7690 C.3       1 QEG         0.0470
      5 C13         7.6830   23.8750    4.5200 C.3       1 QEG        -0.0024
      6 C14         5.1640   24.2160    4.5080 C.ar      1 QEG        -0.0604
      7 C15         4.8770   22.7090    6.7400 C.ar      1 QEG        -0.0612
      8 C16         3.7230   23.2350    6.1920 C.ar      1 QEG        -0.0168
      9 C17         3.8940   24.0030    5.0500 C.ar      1 QEG        -0.0612
     10 C18         2.3880   22.9330    6.8600 C.2       1 QEG         0.0327
     11 C19         1.0410   22.9600    6.6160 C.2       1 QEG        -0.0608
     12 C20         0.2250   22.4620    7.6840 C.2       1 QEG        -0.0281
     13 C21        -1.2390   22.4170    7.7510 C.ar      1 QEG        -0.0317
     14 C22        -1.8500   21.2850    8.1820 C.ar      1 QEG        -0.0592
     15 C23        -3.2140   21.2120    8.2760 C.ar      1 QEG        -0.0646
     16 C24        -3.9630   22.3130    7.9830 C.ar      1 QEG        -0.0648
     17 C25        -3.3530   23.4680    7.5780 C.ar      1 QEG        -0.0646
     18 C26        -1.9860   23.5290    7.4710 C.ar      1 QEG        -0.0592
     19 C27         6.3030   23.6610    5.0810 C.ar      1 QEG        -0.0411
     20 C28         6.1420   22.9080    6.2190 C.ar      1 QEG        -0.0604
     21 C29         0.8590   22.0460    8.8030 C.2       1 QEG         0.0059
     22 N2          7.8800   27.3640    4.8260 N.am      1 QEG        -0.2653
     23 C7          8.4140   28.5690    5.4320 C.3       1 QEG         0.1330
     24 C6          7.7580   28.8110    6.7840 C.2       1 QEG         0.2040
     25 O1          6.6890   28.3540    7.1000 O.2       1 QEG        -0.3944
     26 C8          8.2420   29.7180    4.4090 C.3       1 QEG         0.0045
     27 C9          9.5000   30.5670    4.1040 C.3       1 QEG         0.0412
     28 C10         9.5690   31.4830    2.8770 C.2       1 QEG         0.1737
     29 O4E         8.8960   31.3830    1.8950 O.2       1 QEG        -0.3973
     30 N4         10.4770   32.4300    2.9030 N.am      1 QEG        -0.3009
     31 N1          8.4220   29.5400    7.6470 N.am      1 QEG        -0.2636
     32 C2          7.8550   29.7800    8.9520 C.3       1 QEG         0.1321
     33 C1          6.5850   30.5830    8.9020 C.2       1 QEG         0.1993
     34 O9          6.4480   31.5120    8.1780 O.2       1 QEG        -0.3947
     35 C3          8.8210   30.4380    9.8880 C.3       1 QEG        -0.0008
     36 C4          8.9700   29.8870   11.2870 C.3       1 QEG         0.0044
     37 C5          9.8300   30.4360   12.3560 C.2       1 QEG         0.0350
     38 O8E         9.8160   29.8460   13.4300 O.co2     1 QEG        -0.5690
     39 O8         10.5260   31.4550   12.2140 O.co2     1 QEG        -0.5690
     40 N9          5.6170   30.1980    9.6890 N.am      1 QEG        -0.2990
     41 H1          8.2256   24.9745    2.7899 H         1 QEG         0.0525
     42 H2          6.7446   25.5531    3.6257 H         1 QEG         0.0525
     43 H3          8.4087   23.8836    5.3466 H         1 QEG         0.0452
     44 H4          7.9217   23.0514    3.8310 H         1 QEG         0.0452
     45 H5          5.2639   24.8287    3.6194 H         1 QEG         0.0557
     46 H6          4.7849   22.1027    7.6339 H         1 QEG         0.0594
     47 H7          3.0284   24.4452    4.5701 H         1 QEG         0.0594
     48 H8          0.6217   23.3314    5.6821 H         1 QEG         0.0428
     49 H9         -1.2492   20.4253    8.4561 H         1 QEG         0.0594
     50 H10        -3.6934   20.2886    8.5802 H         1 QEG         0.0609
     51 H11        -5.0427   22.2728    8.0711 H         1 QEG         0.0592
     52 H12        -3.9520   24.3396    7.3403 H         1 QEG         0.0609
     53 H13        -1.5021   24.4502    7.1673 H         1 QEG         0.0594
     54 H14         7.0053   22.4708    6.7074 H         1 QEG         0.0557
     55 H15         0.4353   21.6457    9.7229 H         1 QEG         0.0780
     56 H16         6.8856   27.3187    4.7304 H         1 QEG         0.1883
     57 H17         9.4910   28.4316    5.6088 H         1 QEG         0.0801
     58 H18         7.4671   30.3963    4.7957 H         1 QEG         0.0337
     59 H19         7.9013   29.2739    3.4621 H         1 QEG         0.0337
     60 H20        10.3370   29.8594    4.0106 H         1 QEG         0.0504
     61 H21         9.6603   31.2108    4.9814 H         1 QEG         0.0504
     62 H22        10.5675   33.0573    2.1295 H         1 QEG         0.1814
     63 H23        11.0785   32.5243    3.6963 H         1 QEG         0.1814
     64 H24         9.3120   29.9258    7.4038 H         1 QEG         0.1883
     65 H25         7.6049   28.7957    9.3745 H         1 QEG         0.0801
     66 H26         8.5112   31.4889    9.9859 H         1 QEG         0.0330
     67 H27         9.8128   30.3906    9.4147 H         1 QEG         0.0330
     68 H28         9.3075   28.8488   11.1521 H         1 QEG         0.0433
     69 H29         7.9532   29.8905   11.7066 H         1 QEG         0.0433
     70 H30         4.7501   30.6964    9.6960 H         1 QEG         0.1815
     71 H31         5.7425   29.4047   10.2848 H         1 QEG         0.1815
@<TRIPOS>BOND
     1    3    1 2  
     2   10    2 1  
     3    2   21 1  
     4    4    3 1  
     5    3   22 am 
     6    5    4 1  
     7   19    5 1  
     8    9    6 ar 
     9    6   19 ar 
    10    8    7 ar 
    11    7   20 ar 
    12    8    9 ar 
    13    8   10 1  
    14   10   11 2  
    15   11   12 1  
    16   12   13 1  
    17   12   21 2  
    18   13   14 ar 
    19   13   18 ar 
    20   14   15 ar 
    21   15   16 ar 
    22   16   17 ar 
    23   17   18 ar 
    24   19   20 ar 
    25   22   23 1  
    26   23   24 1  
    27   23   26 1  
    28   24   25 2  
    29   24   31 am 
    30   26   27 1  
    31   27   28 1  
    32   28   29 2  
    33   28   30 am 
    34   31   32 1  
    35   32   33 1  
    36   32   35 1  
    37   33   34 2  
    38   33   40 am 
    39   35   36 1  
    40   36   37 1  
    41   37   38 ar 
    42   37   39 ar 
    43    4   41 1  
    44    4   42 1  
    45    5   43 1  
    46    5   44 1  
    47    6   45 1  
    48    7   46 1  
    49    9   47 1  
    50   11   48 1  
    51   14   49 1  
    52   15   50 1  
    53   16   51 1  
    54   17   52 1  
    55   18   53 1  
    56   20   54 1  
    57   21   55 1  
    58   22   56 1  
    59   23   57 1  
    60   26   58 1  
    61   26   59 1  
    62   27   60 1  
    63   27   61 1  
    64   30   62 1  
    65   30   63 1  
    66   31   64 1  
    67   32   65 1  
    68   35   66 1  
    69   35   67 1  
    70   36   68 1  
    71   36   69 1  
    72   40   70 1  
    73   40   71 1  
@<TRIPOS>SUBSTRUCTURE
     1 QEG         1

