### 
### Created by X-TOOL on Mon Sep 10 21:13:10 2018
### 

@<TRIPOS>MOLECULE
3tt4_ligand
   47    48     1     0     0
SMALL
GAST_HUCK


@<TRIPOS>ATOM
      1 C1         -4.9630   10.5390  -13.5630 C.3       1 E1S         0.0467
      2 N1         -4.1280    9.1250  -15.5490 N.am      1 E1S        -0.2654
      3 C2         -4.7810    9.1960  -14.2370 C.2       1 E1S         0.1802
      4 O2         -5.2360    8.1930  -13.7430 O.2       1 E1S        -0.3968
      5 C3         -4.5240    8.0240  -17.7020 C.3       1 E1S        -0.0009
      6 N3         -1.6970    7.7810  -15.2520 N.am      1 E1S        -0.2990
      7 C4         -6.0280    8.1530  -17.5780 C.3       1 E1S         0.0044
      8 C5         -6.5770    9.5340  -17.6660 C.2       1 E1S         0.0350
      9 O5         -1.9210    7.1330  -17.2950 O.2       1 E1S        -0.3947
     10 O6         -7.7410    9.7860  -17.2190 O.co2     1 E1S        -0.5690
     11 O7         -5.8980   10.4810  -18.1770 O.co2     1 E1S        -0.5690
     12 C13        -2.4510    7.5700  -16.2990 C.2       1 E1S         0.1993
     13 C14        -6.4280   10.9790  -13.7750 C.3       1 E1S        -0.0035
     14 C15        -6.6820   12.3590  -13.2120 C.ar      1 E1S        -0.0436
     15 C16        -7.5830   12.5120  -12.1720 C.ar      1 E1S        -0.0631
     16 C17        -7.7880   13.8870  -11.5950 C.ar      1 E1S        -0.0651
     17 C18        -5.9290   13.5260  -13.7520 C.ar      1 E1S        -0.0631
     18 C19        -7.3260   16.3490  -11.5670 C.2       1 E1S         0.0217
     19 C20        -6.9950   17.6080  -12.1550 C.2       1 E1S        -0.0816
     20 C21        -7.3890   18.7110  -11.3010 C.2       1 E1S        -0.0759
     21 S23        -8.1230   16.5420  -10.0180 S.3       1 E1S        -0.0359
     22 C24        -8.5150   19.1110   -8.9910 C.3       1 E1S        -0.0172
     23 C27        -8.0070   18.2600  -10.1390 C.2       1 E1S         0.0133
     24 C30        -7.1040   14.9650  -12.1410 C.ar      1 E1S        -0.0259
     25 C31        -6.1280   14.7690  -13.2100 C.ar      1 E1S        -0.0651
     26 C35        -3.9420    7.8760  -16.2890 C.3       1 E1S         0.1321
     27 H1         -4.2820   11.2777  -14.0107 H         1 E1S         0.0525
     28 H2         -4.7511   10.4496  -12.4873 H         1 E1S         0.0525
     29 H3         -3.7928    9.9735  -15.9586 H         1 E1S         0.1883
     30 H4         -4.1108    8.9225  -18.1836 H         1 E1S         0.0330
     31 H5         -4.2737    7.1376  -18.3034 H         1 E1S         0.0330
     32 H6         -2.0994    8.1416  -14.4105 H         1 E1S         0.1815
     33 H7         -0.7179    7.5818  -15.2926 H         1 E1S         0.1815
     34 H8         -6.3217    7.7362  -16.6033 H         1 E1S         0.0433
     35 H9         -6.4837    7.5584  -18.3834 H         1 E1S         0.0433
     36 H10        -7.0927   10.2608  -13.2727 H         1 E1S         0.0447
     37 H11        -6.6456   10.9879  -14.8532 H         1 E1S         0.0447
     38 H12        -8.1287   11.6605  -11.7819 H         1 E1S         0.0550
     39 H13        -8.4638   14.0344  -10.7604 H         1 E1S         0.0571
     40 H14        -5.2283   13.3927  -14.5683 H         1 E1S         0.0550
     41 H15        -6.5083   17.7244  -13.1222 H         1 E1S         0.0405
     42 H16        -7.2223   19.7605  -11.5390 H         1 E1S         0.0306
     43 H17        -8.9533   18.4614   -8.2190 H         1 E1S         0.0429
     44 H18        -9.2811   19.8077   -9.3620 H         1 E1S         0.0429
     45 H19        -7.6792   19.6810   -8.5592 H         1 E1S         0.0429
     46 H20        -5.5565   15.6135  -13.5776 H         1 E1S         0.0571
     47 H21        -4.4716    7.0600  -15.7755 H         1 E1S         0.0801
@<TRIPOS>BOND
     1    1    3 1  
     2   13    1 1  
     3    3    2 am 
     4    2   26 1  
     5    3    4 2  
     6    5    7 1  
     7   26    5 1  
     8   12    6 am 
     9    7    8 1  
    10    8   10 ar 
    11    8   11 ar 
    12   12    9 2  
    13   26   12 1  
    14   14   13 1  
    15   15   14 ar 
    16   14   17 ar 
    17   16   15 ar 
    18   24   16 ar 
    19   17   25 ar 
    20   18   19 2  
    21   18   21 1  
    22   18   24 1  
    23   19   20 1  
    24   20   23 2  
    25   21   23 1  
    26   23   22 1  
    27   24   25 ar 
    28    1   27 1  
    29    1   28 1  
    30    2   29 1  
    31    5   30 1  
    32    5   31 1  
    33    6   32 1  
    34    6   33 1  
    35    7   34 1  
    36    7   35 1  
    37   13   36 1  
    38   13   37 1  
    39   15   38 1  
    40   16   39 1  
    41   17   40 1  
    42   19   41 1  
    43   20   42 1  
    44   22   43 1  
    45   22   44 1  
    46   22   45 1  
    47   25   46 1  
    48   26   47 1  
@<TRIPOS>SUBSTRUCTURE
     1 E1S         1

