### 
### Created by X-TOOL on Mon Sep 10 21:13:11 2018
### 

@<TRIPOS>MOLECULE
3tti_ligand
   55    59     1     0     0
SMALL
GAST_HUCK


@<TRIPOS>ATOM
      1 C1        -21.7190    6.4800  -31.8720 C.ar      1 KBI         0.1704
      2 F1        -18.8410   13.9840  -31.8750 F         1 KBI        -0.1927
      3 N1        -20.5040    6.2270  -32.4040 N.ar      1 KBI        -0.2738
      4 O1        -27.5190    4.7390  -28.9410 O.3       1 KBI        -0.3918
      5 C2        -21.4250    8.7760  -32.1970 C.ar      1 KBI         0.1509
      6 F2        -16.2950   14.2720  -35.8540 F         1 KBI        -0.1950
      7 N2        -22.1730    7.7440  -31.7710 N.ar      1 KBI        -0.2467
      8 O2        -23.4120   10.2370  -29.5240 O.3       1 KBI        -0.3767
      9 C3        -20.1720    8.5360  -32.7450 C.ar      1 KBI         0.0523
     10 F3        -19.8610   11.1560  -35.5580 F         1 KBI        -0.1927
     11 N3        -21.6020   10.0950  -32.2340 N.pl3     1 KBI        -0.1909
     12 C4        -19.7320    7.2140  -32.8350 C.ar      1 KBI         0.0091
     13 N4        -19.6350    9.7170  -33.0850 N.2       1 KBI        -0.3022
     14 C5        -20.5190   10.6700  -32.7620 C.2       1 KBI         0.2382
     15 N5        -20.3740   11.9940  -32.9520 N.pl3     1 KBI        -0.2279
     16 C6        -19.3840   12.5400  -33.6810 C.ar      1 KBI         0.1323
     17 N6        -22.4750    5.4630  -31.4470 N.pl3     1 KBI        -0.2930
     18 C7        -23.8780    5.6490  -31.0260 C.3       1 KBI         0.0403
     19 C8        -23.9390    5.8040  -29.4930 C.3       1 KBI        -0.0275
     20 C9        -25.3850    5.8730  -28.9800 C.3       1 KBI        -0.0248
     21 C10       -26.1760    4.6320  -29.4100 C.3       1 KBI         0.0554
     22 C11       -26.1590    4.5260  -30.9430 C.3       1 KBI        -0.0248
     23 C12       -24.7150    4.4360  -31.4650 C.3       1 KBI        -0.0275
     24 C13       -22.7840   10.8200  -31.7430 C.3       1 KBI         0.0976
     25 C14       -22.5640   11.1410  -30.2570 C.3       1 KBI         0.0773
     26 C15       -24.5910   10.0880  -30.3360 C.3       1 KBI         0.0505
     27 C16       -24.0380    9.9480  -31.7590 C.3       1 KBI         0.0025
     28 C17       -19.1200   12.1240  -34.9860 C.ar      1 KBI         0.1522
     29 C18       -18.0800   12.7050  -35.7120 C.ar      1 KBI        -0.0080
     30 C19       -17.3010   13.7130  -35.1520 C.ar      1 KBI         0.1167
     31 C20       -17.5640   14.1380  -33.8540 C.ar      1 KBI        -0.0080
     32 C21       -18.5990   13.5540  -33.1270 C.ar      1 KBI         0.1522
     33 H1        -28.0086    3.9698  -29.2077 H         1 KBI         0.2098
     34 H2        -18.7582    6.9949  -33.2577 H         1 KBI         0.0821
     35 H3        -21.0600   12.6255  -32.5144 H         1 KBI         0.2184
     36 H4        -22.0655    4.5186  -31.4120 H         1 KBI         0.1837
     37 H5        -24.2817    6.5568  -31.4982 H         1 KBI         0.0557
     38 H6        -23.4165    6.7291  -29.2083 H         1 KBI         0.0288
     39 H7        -23.4379    4.9420  -29.0284 H         1 KBI         0.0288
     40 H8        -25.8708    6.7703  -29.3909 H         1 KBI         0.0291
     41 H9        -25.3754    5.9316  -27.8816 H         1 KBI         0.0291
     42 H10       -25.7110    3.7336  -28.9781 H         1 KBI         0.0593
     43 H11       -26.6433    5.4156  -31.3720 H         1 KBI         0.0291
     44 H12       -26.7105    3.6247  -31.2489 H         1 KBI         0.0291
     45 H13       -24.2497    3.5201  -31.0719 H         1 KBI         0.0288
     46 H14       -24.7346    4.3947  -32.5640 H         1 KBI         0.0288
     47 H15       -22.9376   11.7340  -32.3354 H         1 KBI         0.0664
     48 H16       -21.5103   10.9823  -29.9840 H         1 KBI         0.0589
     49 H17       -22.8444   12.1835  -30.0460 H         1 KBI         0.0589
     50 H18       -25.2390   10.9729  -30.2525 H         1 KBI         0.0561
     51 H19       -25.1566    9.1905  -30.0451 H         1 KBI         0.0561
     52 H20       -23.7856    8.9007  -31.9812 H         1 KBI         0.0317
     53 H21       -24.7629   10.3157  -32.5002 H         1 KBI         0.0317
     54 H22       -17.8768   12.3680  -36.7220 H         1 KBI         0.0528
     55 H23       -16.9640   14.9232  -33.4084 H         1 KBI         0.0528
@<TRIPOS>BOND
     1    3    1 ar 
     2    7    1 ar 
     3    1   17 1  
     4   32    2 1  
     5   12    3 ar 
     6   21    4 1  
     7    5    7 ar 
     8    9    5 ar 
     9   11    5 1  
    10   30    6 1  
    11   25    8 1  
    12   26    8 1  
    13    9   12 ar 
    14   13    9 1  
    15   28   10 1  
    16   14   11 1  
    17   11   24 1  
    18   14   13 2  
    19   15   14 1  
    20   16   15 1  
    21   28   16 ar 
    22   16   32 ar 
    23   17   18 1  
    24   18   19 1  
    25   18   23 1  
    26   19   20 1  
    27   20   21 1  
    28   22   21 1  
    29   23   22 1  
    30   24   25 1  
    31   24   27 1  
    32   27   26 1  
    33   29   28 ar 
    34   29   30 ar 
    35   30   31 ar 
    36   31   32 ar 
    37    4   33 1  
    38   12   34 1  
    39   15   35 1  
    40   17   36 1  
    41   18   37 1  
    42   19   38 1  
    43   19   39 1  
    44   20   40 1  
    45   20   41 1  
    46   21   42 1  
    47   22   43 1  
    48   22   44 1  
    49   23   45 1  
    50   23   46 1  
    51   24   47 1  
    52   25   48 1  
    53   25   49 1  
    54   26   50 1  
    55   26   51 1  
    56   27   52 1  
    57   27   53 1  
    58   29   54 1  
    59   31   55 1  
@<TRIPOS>SUBSTRUCTURE
     1 KBI         1

