### 
### Created by X-TOOL on Mon Sep 10 21:13:10 2018
### 

@<TRIPOS>MOLECULE
3ttj_ligand
   54    58     1     0     0
SMALL
GAST_HUCK


@<TRIPOS>ATOM
      1 C1         21.1560    8.4700   31.8570 C.ar      1 JBI         0.1519
      2 F1         19.8610   10.9390   35.3800 F         1 JBI        -0.1906
      3 N1         20.1700    5.9710   32.1430 N.ar      1 JBI        -0.2705
      4 O1         27.1140    5.0640   29.0550 O.3       1 JBI        -0.3286
      5 C2         19.9580    8.2670   32.5200 C.ar      1 JBI         0.0533
      6 N2         21.8260    7.4190   31.3590 N.ar      1 JBI        -0.2434
      7 C3         19.4760    6.9720   32.6510 C.ar      1 JBI         0.0101
      8 N3         21.3810    9.7820   31.8910 N.pl3     1 JBI        -0.1927
      9 C4         21.3360    6.1740   31.5070 C.ar      1 JBI         0.1889
     10 N4         19.4990    9.4550   32.9200 N.2       1 JBI        -0.3009
     11 C5         20.3730   10.3770   32.5260 C.2       1 JBI         0.2401
     12 N5         21.9740    5.1110   31.0090 N.pl3     1 JBI        -0.2543
     13 C6         22.5480   10.4690   31.2970 C.3       1 JBI         0.0724
     14 N6         20.2660   11.6930   32.7460 N.pl3     1 JBI        -0.2257
     15 C7         23.2270    5.1230   30.5340 C.ar      1 JBI         0.0531
     16 C8         19.2860   12.2470   33.4750 C.ar      1 JBI         0.1021
     17 C9         23.8390    9.7120   31.6240 C.3       1 JBI        -0.0232
     18 C10        24.7150    9.9780   30.4070 C.3       1 JBI        -0.0503
     19 C11        23.7390    9.8110   29.2450 C.3       1 JBI        -0.0503
     20 C12        22.4370   10.4430   29.7540 C.3       1 JBI        -0.0232
     21 C13        19.0830   11.8800   34.8060 C.ar      1 JBI         0.1549
     22 C14        18.0750   12.4730   35.5550 C.ar      1 JBI        -0.0376
     23 C15        17.2580   13.4490   34.9820 C.ar      1 JBI        -0.0752
     24 C16        17.4610   13.8280   33.6570 C.ar      1 JBI        -0.0754
     25 C17        18.4740   13.2290   32.9080 C.ar      1 JBI        -0.0394
     26 C18        23.6250    6.0390   29.5660 C.ar      1 JBI        -0.0466
     27 C19        24.9270    6.0210   29.0740 C.ar      1 JBI        -0.0422
     28 C20        25.8370    5.0770   29.5430 C.ar      1 JBI         0.0791
     29 C21        25.4380    4.1560   30.5070 C.ar      1 JBI        -0.0422
     30 C22        24.1360    4.1790   30.9970 C.ar      1 JBI        -0.0466
     31 C23        27.9360    4.0870   29.7190 C.3       1 JBI         0.0569
     32 H1         18.5400    6.7849   33.1648 H         1 JBI         0.0823
     33 H2         21.4650    4.2158   30.9887 H         1 JBI         0.2125
     34 H3         22.6002   11.5033   31.6679 H         1 JBI         0.0640
     35 H4         20.9756   12.3146   32.3325 H         1 JBI         0.2205
     36 H5         23.6459    8.6357   31.7435 H         1 JBI         0.0294
     37 H6         24.3056   10.1047   32.5394 H         1 JBI         0.0294
     38 H7         25.5360    9.2488   30.3427 H         1 JBI         0.0266
     39 H8         25.1301   10.9963   30.4325 H         1 JBI         0.0266
     40 H9         23.5903    8.7467   29.0101 H         1 JBI         0.0266
     41 H10        24.1040   10.3365   28.3502 H         1 JBI         0.0266
     42 H11        22.3298   11.4650   29.3616 H         1 JBI         0.0294
     43 H12        21.5722    9.8383   29.4435 H         1 JBI         0.0294
     44 H13        17.9224   12.1773   36.5867 H         1 JBI         0.0572
     45 H14        16.4692   13.9099   35.5654 H         1 JBI         0.0509
     46 H15        16.8320   14.5882   33.2081 H         1 JBI         0.0553
     47 H16        18.6311   13.5288   31.8782 H         1 JBI         0.0524
     48 H17        22.9176    6.7707   29.1928 H         1 JBI         0.0509
     49 H18        25.2329    6.7425   28.3250 H         1 JBI         0.0515
     50 H19        26.1425    3.4197   30.8766 H         1 JBI         0.0515
     51 H20        23.8287    3.4564   31.7443 H         1 JBI         0.0509
     52 H21        28.9507    4.1125   29.2950 H         1 JBI         0.0573
     53 H22        27.5038    3.0857   29.5755 H         1 JBI         0.0573
     54 H23        27.9819    4.3160   30.7939 H         1 JBI         0.0573
@<TRIPOS>BOND
     1    1    5 ar 
     2    6    1 ar 
     3    1    8 1  
     4   21    2 1  
     5    3    7 ar 
     6    9    3 ar 
     7   28    4 1  
     8    4   31 1  
     9    7    5 ar 
    10    5   10 1  
    11    9    6 ar 
    12    8   11 1  
    13    8   13 1  
    14   12    9 1  
    15   11   10 2  
    16   11   14 1  
    17   15   12 1  
    18   13   17 1  
    19   13   20 1  
    20   14   16 1  
    21   26   15 ar 
    22   15   30 ar 
    23   16   21 ar 
    24   16   25 ar 
    25   17   18 1  
    26   19   18 1  
    27   20   19 1  
    28   21   22 ar 
    29   22   23 ar 
    30   24   23 ar 
    31   25   24 ar 
    32   27   26 ar 
    33   27   28 ar 
    34   28   29 ar 
    35   29   30 ar 
    36    7   32 1  
    37   12   33 1  
    38   13   34 1  
    39   14   35 1  
    40   17   36 1  
    41   17   37 1  
    42   18   38 1  
    43   18   39 1  
    44   19   40 1  
    45   19   41 1  
    46   20   42 1  
    47   20   43 1  
    48   22   44 1  
    49   23   45 1  
    50   24   46 1  
    51   25   47 1  
    52   26   48 1  
    53   27   49 1  
    54   29   50 1  
    55   30   51 1  
    56   31   52 1  
    57   31   53 1  
    58   31   54 1  
@<TRIPOS>SUBSTRUCTURE
     1 JBI         1

