### 
### Created by X-TOOL on Mon Sep 10 21:13:11 2018
### 

@<TRIPOS>MOLECULE
3ttm_ligand
   20    19     1     0     0
SMALL
GAST_HUCK


@<TRIPOS>ATOM
      1 N2         15.6880   18.6300   26.4910 N.4       1 PUT         0.2185
      2 C4         16.9920   18.0230   26.7330 C.3       1 PUT        -0.0352
      3 C3         16.8270   16.5280   27.0680 C.3       1 PUT        -0.0078
      4 C2         18.1350   15.7590   26.8250 C.3       1 PUT        -0.0078
      5 C1         17.9610   14.2740   27.1460 C.3       1 PUT        -0.0352
      6 N1         19.0530   13.5120   26.5570 N.4       1 PUT         0.2185
      7 H1         15.8074   19.6069   26.2730 H         1 PUT         0.1994
      8 H2         15.1159   18.5373   27.3157 H         1 PUT         0.1994
      9 H3         15.2395   18.1654   25.7170 H         1 PUT         0.1994
     10 H4         17.4797   18.5331   27.5768 H         1 PUT         0.0813
     11 H5         17.6145   18.1272   25.8321 H         1 PUT         0.0813
     12 H6         16.0367   16.1024   26.4322 H         1 PUT         0.0319
     13 H7         16.5416   16.4261   28.1254 H         1 PUT         0.0319
     14 H8         18.9235   16.1767   27.4682 H         1 PUT         0.0319
     15 H9         18.4264   15.8679   25.7699 H         1 PUT         0.0319
     16 H10        17.0046   13.9205   26.7333 H         1 PUT         0.0813
     17 H11        17.9640   14.1332   28.2369 H         1 PUT         0.0813
     18 H12        18.9341   12.5342   26.7711 H         1 PUT         0.1994
     19 H13        19.9300   13.8345   26.9350 H         1 PUT         0.1994
     20 H14        19.0508   13.6397   25.5571 H         1 PUT         0.1994
@<TRIPOS>BOND
     1    1    2 1  
     2    2    3 1  
     3    3    4 1  
     4    4    5 1  
     5    5    6 1  
     6    1    7 1  
     7    1    8 1  
     8    1    9 1  
     9    2   10 1  
    10    2   11 1  
    11    3   12 1  
    12    3   13 1  
    13    4   14 1  
    14    4   15 1  
    15    5   16 1  
    16    5   17 1  
    17    6   18 1  
    18    6   19 1  
    19    6   20 1  
@<TRIPOS>SUBSTRUCTURE
     1 PUT         1

