### 
### Created by X-TOOL on Fri Sep 26 17:34:56 2014
### 

@<TRIPOS>MOLECULE
3ttn_ligand
   32    31     1     0     0
SMALL
GAST_HUCK


@<TRIPOS>ATOM
      1 N1         26.0240   27.2880   31.8790 N.4       1 SPD         0.2185
      2 C2         25.6740   28.6610   32.2050 C.3       1 SPD        -0.0352
      3 C3         24.2020   28.7490   32.5890 C.3       1 SPD        -0.0078
      4 C4         23.9270   30.0630   33.3210 C.3       1 SPD        -0.0078
      5 C5         22.4580   30.3970   33.1780 C.3       1 SPD        -0.0335
      6 N6         21.6720   30.0550   34.3210 N.4       1 SPD         0.2271
      7 C7         20.4990   30.8570   34.6400 C.3       1 SPD        -0.0288
      8 C8         19.2470   29.9820   34.6890 C.3       1 SPD         0.0275
      9 C9         18.0790   30.6230   35.4490 C.3       1 SPD        -0.0305
     10 N10        16.8560   30.0850   34.8730 N.4       1 SPD         0.2187
     11 H1         26.9987   27.2406   31.6266 H         1 SPD         0.1994
     12 H2         25.4608   26.9724   31.1049 H         1 SPD         0.1994
     13 H3         25.8552   26.6991   32.6795 H         1 SPD         0.1994
     14 H4         25.8607   29.3016   31.3305 H         1 SPD         0.0813
     15 H5         26.2912   29.0033   33.0488 H         1 SPD         0.0813
     16 H6         23.9468   27.9056   33.2474 H         1 SPD         0.0319
     17 H7         23.5854   28.7036   31.6792 H         1 SPD         0.0319
     18 H8         24.5344   30.8671   32.8800 H         1 SPD         0.0319
     19 H9         24.1803   29.9540   34.3859 H         1 SPD         0.0319
     20 H10        22.0617   29.8508   32.3093 H         1 SPD         0.0814
     21 H11        22.3643   31.4792   33.0046 H         1 SPD         0.0814
     22 H12        22.2830   30.0948   35.1217 H         1 SPD         0.2013
     23 H13        21.3541   29.1078   34.1876 H         1 SPD         0.2013
     24 H14        20.3694   31.6308   33.8690 H         1 SPD         0.0816
     25 H15        20.6439   31.3360   35.6196 H         1 SPD         0.0816
     26 H16        19.5047   29.0336   35.1832 H         1 SPD         0.0369
     27 H17        18.9223   29.7815   33.6573 H         1 SPD         0.0369
     28 H18        18.1044   31.7162   35.3300 H         1 SPD         0.0815
     29 H19        18.1378   30.3689   36.5176 H         1 SPD         0.0815
     30 H20        16.0591   30.4819   35.3457 H         1 SPD         0.1994
     31 H21        16.8461   29.0829   34.9813 H         1 SPD         0.1994
     32 H22        16.8155   30.3175   33.8930 H         1 SPD         0.1994
@<TRIPOS>BOND
     1    1    2 1  
     2    2    3 1  
     3    3    4 1  
     4    4    5 1  
     5    5    6 1  
     6    6    7 1  
     7    7    8 1  
     8    8    9 1  
     9    9   10 1  
    10    1   11 1  
    11    1   12 1  
    12    1   13 1  
    13    2   14 1  
    14    2   15 1  
    15    3   16 1  
    16    3   17 1  
    17    4   18 1  
    18    4   19 1  
    19    5   20 1  
    20    5   21 1  
    21    6   22 1  
    22    6   23 1  
    23    7   24 1  
    24    7   25 1  
    25    8   26 1  
    26    8   27 1  
    27    9   28 1  
    28    9   29 1  
    29   10   30 1  
    30   10   31 1  
    31   10   32 1  
@<TRIPOS>SUBSTRUCTURE
     1 SPD         1

