### 
### Created by X-TOOL on Mon Sep 10 21:13:10 2018
### 

@<TRIPOS>MOLECULE
3ttp_ligand
   75    78     1     0     0
SMALL
GAST_HUCK


@<TRIPOS>ATOM
      1 N1        -10.1180   15.7390   35.0410 N.pl3     1 017        -0.3369
      2 C2         -9.8680   15.5250   33.7290 C.ar      1 017         0.0353
      3 C3         -9.2720   16.5370   33.0040 C.ar      1 017        -0.0429
      4 C4         -9.0040   16.3610   31.6610 C.ar      1 017        -0.0471
      5 C5         -9.3320   15.1620   31.0310 C.ar      1 017         0.0949
      6 C6         -9.9280   14.1320   31.7540 C.ar      1 017        -0.0471
      7 C7        -10.1930   14.3100   33.1160 C.ar      1 017        -0.0429
      8 S8         -9.0120   15.0020   29.4820 S.o2      1 017         0.0648
      9 O9         -7.7980   15.7080   29.1980 O.2       1 017        -0.1518
     10 O10        -8.7770   13.6090   29.2320 O.2       1 017        -0.1518
     11 N11       -10.2060   15.5340   28.5050 N.am      1 017        -0.2327
     12 C12       -11.5450   14.9960   28.8260 C.3       1 017         0.0319
     13 C13       -12.3850   14.7400   27.5670 C.3       1 017        -0.0296
     14 C14       -11.5830   14.1430   26.4120 C.3       1 017        -0.0612
     15 C15       -13.5540   13.8200   27.8920 C.3       1 017        -0.0612
     16 C16       -10.2440   17.0030   28.4310 C.3       1 017         0.0578
     17 C17        -9.9630   17.4030   26.9750 C.3       1 017         0.0967
     18 O18       -10.3090   18.7700   26.7610 O.3       1 017        -0.3877
     19 C19        -8.5200   17.1360   26.5300 C.3       1 017         0.0807
     20 N20        -8.4960   17.3790   25.0930 N.am      1 017        -0.2550
     21 C21        -8.3800   16.4490   24.1390 C.2       1 017         0.3203
     22 O22        -8.2800   15.2430   24.3030 O.2       1 017        -0.3775
     23 O23        -8.3830   16.9510   22.7820 O.3       1 017        -0.2578
     24 C24        -7.9640   16.0660   21.7630 C.3       1 017         0.1189
     25 C25        -8.9760   16.3060   20.6720 C.3       1 017         0.0815
     26 O26        -8.4460   17.4010   19.9050 O.3       1 017        -0.3480
     27 C27        -7.1030   17.7070   20.2910 C.3       1 017         0.1648
     28 O28        -7.0080   18.9160   21.0680 O.3       1 017        -0.3509
     29 C29        -6.1270   18.7650   22.1960 C.3       1 017         0.0512
     30 C30        -5.7280   17.2740   22.2030 C.3       1 017        -0.0191
     31 C31        -6.6560   16.5920   21.2020 C.3       1 017         0.0449
     32 C32        -7.5180   18.1280   27.1180 C.3       1 017         0.0064
     33 C33        -5.5040   18.6740   25.7120 C.ar      1 017        -0.0603
     34 C34        -4.2300   18.3740   25.2270 C.ar      1 017        -0.0686
     35 C35        -3.6020   17.1960   25.6110 C.ar      1 017        -0.0687
     36 C36        -4.2400   16.3220   26.4870 C.ar      1 017        -0.0686
     37 C37        -5.5040   16.6240   26.9850 C.ar      1 017        -0.0603
     38 C38        -6.1430   17.7990   26.5910 C.ar      1 017        -0.0408
     39 H          -9.8705   16.6412   35.4720 H         1 017         0.1719
     40 H         -10.5559   14.9998   35.6091 H         1 017         0.1719
     41 H          -9.0140   17.4712   33.4896 H         1 017         0.0515
     42 H          -8.5367   17.1584   31.0946 H         1 017         0.0602
     43 H         -10.1847   13.1992   31.2651 H         1 017         0.0602
     44 H         -10.6470   13.5121   33.6925 H         1 017         0.0515
     45 H         -12.0740   15.7198   29.4634 H         1 017         0.0480
     46 H         -11.4245   14.0476   29.3701 H         1 017         0.0480
     47 H         -12.7865   15.7080   27.2326 H         1 017         0.0311
     48 H         -12.2454   13.9870   25.5478 H         1 017         0.0233
     49 H         -11.1535   13.1794   26.7233 H         1 017         0.0233
     50 H         -10.7727   14.8327   26.1331 H         1 017         0.0233
     51 H         -14.1352   14.2454   28.7235 H         1 017         0.0233
     52 H         -13.1720   12.8297   28.1806 H         1 017         0.0233
     53 H         -14.1994   13.7204   27.0068 H         1 017         0.0233
     54 H          -9.4766   17.4317   29.0923 H         1 017         0.0504
     55 H         -11.2360   17.3682   28.7353 H         1 017         0.0504
     56 H         -10.6162   16.7882   26.3384 H         1 017         0.0634
     57 H         -11.2328   18.8941   26.9443 H         1 017         0.2100
     58 H          -8.2292   16.1044   26.7773 H         1 017         0.0604
     59 H          -8.5735   18.3296   24.7925 H         1 017         0.1873
     60 H          -7.9004   15.0185   22.0926 H         1 017         0.0675
     61 H          -9.9524   16.5729   21.1026 H         1 017         0.0590
     62 H          -9.0852   15.4106   20.0425 H         1 017         0.0590
     63 H          -6.4621   17.7787   19.3999 H         1 017         0.0913
     64 H          -6.6464   19.0294   23.1289 H         1 017         0.0561
     65 H          -5.2376   19.4015   22.0784 H         1 017         0.0561
     66 H          -5.8653   16.8452   23.2066 H         1 017         0.0293
     67 H          -4.6787   17.1566   21.8944 H         1 017         0.0293
     68 H          -6.1184   15.7940   20.6690 H         1 017         0.0380
     69 H          -7.5217   18.0509   28.2153 H         1 017         0.0449
     70 H          -7.7927   19.1510   26.8213 H         1 017         0.0449
     71 H          -5.9980   19.5888   25.4051 H         1 017         0.0557
     72 H          -3.7312   19.0595   24.5514 H         1 017         0.0599
     73 H          -2.6160   16.9574   25.2289 H         1 017         0.0559
     74 H          -3.7497   15.4015   26.7827 H         1 017         0.0599
     75 H          -5.9908   15.9471   27.6778 H         1 017         0.0557
@<TRIPOS>BOND
     1    2    1 1  
     2    3    2 ar 
     3    7    2 ar 
     4    4    3 ar 
     5    5    4 ar 
     6    5    6 ar 
     7    8    5 1  
     8    6    7 ar 
     9    8    9 2  
    10    8   10 2  
    11   11    8 am 
    12   11   12 1  
    13   16   11 1  
    14   12   13 1  
    15   13   14 1  
    16   13   15 1  
    17   17   16 1  
    18   17   18 1  
    19   19   17 1  
    20   19   20 1  
    21   32   19 1  
    22   20   21 am 
    23   21   22 2  
    24   21   23 1  
    25   23   24 1  
    26   24   25 1  
    27   24   31 1  
    28   25   26 1  
    29   27   26 1  
    30   27   28 1  
    31   31   27 1  
    32   29   28 1  
    33   30   29 1  
    34   31   30 1  
    35   38   32 1  
    36   33   34 ar 
    37   33   38 ar 
    38   34   35 ar 
    39   35   36 ar 
    40   36   37 ar 
    41   37   38 ar 
    42    1   39 1  
    43    1   40 1  
    44    3   41 1  
    45    4   42 1  
    46    6   43 1  
    47    7   44 1  
    48   12   45 1  
    49   12   46 1  
    50   13   47 1  
    51   14   48 1  
    52   14   49 1  
    53   14   50 1  
    54   15   51 1  
    55   15   52 1  
    56   15   53 1  
    57   16   54 1  
    58   16   55 1  
    59   17   56 1  
    60   18   57 1  
    61   19   58 1  
    62   20   59 1  
    63   24   60 1  
    64   25   61 1  
    65   25   62 1  
    66   27   63 1  
    67   29   64 1  
    68   29   65 1  
    69   30   66 1  
    70   30   67 1  
    71   31   68 1  
    72   32   69 1  
    73   32   70 1  
    74   33   71 1  
    75   34   72 1  
    76   35   73 1  
    77   36   74 1  
    78   37   75 1  
@<TRIPOS>SUBSTRUCTURE
     1 017         1

