### 
### Created by X-TOOL on Mon Sep 10 21:13:05 2018
### 

@<TRIPOS>MOLECULE
3ttz_ligand
   40    42     1     0     0
SMALL
GAST_HUCK


@<TRIPOS>ATOM
      1 C1          5.7890    8.4620   23.5650 C.3       1 07N        -0.0068
      2 CL1         1.1250    6.7100   21.7690 Cl        1 07N        -0.0978
      3 C2          4.4900    7.7050   23.4750 C.2       1 07N         0.0546
      4 CL2         3.6540    8.7680   21.0530 Cl        1 07N        -0.1132
      5 C3          3.5760    7.7840   22.4780 C.2       1 07N         0.0381
      6 C4          2.5240    6.9190   22.7780 C.2       1 07N         0.0429
      7 C5          2.8340    6.3210   23.9900 C.2       1 07N         0.1288
      8 N6          4.0470    6.8220   24.4000 N.pl3     1 07N        -0.2738
      9 C8          2.0780    5.3350   24.7600 C.2       1 07N         0.2096
     10 O9          2.5340    4.9900   25.8350 O.2       1 07N        -0.3967
     11 N10         0.9220    4.8220   24.2850 N.am      1 07N        -0.2829
     12 C11         0.1330    3.8280   25.0260 C.3       1 07N         0.0756
     13 C13         0.8580    2.4680   25.0340 C.3       1 07N        -0.0060
     14 C14        -0.0310    1.4200   25.7140 C.3       1 07N         0.0391
     15 N15        -1.3090    1.3830   24.9890 N.pl3     1 07N        -0.2655
     16 C16        -2.0990    2.6190   24.9790 C.3       1 07N         0.0701
     17 C17        -1.2340    3.7110   24.3300 C.3       1 07N         0.1445
     18 F19        -1.0060    3.3840   22.9900 F         1 07N        -0.2409
     19 C20        -1.9080    0.1570   24.7740 C.2       1 07N         0.1870
     20 N21        -2.9950   -0.0470   24.0770 N.2       1 07N        -0.3119
     21 C22        -3.4100   -1.2860   23.9640 C.2       1 07N        -0.0237
     22 C23        -2.6140   -2.1980   24.6070 C.2       1 07N         0.0655
     23 S24        -1.2940   -1.3230   25.3690 S.3       1 07N         0.0241
     24 C25        -2.7850   -3.6030   24.6680 C.2       1 07N         0.0599
     25 O26        -3.7150   -4.1450   24.1010 O.co2     1 07N        -0.5667
     26 O27        -1.8880   -4.3430   25.3500 O.co2     1 07N        -0.5667
     27 H1          6.3122    8.1836   24.4917 H         1 07N         0.0425
     28 H2          5.5840    9.5427   23.5703 H         1 07N         0.0425
     29 H3          6.4196    8.2126   22.6989 H         1 07N         0.0425
     30 H4          4.5381    6.5671   25.2688 H         1 07N         0.2335
     31 H5          0.5900    5.1309   23.3937 H         1 07N         0.1837
     32 H6         -0.0086    4.1656   26.0633 H         1 07N         0.0584
     33 H7          1.8047    2.5602   25.5866 H         1 07N         0.0309
     34 H8          1.0660    2.1570   23.9996 H         1 07N         0.0309
     35 H9         -0.2035    1.6989   26.7640 H         1 07N         0.0534
     36 H10         0.4530    0.4331   25.6714 H         1 07N         0.0534
     37 H11        -2.3592    2.9075   26.0081 H         1 07N         0.0562
     38 H12        -3.0198    2.4722   24.3954 H         1 07N         0.0562
     39 H13        -1.7610    4.6744   24.3945 H         1 07N         0.0696
     40 H14        -4.3052   -1.5647   23.4100 H         1 07N         0.0592
@<TRIPOS>BOND
     1    3    1 1  
     2    6    2 1  
     3    5    3 2  
     4    3    8 1  
     5    5    4 1  
     6    5    6 1  
     7    6    7 2  
     8    7    8 1  
     9    7    9 1  
    10    9   10 2  
    11    9   11 am 
    12   11   12 1  
    13   12   13 1  
    14   12   17 1  
    15   13   14 1  
    16   14   15 1  
    17   15   16 1  
    18   15   19 1  
    19   16   17 1  
    20   17   18 1  
    21   19   20 2  
    22   19   23 1  
    23   20   21 1  
    24   21   22 2  
    25   22   23 1  
    26   22   24 1  
    27   24   25 ar 
    28   24   26 ar 
    29    1   27 1  
    30    1   28 1  
    31    1   29 1  
    32    8   30 1  
    33   11   31 1  
    34   12   32 1  
    35   13   33 1  
    36   13   34 1  
    37   14   35 1  
    38   14   36 1  
    39   16   37 1  
    40   16   38 1  
    41   17   39 1  
    42   21   40 1  
@<TRIPOS>SUBSTRUCTURE
     1 07N         1

