### 
### Created by X-TOOL on Mon Sep 10 21:13:07 2018
### 

@<TRIPOS>MOLECULE
3tu1_ligand
   54    56     1     0     0
SMALL
GAST_HUCK


@<TRIPOS>ATOM
      1 C3          7.2600    2.2350   20.9840 C.ar      1 07G        -0.0265
      2 C4          6.7170    3.4980   20.7750 C.ar      1 07G         0.1588
      3 F1          7.4630    4.6110   20.9280 F         1 07G        -0.1861
      4 C5          5.3860    3.6090   20.4110 C.ar      1 07G         0.1576
      5 F2          4.8660    4.8280   20.2120 F         1 07G        -0.1901
      6 C6          4.6050    2.4680   20.2480 C.ar      1 07G        -0.0365
      7 C1          5.1530    1.2030   20.4620 C.ar      1 07G        -0.0641
      8 C2          6.4880    1.0800   20.8290 C.ar      1 07G        -0.0260
      9 C7          7.1230   -0.2900   21.1030 C.3       1 07G         0.0694
     10 N1          6.6320   -1.3660   20.2320 N.am      1 07G        -0.2359
     11 C8          5.6610   -2.1920   20.5980 C.2       1 07G         0.1772
     12 O1          5.0690   -2.0370   21.6680 O.2       1 07G        -0.3825
     13 C9          7.4400   -1.4280   19.0360 C.3       1 07G         0.1572
     14 C10         8.4890   -2.4580   18.8870 C.2       1 07G         0.2095
     15 O2          9.1050   -2.7100   19.9160 O.2       1 07G        -0.3925
     16 N3          8.8010   -2.9060   17.6550 N.am      1 07G        -0.2787
     17 C20         9.9610   -3.7900   17.3680 C.3       1 07G         0.0448
     18 C22         9.9380   -5.0580   18.2180 C.3       1 07G        -0.0396
     19 C23         9.9680   -4.1620   15.8870 C.3       1 07G        -0.0396
     20 C21        11.2300   -2.9800   17.6630 C.3       1 07G        -0.0396
     21 C11         7.1730   -0.4030   17.9290 C.2       1 07G         0.0165
     22 C14         8.1940    0.4940   17.7010 C.ar      1 07G        -0.0100
     23 C15         9.4800    0.6030   18.2310 C.ar      1 07G        -0.0713
     24 C16        10.3200    1.6060   17.7850 C.ar      1 07G        -0.0636
     25 C17         9.8850    2.4920   16.8080 C.ar      1 07G         0.0268
     26 CL1        10.9280    3.7540   16.2560 Cl        1 07G        -0.0785
     27 C18         8.6020    2.3730   16.2800 C.ar      1 07G        -0.0286
     28 C13         7.7500    1.3690   16.7250 C.ar      1 07G         0.0638
     29 N2          6.4950    1.0340   16.3990 N.pl3     1 07G        -0.2788
     30 C12         6.1120   -0.0270   17.1220 C.2       1 07G         0.0929
     31 C19         4.7310   -0.6430   16.9740 C.2       1 07G         0.0771
     32 O4          4.3320   -1.4890   17.7940 O.co2     1 07G        -0.5632
     33 O3          4.0650   -0.2090   16.0230 O.co2     1 07G        -0.5632
     34 H           8.3010    2.1445   21.2724 H         1 07G         0.0533
     35 H           3.5661    2.5630   19.9534 H         1 07G         0.0576
     36 H           4.5389    0.3178   20.3423 H         1 07G         0.0514
     37 H           6.9103   -0.5665   22.1462 H         1 07G         0.0683
     38 H           8.2102   -0.2008   20.9617 H         1 07G         0.0683
     39 H           5.3832   -3.0178   19.9448 H         1 07G         0.1550
     40 H           8.1774   -0.7506   19.4915 H         1 07G         0.0907
     41 H           8.2192   -2.6280   16.8906 H         1 07G         0.1858
     42 H          10.8117   -5.6797   17.9728 H         1 07G         0.0254
     43 H           9.0168   -5.6221   18.0102 H         1 07G         0.0254
     44 H           9.9690   -4.7859   19.2834 H         1 07G         0.0254
     45 H          10.8272   -4.8161   15.6773 H         1 07G         0.0254
     46 H          10.0461   -3.2482   15.2797 H         1 07G         0.0254
     47 H           9.0358   -4.6898   15.6371 H         1 07G         0.0254
     48 H          12.1159   -3.6005   17.4625 H         1 07G         0.0254
     49 H          11.2304   -2.6705   18.7186 H         1 07G         0.0254
     50 H          11.2537   -2.0883   17.0194 H         1 07G         0.0254
     51 H           9.8185   -0.0949   18.9882 H         1 07G         0.0554
     52 H          11.3179    1.7010   18.1976 H         1 07G         0.0520
     53 H           8.2660    3.0669   15.5180 H         1 07G         0.0551
     54 H           5.9135    1.5177   15.6998 H         1 07G         0.2212
@<TRIPOS>BOND
     1    1    2 ar 
     2    1    8 ar 
     3    2    3 1  
     4    2    4 ar 
     5    4    5 1  
     6    4    6 ar 
     7    6    7 ar 
     8    7    8 ar 
     9    8    9 1  
    10    9   10 1  
    11   10   11 am 
    12   10   13 1  
    13   11   12 2  
    14   13   14 1  
    15   13   21 1  
    16   14   15 2  
    17   14   16 am 
    18   16   17 1  
    19   17   18 1  
    20   17   19 1  
    21   17   20 1  
    22   21   22 1  
    23   21   30 2  
    24   22   23 ar 
    25   22   28 ar 
    26   23   24 ar 
    27   24   25 ar 
    28   25   26 1  
    29   25   27 ar 
    30   27   28 ar 
    31   28   29 1  
    32   29   30 1  
    33   30   31 1  
    34   31   32 ar 
    35   31   33 ar 
    36    1   34 1  
    37    6   35 1  
    38    7   36 1  
    39    9   37 1  
    40    9   38 1  
    41   11   39 1  
    42   13   40 1  
    43   16   41 1  
    44   18   42 1  
    45   18   43 1  
    46   18   44 1  
    47   19   45 1  
    48   19   46 1  
    49   19   47 1  
    50   20   48 1  
    51   20   49 1  
    52   20   50 1  
    53   23   51 1  
    54   24   52 1  
    55   27   53 1  
    56   29   54 1  
@<TRIPOS>SUBSTRUCTURE
     1 07G         1

