### 
### Created by X-TOOL on Mon Sep 10 21:13:05 2018
### 

@<TRIPOS>MOLECULE
3tu7_ligand
   68    70     1     0     0
SMALL
GAST_HUCK


@<TRIPOS>ATOM
      1 S10        25.1880    6.8250   23.5700 S.o2      1 0BM         0.0385
      2 O11        25.4090    6.4220   24.9210 O.2       1 0BM        -0.1556
      3 O12        24.8250    8.1800   23.2980 O.2       1 0BM        -0.1556
      4 C13        23.9730    5.7800   22.8720 C.3       1 0BM         0.0734
      5 N9         26.6110    6.5780   22.7990 N.am      1 0BM        -0.2281
      6 C8         27.3440    5.3200   22.8690 C.3       1 0BM         0.1356
      7 C15        26.9480    4.5060   21.6280 C.2       1 0BM         0.2045
      8 O16        26.8810    5.0780   20.5540 O.2       1 0BM        -0.3945
      9 C7         28.8430    5.6500   22.8740 C.3       1 0BM         0.0179
     10 C6         29.7150    4.4230   22.9550 C.ar      1 0BM        -0.0390
     11 C1         30.4780    4.0190   21.8630 C.ar      1 0BM        -0.0601
     12 C5         29.7700    3.6620   24.1190 C.ar      1 0BM        -0.0601
     13 C2         31.2690    2.8820   21.9310 C.ar      1 0BM        -0.0686
     14 C4         30.5640    2.5250   24.1870 C.ar      1 0BM        -0.0686
     15 C3         31.3130    2.1350   23.0950 C.ar      1 0BM        -0.0687
     16 N17        26.6090    3.2040   21.7600 N.am      1 0BM        -0.2500
     17 C21        26.2120    2.4040   20.5940 C.3       1 0BM         0.1336
     18 C22        24.8490    2.8670   20.0890 C.2       1 0BM         0.2019
     19 O23        24.0050    3.2950   20.8750 O.2       1 0BM        -0.3945
     20 C20        26.1330    0.9690   21.1500 C.3       1 0BM        -0.0104
     21 C19        26.8060    1.0140   22.4990 C.3       1 0BM        -0.0281
     22 C18        26.5430    2.4040   22.9930 C.3       1 0BM         0.0369
     23 N24        24.6430    2.8100   18.7790 N.am      1 0BM        -0.2848
     24 C25        23.4130    3.3180   18.1880 C.3       1 0BM         0.0340
     25 C26        23.4260    4.7010   17.5500 C.3       1 0BM        -0.0145
     26 C27        24.2250    4.7340   16.2500 C.3       1 0BM        -0.0149
     27 C28        24.0700    6.0750   15.5150 C.3       1 0BM         0.0652
     28 N29        24.4140    7.2150   16.3830 N.pl3     1 0BM        -0.2597
     29 C30        23.6990    7.2310   17.6770 C.3       1 0BM         0.0652
     30 C31        23.8340    5.8930   18.4170 C.3       1 0BM        -0.0149
     31 C32        24.8860    8.4200   15.7470 C.cat     1 0BM         0.2903
     32 N33        24.7240    9.6360   16.5220 N.pl3     1 0BM        -0.2848
     33 N34        25.4370    8.5360   14.5790 N.pl3     1 0BM        -0.2848
     34 H1         24.2344    4.7301   23.0707 H         1 0BM         0.0482
     35 H2         23.9260    5.9469   21.7858 H         1 0BM         0.0482
     36 H3         22.9941    6.0053   23.3203 H         1 0BM         0.0482
     37 H4         26.9949    7.3243   22.2552 H         1 0BM         0.1704
     38 H5         27.0815    4.7656   23.7821 H         1 0BM         0.0776
     39 H6         29.0581    6.2910   23.7417 H         1 0BM         0.0469
     40 H7         29.0858    6.1923   21.9483 H         1 0BM         0.0469
     41 H8         30.4535    4.6003   20.9483 H         1 0BM         0.0557
     42 H9         29.1863    3.9604   24.9823 H         1 0BM         0.0557
     43 H10        31.8540    2.5778   21.0706 H         1 0BM         0.0599
     44 H11        30.5958    1.9419   25.1003 H         1 0BM         0.0599
     45 H12        31.9329    1.2474   23.1491 H         1 0BM         0.0559
     46 H13        26.9552    2.4763   19.7863 H         1 0BM         0.0802
     47 H14        26.6586    0.2701   20.4828 H         1 0BM         0.0313
     48 H15        25.0837    0.6562   21.2556 H         1 0BM         0.0313
     49 H16        27.8865    0.8319   22.4025 H         1 0BM         0.0287
     50 H17        26.3678    0.2686   23.1790 H         1 0BM         0.0287
     51 H18        25.5501    2.4774   23.4607 H         1 0BM         0.0524
     52 H19        27.3118    2.7210   23.7130 H         1 0BM         0.0524
     53 H20        25.3443    2.4115   18.1880 H         1 0BM         0.1851
     54 H21        22.6542    3.3357   18.9842 H         1 0BM         0.0523
     55 H22        23.1095    2.6043   17.4080 H         1 0BM         0.0523
     56 H23        22.3777    4.8893   17.2749 H         1 0BM         0.0322
     57 H24        23.8697    3.9259   15.5938 H         1 0BM         0.0302
     58 H25        25.2886    4.5769   16.4823 H         1 0BM         0.0302
     59 H26        23.0265    6.1814   15.1836 H         1 0BM         0.0690
     60 H27        24.7353    6.0804   14.6390 H         1 0BM         0.0690
     61 H28        22.6330    7.4304   17.4928 H         1 0BM         0.0690
     62 H29        24.1182    8.0301   18.3061 H         1 0BM         0.0690
     63 H30        24.8824    5.7637   18.7238 H         1 0BM         0.0302
     64 H31        23.1911    5.9169   19.3092 H         1 0BM         0.0302
     65 H32        25.0368   10.5382   16.1360 H         1 0BM         0.2615
     66 H33        24.2962    9.5969   17.4582 H         1 0BM         0.2615
     67 H34        25.5747    7.7027   13.9895 H         1 0BM         0.2615
     68 H35        25.7370    9.4615   14.2407 H         1 0BM         0.2615
@<TRIPOS>BOND
     1    1    2 2  
     2    1    3 2  
     3    1    4 1  
     4    1    5 am 
     5    5    6 1  
     6    6    7 1  
     7    6    9 1  
     8    7    8 2  
     9    7   16 am 
    10    9   10 1  
    11   10   11 ar 
    12   10   12 ar 
    13   11   13 ar 
    14   12   14 ar 
    15   13   15 ar 
    16   14   15 ar 
    17   16   17 1  
    18   16   22 1  
    19   17   18 1  
    20   17   20 1  
    21   18   19 2  
    22   18   23 am 
    23   20   21 1  
    24   21   22 1  
    25   23   24 1  
    26   24   25 1  
    27   25   26 1  
    28   25   30 1  
    29   26   27 1  
    30   27   28 1  
    31   28   29 1  
    32   28   31 ar 
    33   29   30 1  
    34   31   32 ar 
    35   31   33 ar 
    36    4   34 1  
    37    4   35 1  
    38    4   36 1  
    39    5   37 1  
    40    6   38 1  
    41    9   39 1  
    42    9   40 1  
    43   11   41 1  
    44   12   42 1  
    45   13   43 1  
    46   14   44 1  
    47   15   45 1  
    48   17   46 1  
    49   20   47 1  
    50   20   48 1  
    51   21   49 1  
    52   21   50 1  
    53   22   51 1  
    54   22   52 1  
    55   23   53 1  
    56   24   54 1  
    57   24   55 1  
    58   25   56 1  
    59   26   57 1  
    60   26   58 1  
    61   27   59 1  
    62   27   60 1  
    63   29   61 1  
    64   29   62 1  
    65   30   63 1  
    66   30   64 1  
    67   32   65 1  
    68   32   66 1  
    69   33   67 1  
    70   33   68 1  
@<TRIPOS>SUBSTRUCTURE
     1 0BM         1

