### 
### Created by X-TOOL on Mon Sep 10 21:13:08 2018
### 

@<TRIPOS>MOLECULE
3tv4_ligand
   41    42     1     0     0
SMALL
GAST_HUCK


@<TRIPOS>ATOM
      1 N1         18.3810  -25.6150   -0.6190 N.ar      1 TV4        -0.2978
      2 C2         18.0520  -24.3380   -0.3160 C.ar      1 TV4         0.1031
      3 C3         16.7420  -23.8490   -0.4090 C.ar      1 TV4         0.0454
      4 C4         15.7270  -24.7220   -0.8380 C.ar      1 TV4        -0.0221
      5 C5         16.0450  -26.0510   -1.1690 C.ar      1 TV4         0.0827
      6 C6         17.3870  -26.4370   -1.0370 C.ar      1 TV4         0.0191
      7 N7         19.1310  -23.5380    0.1050 N.pl3     1 TV4        -0.3284
      8 BR8        16.3760  -22.0330    0.0410 Br        1 TV4        -0.0543
      9 N9         15.0820  -27.0230   -1.5870 N.am      1 TV4        -0.2348
     10 C10        13.9650  -26.9080   -2.3940 C.2       1 TV4         0.2256
     11 O11        13.6270  -25.8740   -2.9440 O.2       1 TV4        -0.3787
     12 C12        13.1360  -28.1180   -2.6430 C.ar      1 TV4         0.1070
     13 C13        12.6050  -28.9260   -1.6360 C.ar      1 TV4         0.1335
     14 C14        11.8250  -30.0420   -1.9570 C.ar      1 TV4        -0.0422
     15 C15        11.5540  -30.3650   -3.2860 C.ar      1 TV4        -0.0440
     16 C16        12.0710  -29.5560   -4.2940 C.ar      1 TV4         0.0978
     17 C17        12.8460  -28.4490   -3.9580 C.ar      1 TV4         0.1673
     18 F18        13.3470  -27.6760   -4.9220 F         1 TV4        -0.1906
     19 F19        12.8430  -28.6370   -0.3510 F         1 TV4        -0.1929
     20 N20        11.8710  -29.7900   -5.6570 N.am      1 TV4        -0.1922
     21 S21        10.9680  -31.1190   -6.1760 S.o2      1 TV4         0.0588
     22 O22        10.9440  -31.0460   -7.6260 O.2       1 TV4        -0.1502
     23 O23         9.7840  -31.1940   -5.3580 O.2       1 TV4        -0.1502
     24 C24        12.0310  -32.4750   -5.6610 C.3       1 TV4         0.0894
     25 C25        13.0570  -32.9150   -6.7030 C.3       1 TV4        -0.0342
     26 C26        14.3300  -32.0820   -6.7210 C.3       1 TV4        -0.0637
     27 H          14.6981  -24.3702   -0.9137 H         1 TV4         0.0624
     28 H          17.6480  -27.4654   -1.2869 H         1 TV4         0.0685
     29 H          20.0689  -23.9351    0.1611 H         1 TV4         0.1733
     30 H          18.9750  -22.5612    0.3540 H         1 TV4         0.1733
     31 H          15.2480  -27.9631   -1.2277 H         1 TV4         0.2231
     32 H          11.4243  -30.6665   -1.1586 H         1 TV4         0.0539
     33 H          10.9473  -31.2366   -3.5316 H         1 TV4         0.0495
     34 H          12.2738  -29.1527   -6.3441 H         1 TV4         0.2130
     35 H          11.3833  -33.3313   -5.4731 H         1 TV4         0.0523
     36 H          12.5907  -32.1265   -4.7930 H         1 TV4         0.0523
     37 H          12.5881  -32.8043   -7.6807 H         1 TV4         0.0279
     38 H          13.3462  -33.9365   -6.4561 H         1 TV4         0.0279
     39 H          14.0801  -31.0435   -6.9382 H         1 TV4         0.0230
     40 H          14.8170  -32.1440   -5.7478 H         1 TV4         0.0230
     41 H          15.0017  -32.4638   -7.4899 H         1 TV4         0.0230
@<TRIPOS>BOND
     1    1    2 ar 
     2    1    6 ar 
     3    2    3 ar 
     4    2    7 1  
     5    3    4 ar 
     6    3    8 1  
     7    4    5 ar 
     8    5    6 ar 
     9    5    9 1  
    10    9   10 am 
    11   10   11 2  
    12   10   12 1  
    13   12   13 ar 
    14   12   17 ar 
    15   13   14 ar 
    16   13   19 1  
    17   14   15 ar 
    18   15   16 ar 
    19   16   17 ar 
    20   16   20 1  
    21   17   18 1  
    22   20   21 am 
    23   21   22 2  
    24   21   23 2  
    25   21   24 1  
    26   24   25 1  
    27   25   26 1  
    28    4   27 1  
    29    6   28 1  
    30    7   29 1  
    31    7   30 1  
    32    9   31 1  
    33   14   32 1  
    34   15   33 1  
    35   20   34 1  
    36   24   35 1  
    37   24   36 1  
    38   25   37 1  
    39   25   38 1  
    40   26   39 1  
    41   26   40 1  
    42   26   41 1  
@<TRIPOS>SUBSTRUCTURE
     1 TV4         1

