### 
### Created by X-TOOL on Mon Sep 10 21:13:08 2018
### 

@<TRIPOS>MOLECULE
3tv6_ligand
   46    48     1     0     0
SMALL
GAST_HUCK


@<TRIPOS>ATOM
      1 C1         17.2570  -23.9250   -0.4770 C.ar      1 B0R         0.0572
      2 C2         18.5020  -24.5400   -0.2590 C.ar      1 B0R         0.1420
      3 N3         18.6510  -25.8760   -0.4060 N.ar      1 B0R        -0.2901
      4 C4         17.5690  -26.6080   -0.7740 C.ar      1 B0R         0.0230
      5 C5         16.2830  -26.0520   -1.0090 C.ar      1 B0R         0.0825
      6 C6         16.0990  -24.6500   -0.8590 C.ar      1 B0R        -0.0233
      7 C7         17.4580  -22.5490   -0.2380 C.2       1 B0R         0.1672
      8 N8         18.7620  -22.3740    0.1050 N.2       1 B0R        -0.1955
      9 N9         19.4020  -23.5900    0.0930 N.pl3     1 B0R        -0.2203
     10 N10        15.2570  -26.9820   -1.3860 N.am      1 B0R        -0.2352
     11 C11        14.0850  -26.8630   -2.0360 C.2       1 B0R         0.2253
     12 C12        13.3150  -28.1390   -2.2380 C.ar      1 B0R         0.1069
     13 O13        13.6480  -25.8010   -2.4840 O.2       1 B0R        -0.3788
     14 C14        13.0560  -28.5170   -3.5660 C.ar      1 B0R         0.1673
     15 C15        12.3480  -29.6910   -3.8700 C.ar      1 B0R         0.0978
     16 C16        11.8710  -30.5240   -2.8350 C.ar      1 B0R        -0.0440
     17 C17        12.1170  -30.1590   -1.4920 C.ar      1 B0R        -0.0422
     18 C18        12.8320  -28.9720   -1.1960 C.ar      1 B0R         0.1335
     19 F19        13.0490  -28.6500    0.1010 F         1 B0R        -0.1929
     20 F20        13.5010  -27.7370   -4.5660 F         1 B0R        -0.1906
     21 N21        12.1570  -29.9740   -5.1500 N.am      1 B0R        -0.1922
     22 S22        11.3580  -31.3210   -5.8090 S.o2      1 B0R         0.0588
     23 C23        12.4350  -32.7270   -5.3310 C.3       1 B0R         0.0894
     24 C24        13.5480  -33.0470   -6.3420 C.3       1 B0R        -0.0342
     25 C25        14.9050  -32.4730   -5.9190 C.3       1 B0R        -0.0637
     26 O26        10.0950  -31.4170   -5.0660 O.2       1 B0R        -0.1502
     27 O27        11.4170  -31.1480   -7.2700 O.2       1 B0R        -0.1502
     28 O28        16.6070  -21.4910   -0.2950 O.3       1 B0R        -0.3133
     29 C29        16.7240  -20.4970    0.7200 C.3       1 B0R         0.0588
     30 H          17.6939  -27.6839   -0.8962 H         1 B0R         0.0716
     31 H          15.1364  -24.1666   -1.0257 H         1 B0R         0.0585
     32 H          20.3854  -23.7500    0.3115 H         1 B0R         0.2359
     33 H          15.4601  -27.9396   -1.0994 H         1 B0R         0.2226
     34 H          11.3209  -31.4356   -3.0682 H         1 B0R         0.0495
     35 H          11.7557  -30.7923   -0.6817 H         1 B0R         0.0539
     36 H          12.5345  -29.3035   -5.8196 H         1 B0R         0.2130
     37 H          11.7986  -33.6096   -5.2659 H         1 B0R         0.0523
     38 H          12.9221  -32.4530   -4.3952 H         1 B0R         0.0523
     39 H          13.2751  -32.5982   -7.2971 H         1 B0R         0.0279
     40 H          13.6452  -34.1309   -6.4045 H         1 B0R         0.0279
     41 H          14.8288  -31.3890   -5.8334 H         1 B0R         0.0230
     42 H          15.1926  -32.8954   -4.9562 H         1 B0R         0.0230
     43 H          15.6551  -32.7278   -6.6676 H         1 B0R         0.0230
     44 H          16.5528  -20.9532    1.6950 H         1 B0R         0.0574
     45 H          17.7243  -20.0651    0.6902 H         1 B0R         0.0574
     46 H          15.9840  -19.7153    0.5482 H         1 B0R         0.0574
@<TRIPOS>BOND
     1    1    2 ar 
     2    1    6 ar 
     3    1    7 1  
     4    2    3 ar 
     5    2    9 1  
     6    3    4 ar 
     7    4    5 ar 
     8    5    6 ar 
     9    5   10 1  
    10    7    8 2  
    11    7   28 1  
    12    8    9 1  
    13   10   11 am 
    14   11   12 1  
    15   11   13 2  
    16   12   14 ar 
    17   12   18 ar 
    18   14   15 ar 
    19   14   20 1  
    20   15   16 ar 
    21   15   21 1  
    22   16   17 ar 
    23   17   18 ar 
    24   18   19 1  
    25   21   22 am 
    26   22   23 1  
    27   22   26 2  
    28   22   27 2  
    29   23   24 1  
    30   24   25 1  
    31   28   29 1  
    32    4   30 1  
    33    6   31 1  
    34    9   32 1  
    35   10   33 1  
    36   16   34 1  
    37   17   35 1  
    38   21   36 1  
    39   23   37 1  
    40   23   38 1  
    41   24   39 1  
    42   24   40 1  
    43   25   41 1  
    44   25   42 1  
    45   25   43 1  
    46   29   44 1  
    47   29   45 1  
    48   29   46 1  
@<TRIPOS>SUBSTRUCTURE
     1 B0R         1

