### 
### Created by X-TOOL on Mon Sep 10 21:13:10 2018
### 

@<TRIPOS>MOLECULE
3tv7_ligand
   43    45     1     0     0
SMALL
GAST_HUCK


@<TRIPOS>ATOM
      1 O01         1.0910  -46.9370   12.9000 O.2       1 07Q        -0.3861
      2 C02         2.2820  -46.6240   12.8010 C.2       1 07Q         0.3014
      3 N03         2.8900  -46.5020   11.4730 N.am      1 07Q        -0.2521
      4 C04         2.9890  -45.2190   10.7360 C.3       1 07Q         0.0715
      5 C05         3.7970  -44.1850   11.5090 C.3       1 07Q        -0.0322
      6 C06         1.6520  -44.6180   10.2890 C.ar      1 07Q        -0.0274
      7 C07         1.2570  -43.3310   10.6920 C.ar      1 07Q        -0.0693
      8 C08         0.0310  -42.7870   10.2780 C.ar      1 07Q        -0.0771
      9 C09        -0.8170  -43.5370    9.4460 C.ar      1 07Q        -0.0401
     10 C10        -0.4410  -44.8230    9.0310 C.ar      1 07Q         0.0841
     11 O11        -1.2680  -45.5880    8.2160 O.3       1 07Q        -0.3230
     12 C12        -1.4460  -46.9390    8.5250 C.3       1 07Q         0.0592
     13 C13         0.7970  -45.3660    9.4550 C.ar      1 07Q        -0.0301
     14 N14         3.1010  -46.3650   14.0090 N.am      1 07Q        -0.1788
     15 C15         2.6190  -46.5280   15.3960 C.2       1 07Q         0.2089
     16 N16         3.2850  -45.9580   16.5080 N.2       1 07Q        -0.3137
     17 C17         2.6020  -46.2620   17.8140 C.2       1 07Q         0.0104
     18 C18         3.0800  -45.7950   19.1800 C.ar      1 07Q        -0.0081
     19 C19         4.0880  -44.7950   19.3060 C.ar      1 07Q        -0.0325
     20 C20         4.5170  -44.3870   20.5820 C.ar      1 07Q         0.0056
     21 N21         3.9790  -44.9420   21.6830 N.ar      1 07Q        -0.3039
     22 C22         3.0070  -45.9080   21.6010 C.ar      1 07Q         0.0056
     23 C23         2.5480  -46.3550   20.3540 C.ar      1 07Q        -0.0325
     24 C24         1.4510  -47.0750   17.5560 C.2       1 07Q         0.0132
     25 S25         1.3000  -47.3560   15.9480 S.3       1 07Q         0.0231
     26 H           3.2643  -47.3428   11.0331 H         1 07Q         0.1886
     27 H           3.5148  -45.4839    9.8187 H         1 07Q         0.0713
     28 H           3.9881  -43.3231   10.8697 H         1 07Q         0.0274
     29 H           3.2348  -43.8695   12.3880 H         1 07Q         0.0274
     30 H           4.7443  -44.6250   11.8206 H         1 07Q         0.0274
     31 H           1.9131  -42.7458   11.3364 H         1 07Q         0.0465
     32 H          -0.2616  -41.7877   10.6004 H         1 07Q         0.0572
     33 H          -1.7698  -43.1183    9.1221 H         1 07Q         0.0486
     34 H          -0.4818  -47.4466    8.4981 H         1 07Q         0.0577
     35 H          -1.8775  -47.0286    9.5219 H         1 07Q         0.0577
     36 H          -2.1170  -47.3920    7.7952 H         1 07Q         0.0577
     37 H           1.0893  -46.3661    9.1349 H         1 07Q         0.0479
     38 H           4.0626  -46.0531   13.8735 H         1 07Q         0.2412
     39 H           4.5261  -44.3468   18.4142 H         1 07Q         0.0682
     40 H           5.2860  -43.6205   20.6787 H         1 07Q         0.0807
     41 H           2.5882  -46.3314   22.5139 H         1 07Q         0.0807
     42 H           1.7845  -47.1308   20.2955 H         1 07Q         0.0682
     43 H           0.7721  -47.4531   18.3203 H         1 07Q         0.0698
@<TRIPOS>BOND
     1    1    2 2  
     2    2    3 am 
     3    2   14 am 
     4    3    4 1  
     5    4    5 1  
     6    4    6 1  
     7    6    7 ar 
     8    6   13 ar 
     9    7    8 ar 
    10    8    9 ar 
    11    9   10 ar 
    12   10   11 1  
    13   10   13 ar 
    14   11   12 1  
    15   14   15 1  
    16   15   16 2  
    17   15   25 1  
    18   16   17 1  
    19   17   18 1  
    20   17   24 2  
    21   18   19 ar 
    22   18   23 ar 
    23   19   20 ar 
    24   20   21 ar 
    25   21   22 ar 
    26   22   23 ar 
    27   24   25 1  
    28    3   26 1  
    29    4   27 1  
    30    5   28 1  
    31    5   29 1  
    32    5   30 1  
    33    7   31 1  
    34    8   32 1  
    35    9   33 1  
    36   12   34 1  
    37   12   35 1  
    38   12   36 1  
    39   13   37 1  
    40   14   38 1  
    41   19   39 1  
    42   20   40 1  
    43   22   41 1  
    44   23   42 1  
    45   24   43 1  
@<TRIPOS>SUBSTRUCTURE
     1 07Q         1

