### 
### Created by X-TOOL on Mon Sep 10 21:13:10 2018
### 

@<TRIPOS>MOLECULE
3tv8_ligand
   25    25     1     0     0
SMALL
GAST_HUCK


@<TRIPOS>ATOM
      1 C1        -17.8010   61.5930  105.6910 C.3       1 DGJ        -0.0040
      2 C2        -16.9140   60.5440  106.3290 C.3       1 DGJ         0.1231
      3 O2        -15.8610   61.1910  107.0540 O.3       1 DGJ        -0.3838
      4 C3        -16.3890   59.6060  105.2450 C.3       1 DGJ         0.1171
      5 O3        -15.4800   58.6600  105.8140 O.3       1 DGJ        -0.3862
      6 C4        -17.5530   58.8870  104.5690 C.3       1 DGJ         0.1280
      7 O4        -18.2230   58.0580  105.5260 O.3       1 DGJ        -0.3835
      8 C5        -18.5250   59.9010  103.9680 C.3       1 DGJ         0.0301
      9 N5        -18.8440   60.9210  104.9440 N.4       1 DGJ         0.2346
     10 C6        -19.8150   59.2410  103.4970 C.3       1 DGJ         0.0893
     11 O6        -20.6710   60.1880  102.8460 O.3       1 DGJ        -0.3894
     12 H1        -17.2044   62.2205  105.0126 H         1 DGJ         0.0840
     13 H2        -18.2514   62.2230  106.4722 H         1 DGJ         0.0840
     14 H3        -17.5110   59.9532  107.0393 H         1 DGJ         0.0674
     15 H4        -15.3472   61.7223  106.4572 H         1 DGJ         0.2101
     16 H5        -15.8539   60.2003  104.4897 H         1 DGJ         0.0649
     17 H6        -15.1591   58.0813  105.1323 H         1 DGJ         0.2100
     18 H7        -17.1599   58.2525  103.7611 H         1 DGJ         0.0678
     19 H8        -18.9473   57.6110  105.1040 H         1 DGJ         0.2102
     20 H9        -18.0391   60.3755  103.1027 H         1 DGJ         0.0900
     21 H10       -19.3518   61.6393  104.4518 H         1 DGJ         0.2019
     22 H11       -19.4490   60.4875  105.6237 H         1 DGJ         0.2019
     23 H12       -20.3411   58.8194  104.3662 H         1 DGJ         0.0614
     24 H13       -19.5688   58.4344  102.7907 H         1 DGJ         0.0614
     25 H14       -21.4661   59.7521  102.5628 H         1 DGJ         0.2097
@<TRIPOS>BOND
     1    1    2 1  
     2    1    9 1  
     3    2    3 1  
     4    2    4 1  
     5    4    5 1  
     6    4    6 1  
     7    6    7 1  
     8    6    8 1  
     9    8    9 1  
    10    8   10 1  
    11   10   11 1  
    12    1   12 1  
    13    1   13 1  
    14    2   14 1  
    15    3   15 1  
    16    4   16 1  
    17    5   17 1  
    18    6   18 1  
    19    7   19 1  
    20    8   20 1  
    21    9   21 1  
    22    9   22 1  
    23   10   23 1  
    24   10   24 1  
    25   11   25 1  
@<TRIPOS>SUBSTRUCTURE
     1 DGJ         1

