### 
### Created by X-TOOL on Mon Sep 10 21:13:09 2018
### 

@<TRIPOS>MOLECULE
3tvc_ligand
   57    59     1     0     0
SMALL
GAST_HUCK


@<TRIPOS>ATOM
      1 C1        -10.3980  -30.1510    1.6300 C.2       1 E3P         0.0350
      2 N1        -12.6170  -29.1180   -0.3150 N.am      1 E3P        -0.2654
      3 C2        -10.6610  -31.2060    0.5970 C.3       1 E3P         0.0044
      4 O2        -11.4330  -28.5160   -2.1770 O.2       1 E3P        -0.3967
      5 C3        -12.1340  -31.3940    0.4020 C.3       1 E3P        -0.0009
      6 N3        -14.8690  -30.0020   -1.5950 N.am      1 E3P        -0.2990
      7 C4        -12.6630  -30.5120   -0.7160 C.3       1 E3P         0.1321
      8 C5        -14.0710  -30.8830   -1.0560 C.2       1 E3P         0.1993
      9 O5        -14.4880  -32.0180   -0.8360 O.2       1 E3P        -0.3947
     10 C6        -11.9550  -28.1470   -1.1450 C.2       1 E3P         0.1802
     11 O6         -9.2500  -29.6560    1.7680 O.co2     1 E3P        -0.5690
     12 C7        -11.8760  -26.6930   -0.7210 C.3       1 E3P         0.0472
     13 O7        -11.3300  -29.7540    2.3830 O.co2     1 E3P        -0.5690
     14 C8        -10.5470  -26.5770   -0.0110 C.3       1 E3P        -0.0017
     15 C9        -10.4830  -25.2440    0.6920 C.ar      1 E3P        -0.0397
     16 C10        -9.5620  -24.3290    0.2750 C.ar      1 E3P        -0.0587
     17 C11        -9.4520  -22.9970    0.9440 C.ar      1 E3P        -0.0600
     18 C12       -10.2920  -22.6970    1.9510 C.ar      1 E3P        -0.0241
     19 C13       -11.2970  -23.6890    2.4190 C.ar      1 E3P        -0.0600
     20 C14       -11.3980  -24.9210    1.8160 C.ar      1 E3P        -0.0587
     21 C15        -9.9850  -18.8270    3.9210 C.ar      1 E3P        -0.0187
     22 C16       -10.8530  -19.8840    4.4860 C.ar      1 E3P        -0.0545
     23 C17       -10.9480  -21.1010    3.8580 C.ar      1 E3P        -0.0550
     24 C19       -10.1750  -21.3460    2.6150 C.ar      1 E3P        -0.0220
     25 C35        -9.3700  -20.3750    2.0920 C.ar      1 E3P        -0.0550
     26 C36        -9.2570  -19.0440    2.7850 C.ar      1 E3P        -0.0545
     27 C37        -9.8910  -17.5350    4.6580 C.ar      1 E3P        -0.0185
     28 C38        -9.6200  -16.2550    3.9410 C.ar      1 E3P        -0.0543
     29 C39        -9.5220  -15.1040    4.6660 C.ar      1 E3P        -0.0614
     30 C40        -9.6690  -15.1420    6.1540 C.ar      1 E3P        -0.0619
     31 C41        -9.9010  -16.3170    6.8060 C.ar      1 E3P        -0.0614
     32 C42       -10.0150  -17.5770    6.0170 C.ar      1 E3P        -0.0543
     33 H1        -13.0469  -28.8314    0.5412 H         1 E3P         0.1883
     34 H2        -10.2157  -32.1558    0.9281 H         1 E3P         0.0433
     35 H3        -10.2058  -30.9003   -0.3566 H         1 E3P         0.0433
     36 H4        -12.6542  -31.1374    1.3366 H         1 E3P         0.0330
     37 H5        -12.3301  -32.4467    0.1503 H         1 E3P         0.0330
     38 H6        -15.8103  -30.2524   -1.8215 H         1 E3P         0.1815
     39 H7        -14.5392  -29.0766   -1.7814 H         1 E3P         0.1815
     40 H8        -12.0319  -30.6508   -1.6062 H         1 E3P         0.0801
     41 H9        -12.7032  -26.4408   -0.0412 H         1 E3P         0.0525
     42 H10       -11.9072  -26.0300   -1.5982 H         1 E3P         0.0525
     43 H11        -9.7296  -26.6476   -0.7437 H         1 E3P         0.0454
     44 H12       -10.4500  -27.3880    0.7258 H         1 E3P         0.0454
     45 H13        -8.9024  -24.5703   -0.5507 H         1 E3P         0.0561
     46 H14        -8.7044  -22.2813    0.6216 H         1 E3P         0.0609
     47 H15       -11.9557  -23.4386    3.2427 H         1 E3P         0.0609
     48 H16       -12.1321  -25.6430    2.1551 H         1 E3P         0.0561
     49 H17       -11.4133  -19.6974    5.3950 H         1 E3P         0.0622
     50 H18       -11.5835  -21.8780    4.2673 H         1 E3P         0.0615
     51 H19        -8.8141  -20.5623    1.1805 H         1 E3P         0.0615
     52 H20        -8.6089  -18.2702    2.3897 H         1 E3P         0.0622
     53 H21        -9.5031  -16.2401    2.8634 H         1 E3P         0.0622
     54 H22        -9.3375  -14.1613    4.1637 H         1 E3P         0.0617
     55 H23        -9.5900  -14.2223    6.7223 H         1 E3P         0.0616
     56 H24       -10.0014  -16.3348    7.8852 H         1 E3P         0.0617
     57 H25       -10.1952  -18.5206    6.5193 H         1 E3P         0.0622
@<TRIPOS>BOND
     1    3    1 1  
     2    1   11 ar 
     3    1   13 ar 
     4    2    7 1  
     5   10    2 am 
     6    5    3 1  
     7   10    4 2  
     8    7    5 1  
     9    8    6 am 
    10    7    8 1  
    11    8    9 2  
    12   12   10 1  
    13   14   12 1  
    14   15   14 1  
    15   16   15 ar 
    16   20   15 ar 
    17   17   16 ar 
    18   18   17 ar 
    19   18   19 ar 
    20   24   18 1  
    21   19   20 ar 
    22   22   21 ar 
    23   21   26 ar 
    24   21   27 1  
    25   23   22 ar 
    26   23   24 ar 
    27   24   25 ar 
    28   25   26 ar 
    29   27   28 ar 
    30   27   32 ar 
    31   28   29 ar 
    32   29   30 ar 
    33   30   31 ar 
    34   31   32 ar 
    35    2   33 1  
    36    3   34 1  
    37    3   35 1  
    38    5   36 1  
    39    5   37 1  
    40    6   38 1  
    41    6   39 1  
    42    7   40 1  
    43   12   41 1  
    44   12   42 1  
    45   14   43 1  
    46   14   44 1  
    47   16   45 1  
    48   17   46 1  
    49   19   47 1  
    50   20   48 1  
    51   22   49 1  
    52   23   50 1  
    53   25   51 1  
    54   26   52 1  
    55   28   53 1  
    56   29   54 1  
    57   30   55 1  
    58   31   56 1  
    59   32   57 1  
@<TRIPOS>SUBSTRUCTURE
     1 E3P         1

