### 
### Created by X-TOOL on Mon Sep 10 21:13:11 2018
### 

@<TRIPOS>MOLECULE
3tvx_ligand
   38    39     1     0     0
SMALL
GAST_HUCK


@<TRIPOS>ATOM
      1 CAA        39.9500   15.7000  -28.6970 C.3       1 PNX         0.0094
      2 CAM        39.9740   15.3860  -27.2170 C.2       1 PNX         0.1019
      3 OAD        40.0460   14.2180  -26.8610 O.2       1 PNX        -0.3919
      4 CAJ        39.9090   16.5140  -26.2080 C.3       1 PNX         0.0209
      5 CAH        39.7630   16.0360  -24.7610 C.3       1 PNX        -0.0350
      6 CAI        41.1300   15.8710  -24.0980 C.3       1 PNX        -0.0260
      7 CAK        41.7740   17.2370  -23.8400 C.3       1 PNX         0.0589
      8 N1         43.2350   17.1890  -24.0050 N.am      1 PNX        -0.1709
      9 C6         43.9830   16.9800  -22.8900 C.2       1 PNX         0.2299
     10 O6         43.4590   16.8300  -21.7970 O.2       1 PNX        -0.4007
     11 C5         45.3720   16.9450  -23.0650 C.2       1 PNX         0.1624
     12 N7         46.4020   16.7550  -22.1950 N.pl3     1 PNX        -0.2541
     13 CAB        46.3660   16.5280  -20.7480 C.3       1 PNX         0.0424
     14 C8         47.5530   16.8080  -22.9050 C.2       1 PNX         0.0975
     15 N9         47.2690   17.0230  -24.2070 N.2       1 PNX        -0.2859
     16 C4         45.9260   17.1190  -24.3400 C.2       1 PNX         0.1377
     17 N3         45.1490   17.3300  -25.4320 N.am      1 PNX        -0.2025
     18 CAC        45.7430   17.5140  -26.7580 C.3       1 PNX         0.0446
     19 C2         43.8030   17.3600  -25.2340 C.2       1 PNX         0.3179
     20 O2         43.0930   17.5460  -26.2150 O.2       1 PNX        -0.3873
     21 H1         39.8835   16.7887  -28.8398 H         1 PNX         0.0458
     22 H2         39.0780   15.2155  -29.1606 H         1 PNX         0.0458
     23 H3         40.8710   15.3242  -29.1666 H         1 PNX         0.0458
     24 H4         39.0454   17.1498  -26.4527 H         1 PNX         0.0494
     25 H5         40.8335   17.1048  -26.2872 H         1 PNX         0.0494
     26 H6         39.2402   15.0682  -24.7529 H         1 PNX         0.0291
     27 H7         39.1759   16.7747  -24.1956 H         1 PNX         0.0291
     28 H8         41.7834   15.2826  -24.7589 H         1 PNX         0.0290
     29 H9         41.0060   15.3435  -23.1407 H         1 PNX         0.0290
     30 H10        41.5414   17.5525  -22.8122 H         1 PNX         0.0576
     31 H11        41.3588   17.9669  -24.5505 H         1 PNX         0.0576
     32 H12        47.3925   16.4158  -20.3688 H         1 PNX         0.0575
     33 H13        45.7942   15.6129  -20.5345 H         1 PNX         0.0575
     34 H14        45.8844   17.3849  -20.2543 H         1 PNX         0.0575
     35 H15        48.5535   16.6947  -22.4901 H         1 PNX         0.1263
     36 H16        46.8385   17.4516  -26.6808 H         1 PNX         0.0548
     37 H17        45.4589   18.5003  -27.1534 H         1 PNX         0.0548
     38 H18        45.3779   16.7282  -27.4356 H         1 PNX         0.0548
@<TRIPOS>BOND
     1    1    2 1  
     2    2    3 2  
     3    2    4 1  
     4    4    5 1  
     5    5    6 1  
     6    6    7 1  
     7    7    8 1  
     8    8    9 am 
     9    8   19 am 
    10    9   10 2  
    11    9   11 1  
    12   11   12 1  
    13   11   16 2  
    14   12   13 1  
    15   12   14 1  
    16   14   15 2  
    17   15   16 1  
    18   16   17 1  
    19   17   18 1  
    20   17   19 am 
    21   19   20 2  
    22    1   21 1  
    23    1   22 1  
    24    1   23 1  
    25    4   24 1  
    26    4   25 1  
    27    5   26 1  
    28    5   27 1  
    29    6   28 1  
    30    6   29 1  
    31    7   30 1  
    32    7   31 1  
    33   13   32 1  
    34   13   33 1  
    35   13   34 1  
    36   14   35 1  
    37   18   36 1  
    38   18   37 1  
    39   18   38 1  
@<TRIPOS>SUBSTRUCTURE
     1 PNX         1

