### 
### Created by X-TOOL on Mon Sep 10 21:13:08 2018
### 

@<TRIPOS>MOLECULE
3twd_ligand
   59    61     1     0     0
SMALL
GAST_HUCK


@<TRIPOS>ATOM
      1 C1         23.8730  -26.9290  -15.6780 C.3       1 GOB         0.0561
      2 O2         24.7420  -25.8120  -15.4050 O.3       1 GOB        -0.3297
      3 C3         25.3060  -25.2360  -16.5180 C.ar      1 GOB         0.1049
      4 C4         24.9900  -25.6330  -17.8100 C.ar      1 GOB        -0.0149
      5 C5         25.6060  -24.9990  -18.8980 C.ar      1 GOB         0.0941
      6 C6         26.5600  -23.9880  -18.6800 C.ar      1 GOB         0.1228
      7 C7         26.8830  -23.5880  -17.3840 C.ar      1 GOB        -0.0297
      8 C8         26.2550  -24.2110  -16.3070 C.ar      1 GOB         0.0874
      9 N9         26.5350  -23.9000  -14.9660 N.am      1 GOB        -0.2427
     10 C10        27.5510  -23.1750  -14.4460 C.2       1 GOB         0.1997
     11 O11        28.4100  -22.6220  -15.1190 O.2       1 GOB        -0.3876
     12 C12        27.5440  -23.1200  -12.9330 C.3       1 GOB         0.0535
     13 C13        27.9470  -21.7550  -12.3920 C.3       1 GOB         0.0174
     14 C14        27.9440  -21.9340  -10.8930 C.2       1 GOB         0.0370
     15 O15        28.8140  -22.5570  -10.3120 O.co2     1 GOB        -0.5689
     16 O16        26.9580  -21.3860  -10.2020 O.co2     1 GOB        -0.5689
     17 S17        27.3370  -23.1420  -20.0360 S.o2      1 GOB         0.0978
     18 O18        27.9580  -24.0910  -20.8630 O.2       1 GOB        -0.1433
     19 O19        27.9950  -22.0560  -19.4150 O.2       1 GOB        -0.1433
     20 N20        26.0010  -22.5020  -20.8190 N.am      1 GOB        -0.1291
     21 C21        24.9040  -21.9840  -20.0840 C.ar      1 GOB         0.0893
     22 C22        23.6350  -22.5840  -20.2030 C.ar      1 GOB        -0.0396
     23 C23        22.5540  -22.0940  -19.4640 C.ar      1 GOB        -0.0761
     24 C24        22.7340  -21.0070  -18.6110 C.ar      1 GOB        -0.0778
     25 C25        23.9950  -20.4030  -18.4790 C.ar      1 GOB        -0.0761
     26 C26        25.0700  -20.8800  -19.2220 C.ar      1 GOB        -0.0396
     27 C27        26.0160  -22.5440  -22.2280 C.ar      1 GOB         0.0805
     28 C28        26.5180  -21.4590  -22.9440 C.ar      1 GOB        -0.0488
     29 C29        26.5610  -21.5060  -24.3330 C.ar      1 GOB        -0.0567
     30 C30        26.1130  -22.6380  -25.0020 C.ar      1 GOB         0.0209
     31 C31        25.6200  -23.7350  -24.2960 C.ar      1 GOB        -0.0567
     32 C32        25.5700  -23.6840  -22.9100 C.ar      1 GOB        -0.0488
     33 N33        26.1700  -22.6740  -26.3940 N.pl3     1 GOB        -0.3447
     34 O34        25.3230  -25.3540  -20.1970 O.3       1 GOB        -0.3315
     35 C35        24.2670  -26.3210  -20.3770 C.3       1 GOB         0.0561
     36 H          23.0508  -26.6011  -16.3140 H         1 GOB         0.0572
     37 H          24.4373  -27.7111  -16.1859 H         1 GOB         0.0572
     38 H          23.4760  -27.3166  -14.7398 H         1 GOB         0.0572
     39 H          24.2679  -26.4322  -17.9774 H         1 GOB         0.0427
     40 H          27.6162  -22.7993  -17.2155 H         1 GOB         0.0462
     41 H          25.8754  -24.2761  -14.2849 H         1 GOB         0.2186
     42 H          28.2660  -23.8507  -12.5685 H         1 GOB         0.0524
     43 H          26.5284  -23.3269  -12.5956 H         1 GOB         0.0524
     44 H          27.2648  -20.9679  -12.7132 H         1 GOB         0.0455
     45 H          28.9198  -21.4357  -12.7658 H         1 GOB         0.0455
     46 H          23.4955  -23.4324  -20.8729 H         1 GOB         0.0500
     47 H          21.5733  -22.5609  -19.5549 H         1 GOB         0.0575
     48 H          21.8884  -20.6220  -18.0410 H         1 GOB         0.0482
     49 H          24.1309  -19.5637  -17.7970 H         1 GOB         0.0575
     50 H          26.0444  -20.3987  -19.1377 H         1 GOB         0.0500
     51 H          26.8763  -20.5752  -22.4162 H         1 GOB         0.0478
     52 H          26.9457  -20.6557  -24.8962 H         1 GOB         0.0481
     53 H          25.2776  -24.6231  -24.8272 H         1 GOB         0.0481
     54 H          25.1821  -24.5345  -22.3494 H         1 GOB         0.0478
     55 H          26.5377  -21.8748  -26.9102 H         1 GOB         0.1677
     56 H          25.8440  -23.4996  -26.8966 H         1 GOB         0.1677
     57 H          24.5306  -27.2450  -19.8624 H         1 GOB         0.0572
     58 H          23.3394  -25.9253  -19.9635 H         1 GOB         0.0572
     59 H          24.1362  -26.5205  -21.4406 H         1 GOB         0.0572
@<TRIPOS>BOND
     1    1    2 1  
     2    2    3 1  
     3    3    4 ar 
     4    3    8 ar 
     5    4    5 ar 
     6    5    6 ar 
     7    5   34 1  
     8    6    7 ar 
     9    6   17 1  
    10    7    8 ar 
    11    8    9 1  
    12    9   10 am 
    13   10   11 2  
    14   10   12 1  
    15   12   13 1  
    16   13   14 1  
    17   14   15 ar 
    18   14   16 ar 
    19   17   18 2  
    20   17   19 2  
    21   17   20 am 
    22   20   21 1  
    23   20   27 1  
    24   21   22 ar 
    25   21   26 ar 
    26   22   23 ar 
    27   23   24 ar 
    28   24   25 ar 
    29   25   26 ar 
    30   27   28 ar 
    31   27   32 ar 
    32   28   29 ar 
    33   29   30 ar 
    34   30   31 ar 
    35   30   33 1  
    36   31   32 ar 
    37   34   35 1  
    38    1   36 1  
    39    1   37 1  
    40    1   38 1  
    41    4   39 1  
    42    7   40 1  
    43    9   41 1  
    44   12   42 1  
    45   12   43 1  
    46   13   44 1  
    47   13   45 1  
    48   22   46 1  
    49   23   47 1  
    50   24   48 1  
    51   25   49 1  
    52   26   50 1  
    53   28   51 1  
    54   29   52 1  
    55   31   53 1  
    56   32   54 1  
    57   33   55 1  
    58   33   56 1  
    59   35   57 1  
    60   35   58 1  
    61   35   59 1  
@<TRIPOS>SUBSTRUCTURE
     1 GOB         1

