### 
### Created by X-TOOL on Mon Sep 10 21:13:11 2018
### 

@<TRIPOS>MOLECULE
3twj_ligand
   37    39     1     0     0
SMALL
GAST_HUCK


@<TRIPOS>ATOM
      1 O01        18.1410   33.9910   17.4340 O.2       1 07R        -0.3861
      2 C02        17.0810   34.6940   17.1920 C.2       1 07R         0.3012
      3 N03        16.7840   35.2250   15.8200 N.am      1 07R        -0.2548
      4 C04        15.7660   34.5490   14.9280 C.3       1 07R         0.0632
      5 C05        16.4980   33.8560   13.7670 C.ar      1 07R        -0.0301
      6 C06        17.5530   34.6580   13.0850 C.ar      1 07R        -0.0306
      7 C07        18.2700   34.0950   12.0560 C.ar      1 07R         0.0810
      8 O08        19.2520   34.8570   11.3830 O.3       1 07R        -0.3349
      9 C09        17.9950   32.7690   11.6720 C.ar      1 07R        -0.0403
     10 C10        16.9630   31.9720   12.3300 C.ar      1 07R        -0.0771
     11 C11        16.2180   32.5300   13.3890 C.ar      1 07R        -0.0695
     12 N12        16.1300   34.9920   18.2600 N.am      1 07R        -0.1788
     13 C13        16.3900   34.1760   19.4700 C.2       1 07R         0.2089
     14 N14        15.5060   33.2670   20.1570 N.2       1 07R        -0.3137
     15 C15        16.1340   32.5800   21.3290 C.2       1 07R         0.0104
     16 C16        15.3800   31.5700   22.1710 C.ar      1 07R        -0.0081
     17 C17        14.0660   31.1100   21.6840 C.ar      1 07R        -0.0325
     18 C18        13.2520   30.1420   22.4060 C.ar      1 07R         0.0056
     19 N19        13.7090   29.6190   23.5810 N.ar      1 07R        -0.3039
     20 C20        14.9640   30.0280   24.0520 C.ar      1 07R         0.0056
     21 C21        15.8490   30.9900   23.3790 C.ar      1 07R        -0.0325
     22 C22        17.5050   33.0770   21.4160 C.2       1 07R         0.0132
     23 S23        17.8690   34.1450   20.1850 S.3       1 07R         0.0231
     24 H1         17.2658   36.0371   15.4908 H         1 07R         0.1883
     25 H2         15.0693   35.3006   14.5282 H         1 07R         0.0680
     26 H3         15.2055   33.8017   15.5088 H         1 07R         0.0680
     27 H4         17.7532   35.6764   13.3977 H         1 07R         0.0479
     28 H5         19.6527   34.3266   10.7043 H         1 07R         0.2479
     29 H6         18.5661   32.3262   10.8640 H         1 07R         0.0485
     30 H7         16.7707   30.9557   12.0055 H         1 07R         0.0572
     31 H8         15.4524   31.9546   13.8968 H         1 07R         0.0465
     32 H9         15.3936   35.6643   18.1842 H         1 07R         0.2412
     33 H10        13.6902   31.5094   20.7490 H         1 07R         0.0682
     34 H11        12.2886   29.8386   22.0125 H         1 07R         0.0807
     35 H12        15.3096   29.6012   24.9866 H         1 07R         0.0807
     36 H13        16.8196   31.2459   23.7883 H         1 07R         0.0682
     37 H14        18.2086   32.7846   22.1941 H         1 07R         0.0698
@<TRIPOS>BOND
     1    1    2 2  
     2    2    3 am 
     3    2   12 am 
     4    3    4 1  
     5    4    5 1  
     6    5    6 ar 
     7    5   11 ar 
     8    6    7 ar 
     9    7    8 1  
    10    7    9 ar 
    11    9   10 ar 
    12   10   11 ar 
    13   12   13 1  
    14   13   14 2  
    15   13   23 1  
    16   14   15 1  
    17   15   16 1  
    18   15   22 2  
    19   16   17 ar 
    20   16   21 ar 
    21   17   18 ar 
    22   18   19 ar 
    23   19   20 ar 
    24   20   21 ar 
    25   22   23 1  
    26    3   24 1  
    27    4   25 1  
    28    4   26 1  
    29    6   27 1  
    30    8   28 1  
    31    9   29 1  
    32   10   30 1  
    33   11   31 1  
    34   12   32 1  
    35   17   33 1  
    36   18   34 1  
    37   20   35 1  
    38   21   36 1  
    39   22   37 1  
@<TRIPOS>SUBSTRUCTURE
     1 07R         1

