### 
### Created by X-TOOL on Mon Sep 10 21:13:08 2018
### 

@<TRIPOS>MOLECULE
3ty0_ligand
   56    61     1     0     0
SMALL
GAST_HUCK


@<TRIPOS>ATOM
      1 C11        18.2580    5.0890   15.2170 C.ar      1 082        -0.0885
      2 C10        19.0460    5.2010   14.0880 C.ar      1 082        -0.0889
      3 C21        18.5860    8.1050    8.5420 C.ar      1 082        -0.0376
      4 C2         12.4090    3.2260   13.0600 C.ar      1 082        -0.0639
      5 C20        17.7500    9.1820    8.7610 C.ar      1 082        -0.0428
      6 C22        18.2610    6.8550    9.0270 C.ar      1 082        -0.0288
      7 C12        16.8800    5.0650   15.1180 C.ar      1 082        -0.0481
      8 C13        18.4940    5.2950   12.8240 C.ar      1 082        -0.0514
      9 C3         11.2010    2.5870   13.2610 C.ar      1 082        -0.0396
     10 C18        16.2580    7.7610    9.9410 C.ar      1 082        -0.0336
     11 C5         10.8540    3.6360   15.4070 C.ar      1 082         0.0021
     12 C1         12.8410    4.0930   14.0540 C.ar      1 082         0.0486
     13 C19        16.5650    9.0210    9.4590 C.ar      1 082        -0.0157
     14 C17        17.0910    6.6770    9.7360 C.ar      1 082         0.0137
     15 C8         16.3460    5.1650   13.8520 C.ar      1 082         0.1157
     16 C7         17.1250    5.2750   12.7390 C.ar      1 082         0.1015
     17 C6         12.0580    4.2570   15.1760 C.ar      1 082         0.1415
     18 C4         10.4470    2.7890   14.3970 C.ar      1 082         0.0848
     19 C14        13.9580    4.9480   14.2790 C.2       1 082         0.1724
     20 C24        14.5640   10.0290    8.6890 C.2       1 082         0.2264
     21 C25        15.9940   11.4750    7.9960 C.2       1 082         0.3414
     22 C9         14.9590    5.2960   12.0340 C.2       1 082         0.3394
     23 C23        15.5920   10.1370    9.7710 C.3       1 082         0.1665
     24 C26        15.0610   10.2080   11.1760 C.3       1 082        -0.0465
     25 C15         8.8540    2.1210   15.8730 C.3       1 082         0.0593
     26 C16        16.7400    5.3240   10.2570 C.3       1 082         0.0954
     27 N3         13.8610    5.5710   15.4600 N.2       1 082        -0.1454
     28 N4         14.9310   10.7610    7.6490 N.am      1 082        -0.1799
     29 N1         15.0220    5.1570   13.4120 N.am      1 082        -0.1492
     30 N2         16.2810    5.3560   11.6260 N.am      1 082        -0.1886
     31 O6         13.6350    9.2360    8.7200 O.2       1 082        -0.3518
     32 O5         16.5390   12.3330    7.3210 O.2       1 082        -0.3683
     33 O1         13.9640    5.3700   11.3280 O.2       1 082        -0.3850
     34 O2         12.6700    5.1290   16.0230 O.3       1 082        -0.1962
     35 O4         16.2970   11.2730    9.3090 O.3       1 082        -0.2817
     36 O3          9.2430    2.1080   14.5010 O.3       1 082        -0.3234
     37 H1         18.7262    5.0191   16.1922 H         1 082         0.0456
     38 H2         20.1245    5.2156   14.1959 H         1 082         0.0463
     39 H3         19.5053    8.2428    7.9844 H         1 082         0.0684
     40 H4         12.9949    3.0574   12.1637 H         1 082         0.0587
     41 H5         18.0234   10.1607    8.3837 H         1 082         0.0800
     42 H6         18.9232    6.0149    8.8514 H         1 082         0.0807
     43 H7         16.2492    4.9719   15.9947 H         1 082         0.0477
     44 H8         19.1151    5.3807   11.9397 H         1 082         0.0464
     45 H9         10.8346    1.9055   12.5018 H         1 082         0.0486
     46 H10        15.3374    7.6197   10.4956 H         1 082         0.0776
     47 H11        10.2727    3.7981   16.3075 H         1 082         0.0472
     48 H12        15.9011   10.2848   11.8820 H         1 082         0.0158
     49 H13        14.4800    9.2999   11.3948 H         1 082         0.0158
     50 H14        14.4136   11.0913   11.2791 H         1 082         0.0158
     51 H15         7.8994    1.5868   15.9885 H         1 082         0.0578
     52 H16         8.7353    3.1611   16.2106 H         1 082         0.0578
     53 H17         9.6272    1.6250   16.4781 H         1 082         0.0578
     54 H18        17.6317    4.6825   10.1997 H         1 082         0.0755
     55 H19        15.9428    4.9007    9.6283 H         1 082         0.0755
     56 H20        14.4836   10.7737    6.7548 H         1 082         0.2271
@<TRIPOS>BOND
     1    2    1 ar 
     2    7    1 ar 
     3    8    2 ar 
     4    3    5 ar 
     5    6    3 ar 
     6    4    9 ar 
     7   12    4 ar 
     8   13    5 ar 
     9   14    6 ar 
    10   15    7 ar 
    11   16    8 ar 
    12    9   18 ar 
    13   10   13 ar 
    14   14   10 ar 
    15   17   11 ar 
    16   11   18 ar 
    17   12   17 ar 
    18   19   12 1  
    19   13   23 1  
    20   26   14 1  
    21   16   15 ar 
    22   29   15 1  
    23   30   16 1  
    24   17   34 1  
    25   18   36 1  
    26   19   27 2  
    27   29   19 1  
    28   23   20 1  
    29   20   28 am 
    30   20   31 2  
    31   21   28 am 
    32   21   32 2  
    33   35   21 1  
    34   22   29 am 
    35   30   22 am 
    36   22   33 2  
    37   23   24 1  
    38   23   35 1  
    39   36   25 1  
    40   26   30 1  
    41   27   34 1  
    42    1   37 1  
    43    2   38 1  
    44    3   39 1  
    45    4   40 1  
    46    5   41 1  
    47    6   42 1  
    48    7   43 1  
    49    8   44 1  
    50    9   45 1  
    51   10   46 1  
    52   11   47 1  
    53   24   48 1  
    54   24   49 1  
    55   24   50 1  
    56   25   51 1  
    57   25   52 1  
    58   25   53 1  
    59   26   54 1  
    60   26   55 1  
    61   28   56 1  
@<TRIPOS>SUBSTRUCTURE
     1 082         1

