### 
### Created by X-TOOL on Mon Sep 10 21:13:09 2018
### 

@<TRIPOS>MOLECULE
3tyq_ligand
   49    52     1     0     0
SMALL
GAST_HUCK


@<TRIPOS>ATOM
      1 C1         26.9250   43.0110   42.9140 C.ar      1 HI4        -0.0066
      2 N1         25.1150   43.1700   44.6140 N.pl3     1 HI4        -0.2502
      3 O1         24.0600   46.1750   42.9430 O.co2     1 HI4        -0.5617
      4 C2         26.7260   44.0590   41.9870 C.ar      1 HI4        -0.0151
      5 N2         21.0940   47.2500   45.4970 N.am      1 HI4        -0.2236
      6 O2         21.4810   45.3170   44.3130 O.2       1 HI4        -0.4144
      7 C3         27.8410   44.6940   41.3950 C.ar      1 HI4         0.1931
      8 N3         27.6490   45.7790   40.4410 N.2       1 HI4         0.3131
      9 O3         23.7670   44.0790   42.1630 O.co2     1 HI4        -0.5617
     10 C4         29.1470   44.2970   41.7020 C.ar      1 HI4        -0.0258
     11 O4         28.6360   46.4920   40.1830 O.2       1 HI4         0.1781
     12 C5         29.3440   43.2630   42.6210 C.ar      1 HI4        -0.0603
     13 O5         26.5290   45.8980   39.9120 O.2       1 HI4         0.1781
     14 C6         28.2460   42.6390   43.2230 C.ar      1 HI4        -0.0525
     15 C7         23.1530   45.9410   45.9300 C.2       1 HI4         0.0201
     16 C8         24.4370   43.8550   48.0520 C.ar      1 HI4        -0.0709
     17 C9         25.0650   42.8140   48.7580 C.ar      1 HI4        -0.0580
     18 C10        24.4980   43.8980   46.6410 C.ar      1 HI4        -0.0200
     19 C11        25.2020   42.8920   45.9610 C.ar      1 HI4         0.0655
     20 C12        24.3800   44.3280   44.3990 C.2       1 HI4         0.0977
     21 C13        23.9730   44.7820   45.6580 C.2       1 HI4        -0.0095
     22 C14        25.7540   41.8200   48.0550 C.ar      1 HI4        -0.0712
     23 C15        25.8360   41.8450   46.6510 C.ar      1 HI4        -0.0452
     24 C16        24.0830   44.9700   43.1320 C.2       1 HI4         0.0818
     25 C17        25.7460   42.3260   43.5730 C.3       1 HI4         0.0851
     26 C18        21.8470   46.1290   45.1750 C.2       1 HI4         0.2066
     27 C19        21.4760   48.1670   46.4540 C.2       1 HI4         0.0587
     28 C20        22.6190   47.9980   47.1370 C.2       1 HI4        -0.0473
     29 C21        23.4710   46.8560   46.8660 C.2       1 HI4        -0.0750
     30 C22        24.9970   42.7670   50.2720 C.3       1 HI4        -0.0278
     31 C23        23.9360   41.7910   50.7480 C.3       1 HI4        -0.0569
     32 H          25.7211   44.3748   41.7309 H         1 HI4         0.0630
     33 H          20.2327   47.4000   45.0115 H         1 HI4         0.2563
     34 H          29.9942   44.7847   41.2335 H         1 HI4         0.0634
     35 H          30.3500   42.9436   42.8681 H         1 HI4         0.0614
     36 H          28.4175   41.8493   43.9455 H         1 HI4         0.0601
     37 H          23.9035   44.6283   48.5927 H         1 HI4         0.0481
     38 H          26.2333   41.0162   48.6020 H         1 HI4         0.0504
     39 H          26.3761   41.0740   46.1135 H         1 HI4         0.0538
     40 H          26.0943   41.3920   44.0382 H         1 HI4         0.0763
     41 H          24.9956   42.0944   42.8027 H         1 HI4         0.0763
     42 H          20.8469   49.0326   46.6564 H         1 HI4         0.1182
     43 H          22.9079   48.7215   47.8979 H         1 HI4         0.0360
     44 H          24.3921   46.7351   47.4342 H         1 HI4         0.0573
     45 H          24.7556   43.7711   50.6509 H         1 HI4         0.0403
     46 H          25.9751   42.4522   50.6648 H         1 HI4         0.0403
     47 H          23.9134   41.7816   51.8477 H         1 HI4         0.0249
     48 H          24.1727   40.7827   50.3776 H         1 HI4         0.0249
     49 H          22.9532   42.1016   50.3637 H         1 HI4         0.0249
@<TRIPOS>BOND
     1    1    4 ar 
     2    1   14 ar 
     3   25    1 1  
     4    2   19 1  
     5   20    2 1  
     6    2   25 1  
     7   24    3 ar 
     8    4    7 ar 
     9   26    5 am 
    10    5   27 am 
    11   26    6 2  
    12    7    8 1  
    13    7   10 ar 
    14    8   11 2  
    15    8   13 2  
    16   24    9 ar 
    17   12   10 ar 
    18   14   12 ar 
    19   21   15 1  
    20   15   26 1  
    21   15   29 2  
    22   16   17 ar 
    23   18   16 ar 
    24   17   22 ar 
    25   17   30 1  
    26   18   19 ar 
    27   21   18 1  
    28   19   23 ar 
    29   20   21 2  
    30   20   24 1  
    31   22   23 ar 
    32   27   28 2  
    33   28   29 1  
    34   30   31 1  
    35    4   32 1  
    36    5   33 1  
    37   10   34 1  
    38   12   35 1  
    39   14   36 1  
    40   16   37 1  
    41   22   38 1  
    42   23   39 1  
    43   25   40 1  
    44   25   41 1  
    45   27   42 1  
    46   28   43 1  
    47   29   44 1  
    48   30   45 1  
    49   30   46 1  
    50   31   47 1  
    51   31   48 1  
    52   31   49 1  
@<TRIPOS>SUBSTRUCTURE
     1 HI4         1

