### 
### Created by X-TOOL on Mon Sep 10 21:13:09 2018
### 

@<TRIPOS>MOLECULE
3tyv_ligand
   56    60     1     0     0
SMALL
GAST_HUCK


@<TRIPOS>ATOM
      1 C1         29.6190   45.0430   42.6510 C.ar      1 HI3        -0.0370
      2 F1         29.2330   46.3300   44.6090 F         1 HI3        -0.1887
      3 N1         25.1840   43.5020   44.4850 N.pl3     1 HI3        -0.2529
      4 O1         21.5600   45.6500   44.1330 O.2       1 HI3        -0.3875
      5 S1         24.2650   45.2990   40.4500 S.o2      1 HI3         0.0635
      6 C2         29.1940   44.0230   41.7920 C.ar      1 HI3        -0.0366
      7 F2         27.5940   42.3560   41.2550 F         1 HI3        -0.1924
      8 N2         21.0890   47.4830   45.4480 N.2       1 HI3        -0.2628
      9 O2         24.3540   46.6540   43.0750 O.2       1 HI3        -0.3900
     10 C3         24.3420   43.9590   47.9310 C.ar      1 HI3        -0.0700
     11 F3         26.2940   40.9330   48.3990 F         1 HI3        -0.1933
     12 N3         24.0850   44.6680   41.9920 N.am      1 HI3        -0.1586
     13 O3         23.8690   44.2510   39.5310 O.2       1 HI3        -0.1506
     14 C4         27.6930   44.6440   44.0650 C.ar      1 HI3        -0.0261
     15 O4         23.6720   46.5930   40.3360 O.2       1 HI3        -0.1506
     16 C5         25.8050   42.0410   46.4200 C.ar      1 HI3        -0.0120
     17 C6         24.4530   44.0760   46.5210 C.ar      1 HI3        -0.0138
     18 C7         23.9650   45.0180   45.5880 C.2       1 HI3         0.0177
     19 C8         24.9840   42.8910   48.5780 C.ar      1 HI3        -0.0255
     20 C9         27.2460   43.6000   43.2150 C.ar      1 HI3         0.0169
     21 C10        25.1900   43.1230   45.8030 C.ar      1 HI3         0.0629
     22 C11        28.8650   45.3460   43.7740 C.ar      1 HI3         0.1216
     23 C12        28.0140   43.3160   42.0780 C.ar      1 HI3         0.1312
     24 C13        25.6770   41.9510   47.8070 C.ar      1 HI3         0.1230
     25 C14        24.4630   44.6690   44.3290 C.2       1 HI3         0.1384
     26 C15        22.5050   48.1260   47.2370 C.2       1 HI3        -0.0187
     27 C16        23.3870   47.0160   46.9370 C.2       1 HI3        -0.0147
     28 C17        21.3990   48.3320   46.4930 C.2       1 HI3         0.0136
     29 C18        23.1320   46.1590   45.9050 C.3       1 HI3         0.1090
     30 C19        21.8670   46.3970   45.0920 C.2       1 HI3         0.1871
     31 C20        24.3030   45.4280   43.1210 C.2       1 HI3         0.2365
     32 C21        26.6340   46.7300   40.5350 C.3       1 HI3        -0.0268
     33 C22        26.4440   46.3480   39.0890 C.3       1 HI3        -0.0268
     34 C23        26.0540   45.4010   40.1820 C.3       1 HI3         0.1002
     35 C24        24.9070   42.7410   50.0810 C.3       1 HI3        -0.0356
     36 C25        25.9820   42.8120   43.4670 C.3       1 HI3         0.0818
     37 H1         30.5300   45.5913   42.4399 H         1 HI3         0.0536
     38 H2         29.7734   43.7793   40.9089 H         1 HI3         0.0576
     39 H3         23.7702   44.6832   48.4999 H         1 HI3         0.0479
     40 H4         23.8113   43.7118   42.0961 H         1 HI3         0.2126
     41 H5         27.1196   44.8994   44.9488 H         1 HI3         0.0533
     42 H6         26.3579   41.3019   45.8515 H         1 HI3         0.0516
     43 H7         22.7356   48.7951   48.0647 H         1 HI3         0.0552
     44 H8         24.2743   46.8617   47.5492 H         1 HI3         0.1054
     45 H9         20.7455   49.1737   46.7176 H         1 HI3         0.1091
     46 H10        23.7236   46.7870   45.2227 H         1 HI3         0.0930
     47 H11        25.9981   47.5052   40.9875 H         1 HI3         0.0285
     48 H12        27.6471   46.7932   40.9589 H         1 HI3         0.0285
     49 H13        27.3176   46.1305   38.4569 H         1 HI3         0.0285
     50 H14        25.6687   46.8426   38.4855 H         1 HI3         0.0285
     51 H15        26.5766   44.4507   40.3660 H         1 HI3         0.0558
     52 H16        24.3238   43.5727   50.5031 H         1 HI3         0.0364
     53 H17        25.9226   42.7539   50.5033 H         1 HI3         0.0364
     54 H18        24.4185   41.7874   50.3298 H         1 HI3         0.0364
     55 H19        25.4035   42.7350   42.5346 H         1 HI3         0.0747
     56 H20        26.2408   41.8037   43.8223 H         1 HI3         0.0747
@<TRIPOS>BOND
     1    6    1 ar 
     2   22    1 ar 
     3   22    2 1  
     4    3   21 1  
     5   25    3 1  
     6    3   36 1  
     7   30    4 2  
     8    5   12 am 
     9    5   13 2  
    10    5   15 2  
    11   34    5 1  
    12   23    6 ar 
    13   23    7 1  
    14    8   28 2  
    15   30    8 1  
    16   31    9 2  
    17   17   10 ar 
    18   10   19 ar 
    19   24   11 1  
    20   12   31 am 
    21   20   14 ar 
    22   14   22 ar 
    23   21   16 ar 
    24   16   24 ar 
    25   18   17 1  
    26   17   21 ar 
    27   25   18 2  
    28   18   29 1  
    29   19   24 ar 
    30   19   35 1  
    31   20   23 ar 
    32   36   20 1  
    33   31   25 1  
    34   27   26 2  
    35   26   28 1  
    36   29   27 1  
    37   29   30 1  
    38   32   33 1  
    39   32   34 1  
    40   33   34 1  
    41    1   37 1  
    42    6   38 1  
    43   10   39 1  
    44   12   40 1  
    45   14   41 1  
    46   16   42 1  
    47   26   43 1  
    48   27   44 1  
    49   28   45 1  
    50   29   46 1  
    51   32   47 1  
    52   32   48 1  
    53   33   49 1  
    54   33   50 1  
    55   34   51 1  
    56   35   52 1  
    57   35   53 1  
    58   35   54 1  
    59   36   55 1  
    60   36   56 1  
@<TRIPOS>SUBSTRUCTURE
     1 HI3         1

