### 
### Created by X-TOOL on Mon Sep 10 21:13:10 2018
### 

@<TRIPOS>MOLECULE
3tz0_ligand
   19    18     1     0     0
SMALL
GAST_HUCK


@<TRIPOS>ATOM
      1 CL         -7.7750  -29.3900   14.5210 Cl        1 03H        -0.1050
      2 C1         -7.4330  -31.7810   13.3540 C.2       1 03H         0.0525
      3 O1         -6.9230  -32.8860   13.3030 O.co2     1 03H        -0.5675
      4 C2         -7.7060  -31.1750   14.6980 C.3       1 03H         0.0865
      5 O2         -8.1450  -31.3740   12.3040 O.co2     1 03H        -0.5675
      6 C3         -9.0170  -31.7530   15.2180 C.3       1 03H        -0.0225
      7 C4         -9.2270  -31.4850   16.7030 C.3       1 03H        -0.0439
      8 C5        -10.6830  -31.7190   17.0670 C.3       1 03H        -0.0625
      9 C6         -8.3340  -32.3510   17.5830 C.3       1 03H        -0.0625
     10 H1         -6.8961  -31.4344   15.3957 H         1 03H         0.0633
     11 H2         -9.0124  -32.8406   15.0535 H         1 03H         0.0300
     12 H3         -9.8484  -31.3008   14.6574 H         1 03H         0.0300
     13 H4         -8.9806  -30.4309   16.8980 H         1 03H         0.0297
     14 H5        -10.8286  -31.5241   18.1398 H         1 03H         0.0232
     15 H6        -10.9538  -32.7615   16.8437 H         1 03H         0.0232
     16 H7        -11.3210  -31.0409   16.4813 H         1 03H         0.0232
     17 H8         -7.2804  -32.1796   17.3173 H         1 03H         0.0232
     18 H9         -8.5834  -33.4110   17.4279 H         1 03H         0.0232
     19 H10        -8.4934  -32.0875   18.6390 H         1 03H         0.0232
@<TRIPOS>BOND
     1    4    1 1  
     2    2    3 ar 
     3    2    4 1  
     4    2    5 ar 
     5    4    6 1  
     6    6    7 1  
     7    7    8 1  
     8    7    9 1  
     9    4   10 1  
    10    6   11 1  
    11    6   12 1  
    12    7   13 1  
    13    8   14 1  
    14    8   15 1  
    15    8   16 1  
    16    9   17 1  
    17    9   18 1  
    18    9   19 1  
@<TRIPOS>SUBSTRUCTURE
     1 03H         1

