### 
### Created by X-TOOL on Mon Sep 10 21:13:10 2018
### 

@<TRIPOS>MOLECULE
3tz2_ligand
   23    23     1     0     0
SMALL
GAST_HUCK


@<TRIPOS>ATOM
      1 CA         -8.6830  -30.5350   13.8320 C.3       1 CLT         0.0020
      2 CB1        -8.6110  -30.7960   15.3300 C.3       1 CLT        -0.0317
      3 CG         -9.6020  -31.8570   15.8270 C.3       1 CLT        -0.0177
      4 CD         -9.1840  -32.0500   17.2600 C.ar      1 CLT        -0.0429
      5 CE1        -8.3560  -33.1120   17.6030 C.ar      1 CLT        -0.0603
      6 CE2        -9.5810  -31.1320   18.2230 C.ar      1 CLT        -0.0603
      7 CZ1        -7.9520  -33.2580   18.9230 C.ar      1 CLT        -0.0686
      8 CZ2        -9.1740  -31.2800   19.5440 C.ar      1 CLT        -0.0686
      9 CH         -8.3550  -32.3430   19.8960 C.ar      1 CLT        -0.0687
     10 CB2        -7.8670  -31.5690   13.0930 C.2       1 CLT         0.0350
     11 OG1        -8.0970  -31.7600   11.8760 O.co2     1 CLT        -0.5690
     12 OG2        -6.9920  -32.1990   13.7260 O.co2     1 CLT        -0.5690
     13 H1         -8.2843  -29.5328   13.6163 H         1 CLT         0.0432
     14 H2         -9.7305  -30.5919   13.5013 H         1 CLT         0.0432
     15 H3         -8.8213  -29.8530   15.8559 H         1 CLT         0.0305
     16 H4         -7.5926  -31.1327   15.5739 H         1 CLT         0.0305
     17 H5         -9.5033  -32.7915   15.2552 H         1 CLT         0.0427
     18 H6        -10.6384  -31.4944   15.7610 H         1 CLT         0.0427
     19 H7         -8.0293  -33.8183   16.8484 H         1 CLT         0.0557
     20 H8        -10.2115  -30.2957   17.9434 H         1 CLT         0.0557
     21 H9         -7.3169  -34.0915   19.2006 H         1 CLT         0.0599
     22 H10        -9.4951  -30.5680   20.2957 H         1 CLT         0.0599
     23 H11        -8.0295  -32.4622   20.9231 H         1 CLT         0.0559
@<TRIPOS>BOND
     1    1    2 1  
     2    1   10 1  
     3    2    3 1  
     4    3    4 1  
     5    4    5 ar 
     6    4    6 ar 
     7    5    7 ar 
     8    6    8 ar 
     9    7    9 ar 
    10    8    9 ar 
    11   10   11 ar 
    12   10   12 ar 
    13    1   13 1  
    14    1   14 1  
    15    2   15 1  
    16    2   16 1  
    17    3   17 1  
    18    3   18 1  
    19    5   19 1  
    20    6   20 1  
    21    7   21 1  
    22    8   22 1  
    23    9   23 1  
@<TRIPOS>SUBSTRUCTURE
     1 CLT         1

