### 
### Created by X-TOOL on Mon Sep 10 21:13:10 2018
### 

@<TRIPOS>MOLECULE
3tz4_ligand
   19    18     1     0     0
SMALL
GAST_HUCK


@<TRIPOS>ATOM
      1 CL         -8.1750  -29.2420   14.7770 Cl        1 03H        -0.1050
      2 C1         -7.6730  -31.6310   13.6490 C.2       1 03H         0.0525
      3 O1         -7.0450  -32.6690   13.6390 O.co2     1 03H        -0.5675
      4 C2         -7.9570  -31.0180   14.9910 C.3       1 03H         0.0865
      5 O2         -8.4250  -31.3380   12.5780 O.co2     1 03H        -0.5675
      6 C3         -9.1900  -31.7190   15.5760 C.3       1 03H        -0.0225
      7 C4         -9.4970  -31.3490   17.0250 C.3       1 03H        -0.0439
      8 C5        -10.9950  -31.4060   17.2580 C.3       1 03H        -0.0625
      9 C6         -8.7860  -32.2460   18.0300 C.3       1 03H        -0.0625
     10 H1         -7.1032  -31.1871   15.6636 H         1 03H         0.0633
     11 H2         -9.0244  -32.8053   15.5259 H         1 03H         0.0300
     12 H3        -10.0619  -31.4522   14.9606 H         1 03H         0.0300
     13 H4         -9.1551  -30.3168   17.1912 H         1 03H         0.0297
     14 H5        -11.2140  -31.1391   18.3024 H         1 03H         0.0232
     15 H6        -11.3591  -32.4241   17.0557 H         1 03H         0.0232
     16 H7        -11.4981  -30.6961   16.5850 H         1 03H         0.0232
     17 H8         -7.7005  -32.2016   17.8574 H         1 03H         0.0232
     18 H9         -9.1346  -33.2821   17.9076 H         1 03H         0.0232
     19 H10        -9.0093  -31.9021   19.0507 H         1 03H         0.0232
@<TRIPOS>BOND
     1    4    1 1  
     2    2    3 ar 
     3    2    4 1  
     4    2    5 ar 
     5    4    6 1  
     6    6    7 1  
     7    7    8 1  
     8    7    9 1  
     9    4   10 1  
    10    6   11 1  
    11    6   12 1  
    12    7   13 1  
    13    8   14 1  
    14    8   15 1  
    15    8   16 1  
    16    9   17 1  
    17    9   18 1  
    18    9   19 1  
@<TRIPOS>SUBSTRUCTURE
     1 03H         1

