### 
### Created by X-TOOL on Mon Sep 10 21:13:05 2018
### 

@<TRIPOS>MOLECULE
3tza_ligand
   33    33     1     0     0
SMALL
GAST_HUCK


@<TRIPOS>ATOM
      1 N1         -7.4540   27.6210   56.5340 N.2       1 TZG         0.3081
      2 C4         -3.8980   27.5870   57.2760 C.ar      1 TZG        -0.0438
      3 C5         -5.2440   27.9180   57.3640 C.ar      1 TZG         0.0700
      4 C6         -6.1580   27.3220   56.4980 C.ar      1 TZG         0.1996
      5 C7         -1.9620   26.3680   56.2940 C.3       1 TZG         0.0365
      6 C8         -1.7160   24.9950   56.8920 C.3       1 TZG         0.0376
      7 C10        -4.5090   25.5050   53.0010 C.3       1 TZG         0.0090
      8 O4          0.1040   24.3840   55.5150 O.co2     1 TZG        -0.5641
      9 C12        -0.2490   24.6280   56.6920 C.2       1 TZG         0.0866
     10 O5          0.4820   24.6060   57.7100 O.co2     1 TZG        -0.5641
     11 N2         -2.0510   25.0420   58.3160 N.4       1 TZG         0.2341
     12 C3         -3.4570   26.6700   56.3220 C.ar      1 TZG        -0.0272
     13 CL1        -5.7480   29.0520   58.5740 Cl        1 TZG        -0.0699
     14 O1         -8.4290   26.6620   56.1380 O.2       1 TZG         0.1749
     15 O2         -7.8500   28.9390   56.8480 O.2       1 TZG         0.1749
     16 C1         -5.7160   26.4170   55.5430 C.ar      1 TZG        -0.0233
     17 C2         -4.3720   26.0810   55.4490 C.ar      1 TZG        -0.0305
     18 C9         -3.9890   25.0700   54.3680 C.3       1 TZG        -0.0086
     19 C11        -5.9850   25.1250   52.8300 C.2       1 TZG         0.0366
     20 O7         -6.6880   25.8970   52.1530 O.co2     1 TZG        -0.5689
     21 O6         -6.3860   24.0830   53.3880 O.co2     1 TZG        -0.5689
     22 H1         -3.1856   28.0443   57.9531 H         1 TZG         0.0561
     23 H2         -1.6031   26.3856   55.2544 H         1 TZG         0.0498
     24 H3         -1.4230   27.1263   56.8809 H         1 TZG         0.0498
     25 H4         -2.3508   24.2496   56.3907 H         1 TZG         0.1048
     26 H5         -3.9169   25.0109   52.2166 H         1 TZG         0.0451
     27 H6         -4.4049   26.5960   52.9067 H         1 TZG         0.0451
     28 H7         -1.8927   24.1360   58.7285 H         1 TZG         0.2012
     29 H8         -3.0204   25.2960   58.4250 H         1 TZG         0.2012
     30 H9         -1.4706   25.7263   58.7753 H         1 TZG         0.2012
     31 H10        -6.4291   25.9668   54.8619 H         1 TZG         0.0611
     32 H11        -2.8930   24.9869   54.3258 H         1 TZG         0.0431
     33 H12        -4.4214   24.0910   54.6222 H         1 TZG         0.0431
@<TRIPOS>BOND
     1    4    1 1  
     2    1   14 2  
     3    1   15 2  
     4    2    3 ar 
     5   12    2 ar 
     6    4    3 ar 
     7    3   13 1  
     8   16    4 ar 
     9    5    6 1  
    10   12    5 1  
    11    6    9 1  
    12    6   11 1  
    13   18    7 1  
    14    7   19 1  
    15    9    8 ar 
    16    9   10 ar 
    17   17   12 ar 
    18   17   16 ar 
    19   17   18 1  
    20   19   20 ar 
    21   19   21 ar 
    22    2   22 1  
    23    5   23 1  
    24    5   24 1  
    25    6   25 1  
    26    7   26 1  
    27    7   27 1  
    28   11   28 1  
    29   11   29 1  
    30   11   30 1  
    31   16   31 1  
    32   18   32 1  
    33   18   33 1  
@<TRIPOS>SUBSTRUCTURE
     1 TZG         1

