### 
### Created by X-TOOL on Mon Sep 10 21:13:09 2018
### 

@<TRIPOS>MOLECULE
3tzm_ligand
   45    49     1     0     0
SMALL
GAST_HUCK


@<TRIPOS>ATOM
      1 CAM         2.9800    7.8420    4.4510 C.ar      1 085        -0.0364
      2 CAZ         2.5850    7.3020    3.2330 C.ar      1 085         0.1223
      3 OAS         1.3620    6.8470    2.8250 O.3       1 085        -0.2911
      4 CAN         1.4870    6.5390    1.4490 C.3       1 085         0.1870
      5 OAR         2.8900    6.6130    1.1140 O.3       1 085        -0.2908
      6 CAY         3.5140    7.1560    2.1970 C.ar      1 085         0.1231
      7 CAL         4.8300    7.5540    2.3920 C.ar      1 085        -0.0412
      8 CAK         5.2140    8.1060    3.6200 C.ar      1 085        -0.0757
      9 CAW         4.2910    8.2760    4.6630 C.ar      1 085        -0.0373
     10 CBB         4.6500    8.7580    5.9450 C.2       1 085         0.0376
     11 NAP         4.1290    8.2770    7.0770 N.2       1 085        -0.3037
     12 CBA         4.6870    8.8730    8.1340 C.2       1 085         0.1439
     13 CAV         4.3700    8.6180    9.4730 C.ar      1 085         0.0331
     14 CAJ         4.8810    9.4190   10.5060 C.ar      1 085        -0.0423
     15 CAH         4.5510    9.1460   11.8400 C.ar      1 085        -0.0400
     16 CAI         3.5460    7.5300    9.8010 C.ar      1 085        -0.0423
     17 CAG         3.2260    7.2540   11.1350 C.ar      1 085        -0.0400
     18 CAU         3.7190    8.0660   12.1570 C.ar      1 085         0.0505
     19 CAT         3.3650    7.7760   13.6190 C.2       1 085         0.2029
     20 OAB         4.1680    8.0050   14.5320 O.2       1 085        -0.3847
     21 NAA         2.1350    7.3020   13.8110 N.am      1 085        -0.3001
     22 NAQ         5.5940    9.7370    7.6730 N.pl3     1 085        -0.2492
     23 CBC         5.6050    9.7010    6.3320 C.2       1 085         0.1079
     24 CAX         6.4230   10.5120    5.5230 C.ar      1 085         0.0720
     25 CAF         7.7050   10.8120    5.9810 C.ar      1 085        -0.0290
     26 CAD         8.5460   11.6330    5.2310 C.ar      1 085        -0.0456
     27 CAC         8.0800   12.1880    4.0360 C.ar      1 085        -0.0379
     28 CAE         6.7740   11.8790    3.6240 C.ar      1 085         0.0053
     29 NAO         5.9840   11.0750    4.3660 N.ar      1 085        -0.2963
     30 H1          2.2560    7.9283    5.2532 H         1 085         0.0489
     31 H2          0.9186    7.2644    0.8485 H         1 085         0.0974
     32 H3          1.1074    5.5250    1.2550 H         1 085         0.0974
     33 H4          5.5572    7.4378    1.5965 H         1 085         0.0512
     34 H5          6.2445    8.4080    3.7679 H         1 085         0.0488
     35 H6          5.5335   10.2521   10.2708 H         1 085         0.0653
     36 H7          4.9424    9.7750   12.6314 H         1 085         0.0671
     37 H8          3.1536    6.8973    9.0131 H         1 085         0.0653
     38 H9          2.5934    6.4071   11.3751 H         1 085         0.0671
     39 H10         1.8212    7.0855   14.7355 H         1 085         0.1808
     40 H11         1.5254    7.1627   13.0306 H         1 085         0.1808
     41 H12         6.1929   10.3384    8.2566 H         1 085         0.2370
     42 H13         8.0496   10.4050    6.9247 H         1 085         0.0692
     43 H14         9.5540   11.8393    5.5723 H         1 085         0.0722
     44 H15         8.7106   12.8402    3.4426 H         1 085         0.0678
     45 H16         6.3947   12.2922    2.6964 H         1 085         0.0816
@<TRIPOS>BOND
     1    1    2 ar 
     2    1    9 ar 
     3    2    3 1  
     4    2    6 ar 
     5    3    4 1  
     6    4    5 1  
     7    5    6 1  
     8    6    7 ar 
     9    7    8 ar 
    10    8    9 ar 
    11    9   10 1  
    12   10   11 1  
    13   10   23 2  
    14   11   12 2  
    15   12   13 1  
    16   12   22 1  
    17   13   14 ar 
    18   13   16 ar 
    19   14   15 ar 
    20   15   18 ar 
    21   16   17 ar 
    22   17   18 ar 
    23   18   19 1  
    24   19   20 2  
    25   19   21 am 
    26   22   23 1  
    27   23   24 1  
    28   24   25 ar 
    29   24   29 ar 
    30   25   26 ar 
    31   26   27 ar 
    32   27   28 ar 
    33   28   29 ar 
    34    1   30 1  
    35    4   31 1  
    36    4   32 1  
    37    7   33 1  
    38    8   34 1  
    39   14   35 1  
    40   15   36 1  
    41   16   37 1  
    42   17   38 1  
    43   21   39 1  
    44   21   40 1  
    45   22   41 1  
    46   25   42 1  
    47   26   43 1  
    48   27   44 1  
    49   28   45 1  
@<TRIPOS>SUBSTRUCTURE
     1 085         1

