### 
### Created by X-TOOL on Mon Sep 10 21:13:08 2018
### 

@<TRIPOS>MOLECULE
3u0d_ligand
   16    16     1     0     0
SMALL
GAST_HUCK


@<TRIPOS>ATOM
      1 O17        17.5970   22.2060    6.1670 O.co2     1 DBH        -0.5646
      2 C21        18.1110   21.7030    5.1500 C.2       1 DBH         0.0554
      3 O9         18.7950   22.3920    4.3470 O.co2     1 DBH        -0.5646
      4 C18        17.8300   20.2620    4.8300 C.ar      1 DBH         0.0304
      5 C15        16.7770   19.5580    5.4430 C.ar      1 DBH        -0.0675
      6 C12        16.4870   18.2240    5.0840 C.ar      1 DBH        -0.0783
      7 C3         18.6330   19.5890    3.7710 C.ar      1 DBH         0.1314
      8 O3         19.6480   20.2230    3.1120 O.3       1 DBH        -0.3332
      9 C6         18.2840   18.1980    3.4230 C.ar      1 DBH         0.1200
     10 C9         17.2320   17.5530    4.0940 C.ar      1 DBH        -0.0390
     11 O6         19.0180   17.5860    2.4590 O.3       1 DBH        -0.3362
     12 H1         16.1791   20.0479    6.2030 H         1 DBH         0.0527
     13 H2         15.6746   17.7052    5.5800 H         1 DBH         0.0503
     14 H3         19.3043   20.9861    2.6625 H         1 DBH         0.2460
     15 H4         16.9901   16.5256    3.8470 H         1 DBH         0.0529
     16 H5         19.6757   18.1889    2.1327 H         1 DBH         0.2443
@<TRIPOS>BOND
     1    1    2 ar 
     2    2    3 ar 
     3    2    4 1  
     4    4    5 ar 
     5    4    7 ar 
     6    5    6 ar 
     7    6   10 ar 
     8    7    8 1  
     9    7    9 ar 
    10    9   10 ar 
    11    9   11 1  
    12    5   12 1  
    13    6   13 1  
    14    8   14 1  
    15   10   15 1  
    16   11   16 1  
@<TRIPOS>SUBSTRUCTURE
     1 DBH         1

