### 
### Created by X-TOOL on Fri Sep 26 17:34:55 2014
### 

@<TRIPOS>MOLECULE
3u15_ligand
   42    45     1     0     0
SMALL
GAST_HUCK


@<TRIPOS>ATOM
      1 C4        -10.1830  -34.3510    1.6740 C.ar      1 MOL        -0.0806
      2 C6         -8.0530  -37.1220    0.5890 C.2       1 MOL         0.0248
      3 C7         -9.2640  -36.5010    0.6750 C.2       1 MOL        -0.0382
      4 C8         -9.2280  -35.3140    1.3560 C.ar      1 MOL        -0.0256
      5 C10       -10.4630  -36.9840    0.0160 C.2       1 MOL        -0.0544
      6 N12        -9.7710  -39.0810   -1.2730 N.am      1 MOL        -0.2120
      7 C13       -10.5630  -39.8700   -2.0390 C.2       1 MOL         0.3219
      8 C15       -11.9750  -38.4190   -1.4440 C.2       1 MOL         0.2544
      9 C20       -15.0410  -40.8860   -1.6330 C.ar      1 MOL        -0.0637
     10 C21       -15.7810  -41.8660   -0.9540 C.ar      1 MOL        -0.0365
     11 C22       -15.3550  -43.2060   -0.9660 C.ar      1 MOL         0.1576
     12 C24       -13.4170  -42.5540   -2.2720 C.ar      1 MOL        -0.0262
     13 C1         -9.7660  -33.2810    2.4220 C.ar      1 MOL        -0.0722
     14 C2         -8.4360  -33.1820    2.8070 C.ar      1 MOL         0.0263
     15 C3         -7.4970  -34.1130    2.4680 C.ar      1 MOL        -0.0112
     16 N5         -7.2530  -36.2880    1.2880 N.pl3     1 MOL        -0.2831
     17 C9         -7.9050  -35.2080    1.7540 C.ar      1 MOL         0.0689
     18 C11       -10.6750  -38.1460   -0.8290 C.2       1 MOL         0.1336
     19 N14       -11.8990  -39.5090   -2.2160 N.am      1 MOL        -0.1547
     20 O16       -10.0200  -40.8770   -2.6500 O.2       1 MOL        -0.3808
     21 O17       -13.0060  -37.6760   -1.1760 O.2       1 MOL        -0.3769
     22 C18       -12.9700  -40.1810   -3.0040 C.3       1 MOL         0.0895
     23 C19       -13.8200  -41.2180   -2.2690 C.ar      1 MOL        -0.0221
     24 C23       -14.1610  -43.5220   -1.6120 C.ar      1 MOL         0.1589
     25 F25       -13.7230  -44.7900   -1.6240 F         1 MOL        -0.1861
     26 F26       -16.0480  -44.1980   -0.3160 F         1 MOL        -0.1901
     27 C27        -6.0640  -33.9890    2.9150 C.3       1 MOL        -0.0326
     28 CL         -8.0200  -31.7770    3.7790 Cl        1 MOL        -0.0870
     29 H1        -11.2114  -34.4439    1.3441 H         1 MOL         0.0481
     30 H2         -7.7964  -38.0528    0.0853 H         1 MOL         0.0896
     31 H3        -11.3502  -36.3748    0.1824 H         1 MOL         0.0350
     32 H4         -8.7924  -39.1583   -1.0822 H         1 MOL         0.2283
     33 H5        -15.4070  -39.8664   -1.6710 H         1 MOL         0.0514
     34 H6        -16.6825  -41.5896   -0.4193 H         1 MOL         0.0576
     35 H7        -12.5120  -42.8392   -2.7961 H         1 MOL         0.0533
     36 H8        -10.4738  -32.5131    2.7126 H         1 MOL         0.0500
     37 H9         -6.2502  -36.4608    1.4472 H         1 MOL         0.2257
     38 H10       -12.4896  -40.6870   -3.8544 H         1 MOL         0.0729
     39 H11       -13.6481  -39.3996   -3.3777 H         1 MOL         0.0729
     40 H12        -5.9332  -33.0485    3.4703 H         1 MOL         0.0378
     41 H13        -5.4040  -33.9900    2.0350 H         1 MOL         0.0378
     42 H14        -5.8083  -34.8378    3.5662 H         1 MOL         0.0378
@<TRIPOS>BOND
     1    4    1 ar 
     2    1   13 ar 
     3    3    2 2  
     4    2   16 1  
     5    3    4 1  
     6    5    3 1  
     7    4   17 ar 
     8   18    5 2  
     9    7    6 am 
    10   18    6 1  
    11   19    7 am 
    12    7   20 2  
    13    8   18 1  
    14   19    8 am 
    15    8   21 2  
    16    9   10 ar 
    17   23    9 ar 
    18   10   11 ar 
    19   24   11 ar 
    20   11   26 1  
    21   23   12 ar 
    22   12   24 ar 
    23   13   14 ar 
    24   15   14 ar 
    25   14   28 1  
    26   17   15 ar 
    27   15   27 1  
    28   17   16 1  
    29   22   19 1  
    30   22   23 1  
    31   24   25 1  
    32    1   29 1  
    33    2   30 1  
    34    5   31 1  
    35    6   32 1  
    36    9   33 1  
    37   10   34 1  
    38   12   35 1  
    39   13   36 1  
    40   16   37 1  
    41   22   38 1  
    42   22   39 1  
    43   27   40 1  
    44   27   41 1  
    45   27   42 1  
@<TRIPOS>SUBSTRUCTURE
     1 MOL         1

