### 
### Created by X-TOOL on Mon Sep 10 21:13:08 2018
### 

@<TRIPOS>MOLECULE
3u18_ligand
   86    91     1     0     0
SMALL
GAST_HUCK


@<TRIPOS>ATOM
      1 S         -34.9150    7.9880    2.2260 S.o2      1 Y0X        -0.1712
      2 O1        -35.1060    6.6260    2.7450 O.co2     1 Y0X        -0.4821
      3 O2        -35.9840    8.2880    1.2400 O.co2     1 Y0X        -0.4821
      4 O4        -34.8890    9.0840    3.2090 O.co2     1 Y0X        -0.4821
      5 CAA       -23.7840    7.5630    1.6510 C.3       1 Y0X         0.0612
      6 CAB       -22.6250    1.5400    7.2840 C.3       1 Y0X         0.0565
      7 NAC       -29.8410    7.9750   -0.8050 N.pl3     1 Y0X        -0.3295
      8 NAD       -16.7680   -0.2180   10.0630 N.pl3     1 Y0X        -0.3332
      9 OAE       -33.8300    8.2280   -2.6890 O.co2     1 Y0X        -0.4827
     10 OAF       -31.7450    7.1240   -3.1250 O.co2     1 Y0X        -0.4827
     11 OAG       -11.6080    3.1020    7.7000 O.co2     1 Y0X        -0.4823
     12 OAH       -10.7460    1.8580    9.5370 O.co2     1 Y0X        -0.4823
     13 OAI       -12.8610   -1.9380   10.8700 O.co2     1 Y0X        -0.4830
     14 OAJ       -15.0560   -2.4850   10.1030 O.co2     1 Y0X        -0.4830
     15 OAK       -28.6480    7.6530    1.4620 O.3       1 Y0X        -0.3177
     16 OAL       -18.1460    1.8380    9.0150 O.3       1 Y0X        -0.3377
     17 OAM       -31.7550    9.6500   -2.5930 O.co2     1 Y0X        -0.4827
     18 OAN       -11.8040    4.0170    9.8800 O.co2     1 Y0X        -0.4823
     19 OAO       -14.7850   -1.5080   12.2200 O.co2     1 Y0X        -0.4830
     20 CAP       -23.8760    6.6770    4.4590 C.ar      1 Y0X        -0.0233
     21 CAQ       -21.5270    6.4290    6.4360 C.ar      1 Y0X        -0.0745
     22 CAR       -25.0580    7.0370    3.7540 C.ar      1 Y0X         0.1192
     23 CAS       -20.3940    5.8330    7.0200 C.ar      1 Y0X        -0.0471
     24 CAT       -31.0900    7.4390    4.2380 C.ar      1 Y0X        -0.0480
     25 CAU       -15.6870    4.4940    8.0800 C.ar      1 Y0X        -0.0518
     26 CAV       -33.4760    8.1280   -0.0080 C.ar      1 Y0X        -0.0345
     27 CAW       -32.2640    7.6360    3.5320 C.ar      1 Y0X        -0.0670
     28 CAX       -33.5020    7.9790    1.3860 C.ar      1 Y0X         0.0417
     29 CAY       -14.5080    3.8620    8.4880 C.ar      1 Y0X        -0.0766
     30 CAZ       -25.2720    5.8700    6.3350 C.ar      1 Y0X        -0.0632
     31 CBA       -22.7500    4.3170    6.7800 C.ar      1 Y0X        -0.0351
     32 CBB       -13.1690    0.7060    9.9840 C.ar      1 Y0X        -0.0417
     33 NBC       -28.6650    7.2450    4.2570 N.2       1 Y0X        -0.1980
     34 NBD       -18.0460    4.4590    7.8970 N.pl3     1 Y0X        -0.2364
     35 NBE       -27.4950    7.2020    3.6540 N.2       1 Y0X        -0.1985
     36 NBF       -19.2850    3.8540    7.8900 N.pl3     1 Y0X        -0.2323
     37 OBG       -24.9910    7.5450    2.4660 O.3       1 Y0X        -0.3153
     38 OBH       -21.5270    2.3850    7.6860 O.3       1 Y0X        -0.3263
     39 CBI       -30.9990    7.9720   -0.0760 C.ar      1 Y0X         0.0755
     40 CBJ       -15.6040    0.5300    9.8480 C.ar      1 Y0X         0.0647
     41 CBK       -24.0100    6.1250    5.7620 C.ar      1 Y0X        -0.0345
     42 CBL       -22.7100    5.6660    6.3730 C.ar      1 Y0X        -0.0397
     43 CBM       -29.8340    7.6230    2.1460 C.ar      1 Y0X         0.1363
     44 CBN       -16.9420    2.4660    8.8680 C.ar      1 Y0X         0.1164
     45 CBO       -29.8620    7.4630    3.5450 C.ar      1 Y0X         0.1015
     46 CBP       -16.9150    3.8440    8.2490 C.ar      1 Y0X         0.0864
     47 CBQ       -26.3110    6.8800    4.3740 C.ar      1 Y0X         0.0978
     48 CBR       -20.4130    4.4970    7.4010 C.ar      1 Y0X         0.0927
     49 CBS       -26.4390    6.2570    5.6340 C.ar      1 Y0X        -0.0438
     50 CBT       -21.5550    3.7340    7.2930 C.ar      1 Y0X         0.1129
     51 CBU       -32.2920    8.1200   -0.7770 C.ar      1 Y0X         0.0688
     52 CBV       -14.3740   -0.0450   10.1840 C.ar      1 Y0X         0.0612
     53 CBW       -13.1980    1.9920    9.4000 C.ar      1 Y0X         0.0336
     54 CBX       -32.2250    7.8060    2.1310 C.ar      1 Y0X        -0.0112
     55 CBY       -14.4710    2.5650    9.0500 C.ar      1 Y0X        -0.0238
     56 CBZ       -31.0210    7.7940    1.4210 C.ar      1 Y0X         0.0552
     57 CCA       -15.6760    1.8320    9.2460 C.ar      1 Y0X         0.0331
     58 SCB       -32.3580    8.2920   -2.4010 S.o2      1 Y0X        -0.1698
     59 SCC       -11.7360    2.7920    9.1260 S.o2      1 Y0X        -0.1729
     60 SCD       -14.2660   -1.5610   10.8550 S.o2      1 Y0X        -0.1718
     61 H1        -24.0072    8.0192    0.6753 H         1 Y0X         0.0581
     62 H2        -23.4273    6.5333    1.5012 H         1 Y0X         0.0581
     63 H3        -23.0060    8.1501    2.1609 H         1 Y0X         0.0581
     64 H4        -22.4613    0.5207    7.6638 H         1 Y0X         0.0572
     65 H5        -22.6868    1.5166    6.1860 H         1 Y0X         0.0572
     66 H6        -23.5640    1.9383    7.6958 H         1 Y0X         0.0572
     67 H7        -29.8760    8.1001   -1.8268 H         1 Y0X         0.1770
     68 H8        -28.9343    7.8521   -0.3320 H         1 Y0X         0.1770
     69 H9        -16.7081   -1.1510   10.4953 H         1 Y0X         0.1749
     70 H10       -17.6841    0.1648    9.7889 H         1 Y0X         0.1749
     71 H11       -28.1831    6.8361    1.6004 H         1 Y0X         0.2573
     72 H12       -18.0112    0.9867    9.4146 H         1 Y0X         0.2453
     73 H13       -22.8980    6.8200    4.0138 H         1 Y0X         0.0531
     74 H14       -21.4910    7.4405    6.0478 H         1 Y0X         0.0512
     75 H15       -19.4973    6.4222    7.1742 H         1 Y0X         0.0493
     76 H16       -31.1141    7.2687    5.3083 H         1 Y0X         0.0608
     77 H17       -15.6500    5.4819    7.6353 H         1 Y0X         0.0521
     78 H18       -34.4198    8.2568   -0.5253 H         1 Y0X         0.0623
     79 H19       -33.2134    7.6598    4.0547 H         1 Y0X         0.0487
     80 H20       -13.5720    4.3952    8.3669 H         1 Y0X         0.0459
     81 H21       -25.3480    5.3835    7.3007 H         1 Y0X         0.0530
     82 H22       -23.6641    3.7392    6.7049 H         1 Y0X         0.0512
     83 H23       -12.2193    0.2796   10.2862 H         1 Y0X         0.0571
     84 H24       -17.9898    5.4474    7.6128 H         1 Y0X         0.1994
     85 H25       -19.3758    2.8965    8.2586 H         1 Y0X         0.2030
     86 H26       -27.4195    6.0771    6.0598 H         1 Y0X         0.0622
@<TRIPOS>BOND
     1    1    2 ar 
     2    1    3 ar 
     3    1    4 ar 
     4   28    1 1  
     5   37    5 1  
     6   38    6 1  
     7   39    7 1  
     8   40    8 1  
     9   58    9 ar 
    10   58   10 ar 
    11   59   11 ar 
    12   59   12 ar 
    13   60   13 ar 
    14   60   14 ar 
    15   43   15 1  
    16   44   16 1  
    17   58   17 ar 
    18   59   18 ar 
    19   60   19 ar 
    20   20   22 ar 
    21   41   20 ar 
    22   23   21 ar 
    23   21   42 ar 
    24   22   37 1  
    25   22   47 ar 
    26   48   23 ar 
    27   24   27 ar 
    28   45   24 ar 
    29   29   25 ar 
    30   25   46 ar 
    31   28   26 ar 
    32   51   26 ar 
    33   27   54 ar 
    34   54   28 ar 
    35   55   29 ar 
    36   41   30 ar 
    37   30   49 ar 
    38   31   42 ar 
    39   50   31 ar 
    40   32   52 ar 
    41   53   32 ar 
    42   35   33 2  
    43   33   45 1  
    44   34   36 1  
    45   46   34 1  
    46   47   35 1  
    47   36   48 1  
    48   50   38 1  
    49   39   51 ar 
    50   56   39 ar 
    51   52   40 ar 
    52   40   57 ar 
    53   42   41 1  
    54   45   43 ar 
    55   43   56 ar 
    56   46   44 ar 
    57   57   44 ar 
    58   49   47 ar 
    59   48   50 ar 
    60   51   58 1  
    61   52   60 1  
    62   53   55 ar 
    63   53   59 1  
    64   54   56 ar 
    65   55   57 ar 
    66    5   61 1  
    67    5   62 1  
    68    5   63 1  
    69    6   64 1  
    70    6   65 1  
    71    6   66 1  
    72    7   67 1  
    73    7   68 1  
    74    8   69 1  
    75    8   70 1  
    76   15   71 1  
    77   16   72 1  
    78   20   73 1  
    79   21   74 1  
    80   23   75 1  
    81   24   76 1  
    82   25   77 1  
    83   26   78 1  
    84   27   79 1  
    85   29   80 1  
    86   30   81 1  
    87   31   82 1  
    88   32   83 1  
    89   34   84 1  
    90   36   85 1  
    91   49   86 1  
@<TRIPOS>SUBSTRUCTURE
     1 Y0X         1

