### 
### Created by X-TOOL on Mon Sep 10 21:13:10 2018
### 

@<TRIPOS>MOLECULE
3u1y_ligand
   69    71     1     0     0
SMALL
GAST_HUCK


@<TRIPOS>ATOM
      1 C1         14.5690    6.0630   24.7380 C.ar      1 03I        -0.0321
      2 C2         14.1150    5.6760   23.4910 C.ar      1 03I        -0.0632
      3 C3         14.8900    5.8570   22.3610 C.ar      1 03I        -0.0322
      4 C4         16.1370    6.4290   22.4730 C.ar      1 03I         0.0919
      5 C5         16.6210    6.8230   23.7090 C.ar      1 03I        -0.0322
      6 C6         15.8230    6.6460   24.8280 C.ar      1 03I        -0.0632
      7 O7         16.8400    6.5550   21.2890 O.3       1 03I        -0.3172
      8 C8         13.7510    5.8400   25.9300 C.ar      1 03I        -0.0309
      9 C9         12.3760    6.0350   25.9320 C.ar      1 03I        -0.0626
     10 C10        11.6160    5.8180   27.0740 C.ar      1 03I        -0.0606
     11 C11        12.2180    5.3990   28.2450 C.ar      1 03I        -0.0436
     12 C12        13.5900    5.2080   28.2470 C.ar      1 03I        -0.0606
     13 C13        14.3490    5.4200   27.1090 C.ar      1 03I        -0.0626
     14 C14        11.4350    5.1600   29.5060 C.3       1 03I        -0.0183
     15 C15        11.0380    3.6930   29.5920 C.3       1 03I        -0.0114
     16 C16        10.1750    3.2340   30.7720 C.3       1 03I         0.1668
     17 C17        10.8300    3.5970   32.1130 C.2       1 03I         0.2449
     18 S18         9.9210    1.4550   30.6810 S.o2      1 03I        -0.0212
     19 C19        11.5450    0.7500   30.6840 C.3       1 03I         0.0541
     20 O20         9.2140    1.0090   31.8680 O.2       1 03I        -0.1753
     21 O21         9.3380    1.1040   29.3990 O.2       1 03I        -0.1753
     22 C22         8.7920    3.8430   30.6170 C.3       1 03I        -0.0329
     23 N23        10.0560    4.3430   32.9700 N.am      1 03I        -0.1610
     24 O24        11.9660    3.2690   32.4310 O.2       1 03I        -0.3445
     25 C25        17.7830    7.6130   21.3410 C.3       1 03I         0.0755
     26 C26        18.2620    7.8010   19.9200 C.3       1 03I         0.0154
     27 C27        19.7190    8.1470   19.9610 C.3       1 03I        -0.0292
     28 O28        10.7370    4.5440   34.1910 O.3       1 03I        -0.2706
     29 N29        20.2750    8.1200   18.5900 N.4       1 03I         0.2385
     30 C30        20.8750    6.7930   18.2450 C.3       1 03I        -0.0078
     31 C31        21.3620    6.8880   16.8140 C.3       1 03I         0.0878
     32 O32        22.3310    7.9440   16.7580 O.3       1 03I        -0.3693
     33 C33        21.7390    9.2250   17.0040 C.3       1 03I         0.0878
     34 C34        21.2220    9.2620   18.4290 C.3       1 03I        -0.0078
     35 H1         13.1346    5.2229   23.3978 H         1 03I         0.0592
     36 H2         14.5173    5.5498   21.3905 H         1 03I         0.0545
     37 H3         17.6077    7.2626   23.7998 H         1 03I         0.0545
     38 H4         16.1879    6.9709   25.7956 H         1 03I         0.0592
     39 H5         11.8855    6.3636   25.0229 H         1 03I         0.0595
     40 H6         10.5443    5.9783   27.0465 H         1 03I         0.0556
     41 H7         14.0795    4.8857   29.1589 H         1 03I         0.0556
     42 H8         15.4201    5.2564   27.1395 H         1 03I         0.0595
     43 H9         10.5293    5.7842   29.4981 H         1 03I         0.0425
     44 H10        12.0540    5.4230   30.3764 H         1 03I         0.0425
     45 H11        11.9682    3.1068   29.6235 H         1 03I         0.0295
     46 H12        10.4840    3.4527   28.6726 H         1 03I         0.0295
     47 H13        11.4690   -0.3460   30.6298 H         1 03I         0.0462
     48 H14        12.0672    1.0360   31.6089 H         1 03I         0.0462
     49 H15        12.1078    1.1219   29.8152 H         1 03I         0.0462
     50 H16         8.8670    4.9395   30.6628 H         1 03I         0.0238
     51 H17         8.1410    3.4859   31.4286 H         1 03I         0.0238
     52 H18         8.3666    3.5448   29.6474 H         1 03I         0.0238
     53 H19         9.1431    4.6927   32.7594 H         1 03I         0.2233
     54 H20        18.6242    7.3457   21.9975 H         1 03I         0.0616
     55 H21        17.3074    8.5334   21.7107 H         1 03I         0.0616
     56 H22        17.6988    8.6158   19.4416 H         1 03I         0.0343
     57 H23        18.1157    6.8709   19.3512 H         1 03I         0.0343
     58 H24        20.2515    7.4153   20.5863 H         1 03I         0.0815
     59 H25        19.8443    9.1534   20.3869 H         1 03I         0.0815
     60 H26        10.1931    5.0600   34.7744 H         1 03I         0.2497
     61 H27        19.5120    8.2688   17.9483 H         1 03I         0.2035
     62 H28        20.1173    6.0006   18.3347 H         1 03I         0.0837
     63 H29        21.7174    6.5726   18.9172 H         1 03I         0.0837
     64 H30        20.5193    7.1157   16.1447 H         1 03I         0.0613
     65 H31        21.8247    5.9372   16.5107 H         1 03I         0.0613
     66 H32        20.9056    9.3870   16.3046 H         1 03I         0.0613
     67 H33        22.4934   10.0133   16.8644 H         1 03I         0.0613
     68 H34        22.0589    9.1589   19.1353 H         1 03I         0.0837
     69 H35        20.7001   10.2123   18.6150 H         1 03I         0.0837
@<TRIPOS>BOND
     1    1    2 ar 
     2    1    6 ar 
     3    1    8 1  
     4    2    3 ar 
     5    3    4 ar 
     6    4    5 ar 
     7    4    7 1  
     8    5    6 ar 
     9    7   25 1  
    10    8    9 ar 
    11    8   13 ar 
    12    9   10 ar 
    13   10   11 ar 
    14   11   12 ar 
    15   11   14 1  
    16   12   13 ar 
    17   14   15 1  
    18   15   16 1  
    19   16   17 1  
    20   16   18 1  
    21   16   22 1  
    22   17   23 am 
    23   17   24 2  
    24   18   19 1  
    25   18   20 2  
    26   18   21 2  
    27   23   28 1  
    28   25   26 1  
    29   26   27 1  
    30   27   29 1  
    31   29   30 1  
    32   29   34 1  
    33   30   31 1  
    34   31   32 1  
    35   32   33 1  
    36   33   34 1  
    37    2   35 1  
    38    3   36 1  
    39    5   37 1  
    40    6   38 1  
    41    9   39 1  
    42   10   40 1  
    43   12   41 1  
    44   13   42 1  
    45   14   43 1  
    46   14   44 1  
    47   15   45 1  
    48   15   46 1  
    49   19   47 1  
    50   19   48 1  
    51   19   49 1  
    52   22   50 1  
    53   22   51 1  
    54   22   52 1  
    55   23   53 1  
    56   25   54 1  
    57   25   55 1  
    58   26   56 1  
    59   26   57 1  
    60   27   58 1  
    61   27   59 1  
    62   28   60 1  
    63   29   61 1  
    64   30   62 1  
    65   30   63 1  
    66   31   64 1  
    67   31   65 1  
    68   33   66 1  
    69   33   67 1  
    70   34   68 1  
    71   34   69 1  
@<TRIPOS>SUBSTRUCTURE
     1 03I         1

