### 
### Created by X-TOOL on Mon Sep 10 21:13:08 2018
### 

@<TRIPOS>MOLECULE
3u2k_ligand
   45    47     1     0     0
SMALL
GAST_HUCK


@<TRIPOS>ATOM
      1 C1          5.5680    8.3670   23.6180 C.3       1 087        -0.0068
      2 CL1        -4.8970   -1.4580   23.0670 Cl        1 087        -0.0433
      3 C2          4.2700    7.6230   23.5300 C.2       1 087         0.0546
      4 CL2         0.9340    6.5700   21.8840 Cl        1 087        -0.0978
      5 C3          3.3600    7.6780   22.5220 C.2       1 087         0.0381
      6 CL3         3.4080    8.6500   21.0550 Cl        1 087        -0.1132
      7 C4          2.3270    6.7950   22.8750 C.2       1 087         0.0429
      8 C5          2.6280    6.2230   24.1090 C.2       1 087         0.1288
      9 N6          3.8510    6.7420   24.4810 N.pl3     1 087        -0.2738
     10 C8          1.9110    5.2240   24.9150 C.2       1 087         0.2095
     11 O9          2.4290    4.8550   25.9700 O.2       1 087        -0.3967
     12 N10         0.7290    4.6880   24.4950 N.am      1 087        -0.2857
     13 C11         0.0410    3.6530   25.2790 C.3       1 087         0.0444
     14 C12        -1.4120    3.5290   24.7830 C.3       1 087        -0.0098
     15 C13        -2.0840    2.2590   25.3400 C.3       1 087         0.0317
     16 N14        -1.2290    1.0980   25.0350 N.pl3     1 087        -0.2940
     17 C15         0.0920    1.1370   25.6640 C.3       1 087         0.0317
     18 C16         0.8220    2.3410   25.0500 C.3       1 087        -0.0098
     19 C17        -1.8290   -0.1550   24.9870 C.ar      1 087         0.1158
     20 C18        -1.3170   -1.2490   25.6950 C.ar      1 087         0.0001
     21 C19        -1.9510   -2.4930   25.6040 C.ar      1 087         0.0551
     22 C20        -3.0830   -2.5820   24.7750 C.ar      1 087        -0.0130
     23 C21        -3.5120   -1.4450   24.1040 C.ar      1 087         0.1073
     24 N22        -2.8870   -0.2930   24.2200 N.ar      1 087        -0.2655
     25 C24        -1.4400   -3.6650   26.3670 C.2       1 087         0.2084
     26 O25        -0.2420   -3.8480   26.4900 O.2       1 087        -0.3798
     27 N26        -2.2900   -4.5440   26.9380 N.am      1 087        -0.2986
     28 H1          6.0767    8.1069   24.5580 H         1 087         0.0425
     29 H2          5.3727    9.4492   23.5942 H         1 087         0.0425
     30 H3          6.2074    8.0909   22.7665 H         1 087         0.0425
     31 H4          4.3652    6.5018   25.3405 H         1 087         0.2335
     32 H5          0.3233    5.0053   23.6378 H         1 087         0.1836
     33 H6          0.0444    3.9130   26.3478 H         1 087         0.0555
     34 H7         -1.4134    3.4831   23.6840 H         1 087         0.0307
     35 H8         -1.9807    4.4105   25.1140 H         1 087         0.0307
     36 H9         -3.0698    2.1258   24.8705 H         1 087         0.0520
     37 H10        -2.2061    2.3524   26.4292 H         1 087         0.0520
     38 H11         0.6428    0.2086   25.4527 H         1 087         0.0520
     39 H12        -0.0070    1.2652   26.7520 H         1 087         0.0520
     40 H13         1.8156    2.4309   25.5134 H         1 087         0.0307
     41 H14         0.9354    2.1766   23.9683 H         1 087         0.0307
     42 H15        -0.4328   -1.1327   26.3113 H         1 087         0.0634
     43 H16        -3.6114   -3.5217   24.6618 H         1 087         0.0626
     44 H17        -1.9323   -5.3266   27.4475 H         1 087         0.1812
     45 H18        -3.2776   -4.4128   26.8516 H         1 087         0.1812
@<TRIPOS>BOND
     1    3    1 1  
     2   23    2 1  
     3    3    5 2  
     4    9    3 1  
     5    7    4 1  
     6    5    6 1  
     7    7    5 1  
     8    8    7 2  
     9    8    9 1  
    10   10    8 1  
    11   10   11 2  
    12   12   10 am 
    13   13   12 1  
    14   14   13 1  
    15   18   13 1  
    16   15   14 1  
    17   16   15 1  
    18   16   17 1  
    19   19   16 1  
    20   17   18 1  
    21   20   19 ar 
    22   19   24 ar 
    23   21   20 ar 
    24   22   21 ar 
    25   21   25 1  
    26   22   23 ar 
    27   23   24 ar 
    28   25   26 2  
    29   25   27 am 
    30    1   28 1  
    31    1   29 1  
    32    1   30 1  
    33    9   31 1  
    34   12   32 1  
    35   13   33 1  
    36   14   34 1  
    37   14   35 1  
    38   15   36 1  
    39   15   37 1  
    40   17   38 1  
    41   17   39 1  
    42   18   40 1  
    43   18   41 1  
    44   20   42 1  
    45   22   43 1  
    46   27   44 1  
    47   27   45 1  
@<TRIPOS>SUBSTRUCTURE
     1 087         1

