### 
### Created by X-TOOL on Fri Sep 26 17:34:56 2014
### 

@<TRIPOS>MOLECULE
3u3u_ligand
   54    53     1     0     0
SMALL
GAST_HUCK


@<TRIPOS>ATOM
      1 O1         23.6920  -16.9320   16.1770 O.co2     1 EAH        -0.5690
      2 C1         23.0880  -15.9740   16.6820 C.2       1 EAH         0.0348
      3 O2         21.8460  -15.9580   16.8070 O.co2     1 EAH        -0.5690
      4 C2         23.9030  -14.7990   17.1620 C.3       1 EAH         0.0003
      5 C3         25.1420  -14.6560   16.2850 C.3       1 EAH        -0.0389
      6 C4         25.4400  -13.1950   15.9650 C.3       1 EAH        -0.0230
      7 C5         26.1010  -12.4020   17.1010 C.3       1 EAH         0.0660
      8 O3         26.7600  -13.2660   18.0400 O.3       1 EAH        -0.3891
      9 C6         25.1250  -11.4870   17.8400 C.3       1 EAH         0.0029
     10 C7         24.0660  -10.9500   16.9120 C.2       1 EAH        -0.0765
     11 C8         24.3310  -10.3380   15.7380 C.2       1 EAH        -0.0809
     12 C9         23.1750   -9.8790   14.9760 C.2       1 EAH        -0.0882
     13 C10        23.1430   -9.3560   13.7450 C.2       1 EAH        -0.0881
     14 C11        21.7610   -9.0410   13.4020 C.2       1 EAH        -0.0797
     15 C12        21.1890   -8.4960   12.3340 C.2       1 EAH        -0.0717
     16 C13        21.7570   -7.9760   11.0440 C.3       1 EAH        -0.0075
     17 C14        20.5040   -7.8790   10.1890 C.2       1 EAH        -0.0852
     18 C15        20.1770   -6.8680    9.3780 C.2       1 EAH        -0.0948
     19 C16        21.0650   -5.6600    9.1920 C.3       1 EAH        -0.0352
     20 C17        20.6380   -4.5580   10.1420 C.3       1 EAH        -0.0461
     21 C18        21.5200   -3.3260    9.9590 C.3       1 EAH        -0.0517
     22 C19        21.4470   -2.4540   11.2090 C.3       1 EAH        -0.0558
     23 C20        21.8640   -1.0330   10.9310 C.3       1 EAH        -0.0653
     24 H1         24.2083  -14.9649   18.2057 H         1 EAH         0.0430
     25 H2         23.2992  -13.8818   17.0979 H         1 EAH         0.0430
     26 H3         24.9775  -15.2008   15.3437 H         1 EAH         0.0284
     27 H4         26.0046  -15.0885   16.8131 H         1 EAH         0.0284
     28 H5         24.4904  -12.7008   15.7121 H         1 EAH         0.0293
     29 H6         26.1114  -13.1668   15.0941 H         1 EAH         0.0293
     30 H7         26.8683  -11.7615   16.6417 H         1 EAH         0.0622
     31 H8         27.1561  -12.7423   18.7265 H         1 EAH         0.2101
     32 H9         25.6828  -10.6435   18.2729 H         1 EAH         0.0483
     33 H10        24.6394  -12.0574   18.6454 H         1 EAH         0.0483
     34 H11        23.0235  -11.0624   17.2062 H         1 EAH         0.0679
     35 H12        25.3497  -10.1952   15.3804 H         1 EAH         0.0431
     36 H13        22.2115   -9.9746   15.4745 H         1 EAH         0.0485
     37 H14        24.0078   -9.1922   13.1038 H         1 EAH         0.0485
     38 H15        21.0508   -9.3078   14.1832 H         1 EAH         0.0433
     39 H16        20.1059   -8.4101   12.4073 H         1 EAH         0.0687
     40 H17        22.4863   -8.6775   10.6126 H         1 EAH         0.0582
     41 H18        22.2301   -6.9922   11.1792 H         1 EAH         0.0582
     42 H19        19.8058   -8.7131   10.2423 H         1 EAH         0.0472
     43 H20        19.2363   -6.9169    8.8315 H         1 EAH         0.0471
     44 H21        20.9814   -5.3013    8.1555 H         1 EAH         0.0393
     45 H22        22.1086   -5.9381    9.4008 H         1 EAH         0.0393
     46 H23        20.7279   -4.9174   11.1777 H         1 EAH         0.0285
     47 H24        19.5915   -4.2881    9.9370 H         1 EAH         0.0285
     48 H25        21.1689   -2.7502    9.0900 H         1 EAH         0.0267
     49 H26        22.5605   -3.6420    9.7934 H         1 EAH         0.0267
     50 H27        22.1132   -2.8760   11.9758 H         1 EAH         0.0263
     51 H28        20.4122   -2.4539   11.5820 H         1 EAH         0.0263
     52 H29        21.7960   -0.4431   11.8570 H         1 EAH         0.0230
     53 H30        21.1997   -0.5982   10.1697 H         1 EAH         0.0230
     54 H31        22.9007   -1.0203   10.5635 H         1 EAH         0.0230
@<TRIPOS>BOND
     1    1    2 ar 
     2    2    3 ar 
     3    2    4 1  
     4    4    5 1  
     5    5    6 1  
     6    6    7 1  
     7    7    8 1  
     8    7    9 1  
     9    9   10 1  
    10   10   11 2  
    11   11   12 1  
    12   12   13 2  
    13   13   14 1  
    14   14   15 2  
    15   15   16 1  
    16   16   17 1  
    17   17   18 2  
    18   18   19 1  
    19   19   20 1  
    20   20   21 1  
    21   21   22 1  
    22   22   23 1  
    23    4   24 1  
    24    4   25 1  
    25    5   26 1  
    26    5   27 1  
    27    6   28 1  
    28    6   29 1  
    29    7   30 1  
    30    8   31 1  
    31    9   32 1  
    32    9   33 1  
    33   10   34 1  
    34   11   35 1  
    35   12   36 1  
    36   13   37 1  
    37   14   38 1  
    38   15   39 1  
    39   16   40 1  
    40   16   41 1  
    41   17   42 1  
    42   18   43 1  
    43   19   44 1  
    44   19   45 1  
    45   20   46 1  
    46   20   47 1  
    47   21   48 1  
    48   21   49 1  
    49   22   50 1  
    50   22   51 1  
    51   23   52 1  
    52   23   53 1  
    53   23   54 1  
@<TRIPOS>SUBSTRUCTURE
     1 EAH         1

