### 
### Created by X-TOOL on Mon Sep 10 21:13:05 2018
### 

@<TRIPOS>MOLECULE
3u4o_ligand
   42    45     1     0     0
SMALL
GAST_HUCK


@<TRIPOS>ATOM
      1 C10        25.8760   41.9110   46.3980 C.ar      1 08E        -0.0412
      2 C9         25.7760   41.8360   47.7910 C.ar      1 08E        -0.0611
      3 C21        27.4090   42.7130   41.5880 C.ar      1 08E        -0.0440
      4 C2         24.4570   43.8860   47.8680 C.ar      1 08E        -0.0574
      5 C25        27.6690   44.2720   43.4290 C.ar      1 08E        -0.0139
      6 C22        28.5100   43.3100   41.0180 C.ar      1 08E        -0.0117
      7 C4         24.5380   43.9790   46.4570 C.ar      1 08E        -0.0070
      8 C8         24.0330   44.8860   45.4860 C.2       1 08E         0.0145
      9 C20        26.9790   43.2020   42.8200 C.ar      1 08E        -0.0073
     10 C5         25.2480   42.9950   45.7660 C.ar      1 08E         0.0694
     11 C3         25.0850   42.8110   48.5130 C.ar      1 08E         0.0242
     12 C7         24.4430   44.4640   44.2190 C.2       1 08E         0.1015
     13 C24        28.7710   44.8190   42.7730 C.ar      1 08E         0.0997
     14 C18        22.6090   48.0220   47.0800 C.2       1 08E        -0.0189
     15 C17        23.4820   46.8970   46.7950 C.2       1 08E        -0.0155
     16 C19        21.5080   48.2100   46.3300 C.2       1 08E         0.0135
     17 C1         23.2150   46.0250   45.7950 C.3       1 08E         0.1073
     18 C15        21.9460   46.2330   44.9860 C.2       1 08E         0.1862
     19 C11        24.2290   44.9900   42.8740 C.2       1 08E         0.0797
     20 C12        25.7840   42.5140   43.4020 C.3       1 08E         0.0871
     21 N23        29.1940   44.3460   41.5710 N.ar      1 08E        -0.2952
     22 N6         25.1660   43.3180   44.4430 N.pl3     1 08E        -0.2491
     23 N16        21.1880   47.3310   45.3190 N.2       1 08E        -0.2630
     24 N27        29.4780   45.8700   43.3530 N.pl3     1 08E        -0.3239
     25 O28        21.6130   45.4410   44.0750 O.2       1 08E        -0.3878
     26 O13        23.9820   44.3320   41.8760 O.co2     1 08E        -0.5624
     27 O14        24.1920   46.3310   42.8370 O.co2     1 08E        -0.5624
     28 CL2        24.9680   42.6760   50.2400 Cl        1 08E        -0.0818
     29 H1         26.4164   41.1625   45.8299 H         1 08E         0.0546
     30 H2         26.2411   41.0101   48.3170 H         1 08E         0.0549
     31 H3         26.8959   41.8938   41.0975 H         1 08E         0.0543
     32 H4         23.9186   44.6333   48.4396 H         1 08E         0.0561
     33 H5         27.3483   44.6612   44.3886 H         1 08E         0.0542
     34 H6         28.8549   42.9283   40.0638 H         1 08E         0.0760
     35 H7         22.8434   48.7072   47.8933 H         1 08E         0.0551
     36 H8         24.3746   46.7513   47.4016 H         1 08E         0.1053
     37 H9         20.8632   49.0659   46.5242 H         1 08E         0.1090
     38 H10        23.7975   46.6411   45.0942 H         1 08E         0.0920
     39 H11        26.0988   41.5517   43.8321 H         1 08E         0.0783
     40 H12        25.0490   42.3358   42.6033 H         1 08E         0.0783
     41 H13        30.2919   46.2732   42.8673 H         1 08E         0.1763
     42 H14        29.1868   46.2439   44.2675 H         1 08E         0.1763
@<TRIPOS>BOND
     1    1    2 ar 
     2   10    1 ar 
     3    2   11 ar 
     4    3    6 ar 
     5    9    3 ar 
     6    7    4 ar 
     7    4   11 ar 
     8    9    5 ar 
     9    5   13 ar 
    10    6   21 ar 
    11    8    7 1  
    12   10    7 ar 
    13   12    8 2  
    14    8   17 1  
    15   20    9 1  
    16   22   10 1  
    17   11   28 1  
    18   12   19 1  
    19   22   12 1  
    20   13   21 ar 
    21   13   24 1  
    22   15   14 2  
    23   14   16 1  
    24   17   15 1  
    25   23   16 2  
    26   17   18 1  
    27   18   23 1  
    28   18   25 2  
    29   19   26 ar 
    30   19   27 ar 
    31   20   22 1  
    32    1   29 1  
    33    2   30 1  
    34    3   31 1  
    35    4   32 1  
    36    5   33 1  
    37    6   34 1  
    38   14   35 1  
    39   15   36 1  
    40   16   37 1  
    41   17   38 1  
    42   20   39 1  
    43   20   40 1  
    44   24   41 1  
    45   24   42 1  
@<TRIPOS>SUBSTRUCTURE
     1 08E         1

