### 
### Created by X-TOOL on Mon Sep 10 21:13:06 2018
### 

@<TRIPOS>MOLECULE
3u4r_ligand
   65    69     1     0     0
SMALL
GAST_HUCK


@<TRIPOS>ATOM
      1 S1         27.9230   43.8370   35.9090 S.o2      1 08F         0.0573
      2 O1         26.5620   43.3350   35.9570 O.2       1 08F        -0.1501
      3 O2         28.9390   43.0360   35.2470 O.2       1 08F        -0.1501
      4 S2         24.1930   44.8640   40.3680 S.o2      1 08F         0.0862
      5 O3         23.4540   46.1090   40.2580 O.2       1 08F        -0.1459
      6 O4         23.9360   43.7110   39.5540 O.2       1 08F        -0.1459
      7 C1         23.3250   46.0130   45.9830 C.2       1 08F         0.0294
      8 C2         24.5360   43.7910   47.9060 C.ar      1 08F        -0.0556
      9 C3         25.1610   42.7100   48.5310 C.ar      1 08F         0.0259
     10 C4         24.6520   43.9280   46.5030 C.ar      1 08F        -0.0074
     11 C5         25.3890   42.9670   45.7640 C.ar      1 08F         0.0739
     12 N1         25.3520   43.3510   44.4480 N.pl3     1 08F        -0.2404
     13 C6         24.6330   44.5390   44.3180 C.2       1 08F         0.1435
     14 C7         24.1640   44.8880   45.6030 C.2       1 08F         0.0072
     15 C8         25.8830   41.7480   47.7870 C.ar      1 08F        -0.0595
     16 C9         26.0060   41.8630   46.3900 C.ar      1 08F        -0.0388
     17 C10        24.4630   45.2430   43.0570 C.2       1 08F         0.2437
     18 C11        25.9820   42.6070   43.3340 C.3       1 08F         0.0892
     19 O5         24.4890   46.4690   42.9470 O.2       1 08F        -0.3861
     20 C12        22.0170   46.2130   45.2140 C.2       1 08F         0.1724
     21 N2         21.2140   47.3050   45.6130 N.2       1 08F        -0.2513
     22 C13        21.5480   48.1510   46.6390 C.2       1 08F         0.0386
     23 C14        22.6830   47.9820   47.3330 C.3       1 08F         0.0480
     24 C15        23.5890   46.8830   46.9880 C.2       1 08F        -0.0332
     25 O6         21.6970   45.4440   44.3050 O.2       1 08F        -0.3927
     26 N3         24.3090   44.3730   41.9660 N.am      1 08F        -0.1534
     27 C16        25.8330   45.3090   39.9070 C.ar      1 08F         0.0974
     28 C17        27.2870   43.1290   42.8320 C.ar      1 08F        -0.0069
     29 C18        27.9080   42.5000   41.7500 C.ar      1 08F        -0.0440
     30 C19        29.1130   43.0080   41.3030 C.ar      1 08F        -0.0117
     31 N4         29.7460   44.0850   41.8650 N.ar      1 08F        -0.2952
     32 C20        29.1460   44.7040   42.9220 C.ar      1 08F         0.0997
     33 C21        27.9140   44.2500   43.4270 C.ar      1 08F        -0.0138
     34 N5         29.7840   45.8000   43.4990 N.pl3     1 08F        -0.3239
     35 CL1        25.0240   42.5720   50.2460 Cl        1 08F        -0.0811
     36 C22        26.4440   46.4200   40.5050 C.ar      1 08F        -0.0522
     37 C23        27.7390   46.7640   40.1160 C.ar      1 08F        -0.0760
     38 C24        28.3940   46.0070   39.1320 C.ar      1 08F        -0.0454
     39 C25        27.7790   44.8810   38.5310 C.ar      1 08F         0.0640
     40 C26        26.4900   44.5310   38.9140 C.ar      1 08F        -0.0187
     41 N6         28.5270   44.1700   37.5160 N.am      1 08F        -0.1916
     42 C27        27.9880   45.3920   35.0250 C.3       1 08F         0.0788
     43 H1         23.9718   44.5125   48.4858 H         1 08F         0.0572
     44 H2         26.3469   40.9126   48.2988 H         1 08F         0.0561
     45 H3         26.5564   41.1280   45.8138 H         1 08F         0.0552
     46 H4         25.2758   42.6088   42.4906 H         1 08F         0.0787
     47 H5         26.1450   41.5735   43.6736 H         1 08F         0.0787
     48 H6         20.8811   48.9731   46.8944 H         1 08F         0.1321
     49 H7         22.3952   47.8396   48.3851 H         1 08F         0.0799
     50 H8         23.2594   48.9136   47.2333 H         1 08F         0.0799
     51 H9         24.5077   46.7610   47.5599 H         1 08F         0.0816
     52 H10        24.2655   43.3921   42.1557 H         1 08F         0.2131
     53 H11        27.4569   41.6369   41.2740 H         1 08F         0.0543
     54 H12        29.5862   42.5247   40.4559 H         1 08F         0.0760
     55 H13        27.4482   44.7549   44.2656 H         1 08F         0.0542
     56 H14        29.3521   46.2853   44.2983 H         1 08F         0.1763
     57 H15        30.6875   46.1250   43.1262 H         1 08F         0.1763
     58 H16        25.9202   47.0009   41.2555 H         1 08F         0.0491
     59 H17        28.2371   47.6121   40.5717 H         1 08F         0.0572
     60 H18        29.3941   46.2906   38.8246 H         1 08F         0.0481
     61 H19        25.9934   43.6792   38.4635 H         1 08F         0.0501
     62 H20        29.4454   43.8496   37.7479 H         1 08F         0.2159
     63 H21        27.2477   46.0862   35.4494 H         1 08F         0.0487
     64 H22        27.7618   45.2195   33.9624 H         1 08F         0.0487
     65 H23        28.9943   45.8260   35.1200 H         1 08F         0.0487
@<TRIPOS>BOND
     1    1    2 2  
     2    1    3 2  
     3   41    1 am 
     4    1   42 1  
     5    4    5 2  
     6    4    6 2  
     7    4   26 am 
     8   27    4 1  
     9   14    7 1  
    10    7   20 1  
    11    7   24 2  
    12    8    9 ar 
    13   10    8 ar 
    14    9   15 ar 
    15    9   35 1  
    16   10   11 ar 
    17   14   10 1  
    18   12   11 1  
    19   11   16 ar 
    20   13   12 1  
    21   12   18 1  
    22   13   14 2  
    23   17   13 1  
    24   16   15 ar 
    25   17   19 2  
    26   26   17 am 
    27   18   28 1  
    28   20   21 1  
    29   20   25 2  
    30   21   22 2  
    31   23   22 1  
    32   24   23 1  
    33   27   36 ar 
    34   40   27 ar 
    35   28   29 ar 
    36   28   33 ar 
    37   29   30 ar 
    38   30   31 ar 
    39   32   31 ar 
    40   33   32 ar 
    41   32   34 1  
    42   37   36 ar 
    43   38   37 ar 
    44   39   38 ar 
    45   39   40 ar 
    46   39   41 1  
    47    8   43 1  
    48   15   44 1  
    49   16   45 1  
    50   18   46 1  
    51   18   47 1  
    52   22   48 1  
    53   23   49 1  
    54   23   50 1  
    55   24   51 1  
    56   26   52 1  
    57   29   53 1  
    58   30   54 1  
    59   33   55 1  
    60   34   56 1  
    61   34   57 1  
    62   36   58 1  
    63   37   59 1  
    64   38   60 1  
    65   40   61 1  
    66   41   62 1  
    67   42   63 1  
    68   42   64 1  
    69   42   65 1  
@<TRIPOS>SUBSTRUCTURE
     1 08F         1

