### 
### Created by X-TOOL on Mon Sep 10 21:13:11 2018
### 

@<TRIPOS>MOLECULE
3u4u_ligand
   53    57     1     0     0
SMALL
GAST_HUCK


@<TRIPOS>ATOM
      1 C1         24.4270   27.2100    8.7880 C.3       1 LNH         0.0311
      2 C2         24.2900   26.5880   10.1560 C.2       1 LNH         0.1978
      3 O3         24.1080   25.3830   10.2330 O.2       1 LNH        -0.3865
      4 N4         24.4130   27.4150   11.2770 N.am      1 LNH        -0.2410
      5 C5         24.3410   28.8320   11.3030 C.ar      1 LNH         0.0502
      6 C6         25.1970   29.5240   12.1540 C.ar      1 LNH        -0.0507
      7 C7         25.1920   30.9010   12.2550 C.ar      1 LNH        -0.0494
      8 C8         24.2710   31.5230   11.4240 C.ar      1 LNH         0.0620
      9 C9         23.4030   30.8720   10.5590 C.ar      1 LNH        -0.0233
     10 C10        23.4330   29.4900   10.4960 C.ar      1 LNH        -0.0541
     11 C11        22.6180   31.8540    9.8790 C.2       1 LNH         0.0059
     12 C12        23.0170   33.0900   10.3310 C.2       1 LNH         0.0508
     13 N13        24.0110   32.8590   11.2510 N.pl3     1 LNH        -0.2571
     14 C14        24.6960   33.9120   11.9990 C.3       1 LNH         0.0656
     15 C15        24.1660   33.7880   13.4260 C.3       1 LNH         0.0273
     16 C16        25.0390   34.6680   14.3140 C.2       1 LNH         0.0374
     17 O17        26.2520   34.8770   14.0050 O.co2     1 LNH        -0.5689
     18 O18        24.4150   35.0480   15.3460 O.co2     1 LNH        -0.5689
     19 C19        21.5680   31.6050    8.8670 C.2       1 LNH         0.0118
     20 C20        20.7250   32.6890    8.2800 C.2       1 LNH         0.0200
     21 C21        19.7940   32.4470    7.3510 C.2       1 LNH         0.2248
     22 N22        19.6210   31.1540    6.9200 N.pl3     1 LNH        -0.0998
     23 C23        20.3580   30.1280    7.4220 C.2       1 LNH         0.1824
     24 N24        21.3280   30.2550    8.3920 N.2       1 LNH        -0.2929
     25 C25        19.9730   28.9640    6.7960 C.2       1 LNH         0.1096
     26 C26        18.9510   29.3530    5.9090 C.2       1 LNH         0.0165
     27 N27        18.7580   30.6820    5.9920 N.2       1 LNH        -0.1987
     28 C28        20.5280   27.6680    7.0230 C.1       1 LNH         0.0423
     29 N29        21.0470   26.6420    7.1670 N.1       1 LNH        -0.3823
     30 N30        18.9840   33.3990    6.7670 N.pl3     1 LNH        -0.2666
     31 C31        19.1790   34.8150    7.1370 C.3       1 LNH         0.0474
     32 C32        18.6430   35.8920    6.2280 C.3       1 LNH        -0.0265
     33 C33        20.1210   35.6780    6.3340 C.3       1 LNH        -0.0265
     34 H1         24.5850   28.2936    8.8921 H         1 LNH         0.0471
     35 H2         23.5100   27.0272    8.2086 H         1 LNH         0.0471
     36 H3         25.2858   26.7627    8.2661 H         1 LNH         0.0471
     37 H4         24.5682   26.9593   12.1535 H         1 LNH         0.2222
     38 H5         25.8953   28.9599   12.7616 H         1 LNH         0.0458
     39 H6         25.8483   31.4469   12.9231 H         1 LNH         0.0529
     40 H7         22.7680   28.9434    9.8372 H         1 LNH         0.0394
     41 H8         22.6241   34.0575   10.0219 H         1 LNH         0.1097
     42 H9         24.4569   34.9014   11.5819 H         1 LNH         0.0627
     43 H10        25.7849   33.7577   11.9758 H         1 LNH         0.0627
     44 H11        24.2249   32.7414   13.7595 H         1 LNH         0.0457
     45 H12        23.1210   34.1286   13.4700 H         1 LNH         0.0457
     46 H13        20.8737   33.7127    8.6205 H         1 LNH         0.0415
     47 H14        18.3998   28.6796    5.2543 H         1 LNH         0.0728
     48 H15        18.2589   33.1278    6.0876 H         1 LNH         0.1951
     49 H16        19.1202   34.9267    8.2297 H         1 LNH         0.0571
     50 H17        18.1868   36.7962    6.6573 H         1 LNH         0.0289
     51 H18        18.1132   35.6173    5.3040 H         1 LNH         0.0289
     52 H19        20.6756   35.2460    5.4880 H         1 LNH         0.0289
     53 H20        20.7493   36.4249    6.8413 H         1 LNH         0.0289
@<TRIPOS>BOND
     1    1    2 1  
     2    2    3 2  
     3    2    4 am 
     4    4    5 1  
     5    5    6 ar 
     6    5   10 ar 
     7    6    7 ar 
     8    7    8 ar 
     9    8    9 ar 
    10    8   13 1  
    11    9   10 ar 
    12    9   11 1  
    13   11   12 2  
    14   11   19 1  
    15   12   13 1  
    16   13   14 1  
    17   14   15 1  
    18   15   16 1  
    19   16   17 ar 
    20   16   18 ar 
    21   19   20 1  
    22   19   24 2  
    23   20   21 2  
    24   21   22 1  
    25   21   30 1  
    26   22   23 1  
    27   22   27 1  
    28   23   24 1  
    29   23   25 2  
    30   25   26 1  
    31   25   28 1  
    32   26   27 2  
    33   28   29 3  
    34   30   31 1  
    35   31   32 1  
    36   31   33 1  
    37   32   33 1  
    38    1   34 1  
    39    1   35 1  
    40    1   36 1  
    41    4   37 1  
    42    6   38 1  
    43    7   39 1  
    44   10   40 1  
    45   12   41 1  
    46   14   42 1  
    47   14   43 1  
    48   15   44 1  
    49   15   45 1  
    50   20   46 1  
    51   26   47 1  
    52   30   48 1  
    53   31   49 1  
    54   32   50 1  
    55   32   51 1  
    56   33   52 1  
    57   33   53 1  
@<TRIPOS>SUBSTRUCTURE
     1 LNH         1

