### 
### Created by X-TOOL on Mon Sep 10 21:13:08 2018
### 

@<TRIPOS>MOLECULE
3u4w_ligand
   99   102     1     0     0
SMALL
GAST_HUCK


@<TRIPOS>ATOM
      1 C2        -55.9520   44.5250    7.2040 C.2       1 FUM         0.1805
      2 O3        -56.2840   44.2840    6.0300 O.2       1 FUM        -0.3968
      3 C4        -56.6100   45.8370    7.5070 C.3       1 FUM         0.0542
      4 C5        -57.4250   45.9140    8.6240 C.3       1 FUM         0.0541
      5 C6        -58.5920   44.9850    8.8470 C.2       1 FUM         0.1799
      6 O7        -58.5720   43.8530    8.3360 O.2       1 FUM        -0.3968
      7 N         -55.3860   43.4540    7.7390 N.am      1 ALC        -0.2655
      8 CA        -54.7630   42.3580    7.0620 C.3       1 ALC         0.1312
      9 C         -55.2070   41.1440    7.7990 C.2       1 ALC         0.2040
     10 O         -56.0710   40.5840    7.1120 O.2       1 ALC        -0.3944
     11 CB        -53.2250   42.3770    7.2060 C.3       1 ALC        -0.0096
     12 CG        -52.5850   43.6760    6.6010 C.3       1 ALC        -0.0368
     13 CD2       -51.1310   43.7360    6.9830 C.3       1 ALC        -0.0500
     14 CE2       -50.3470   44.8150    6.1690 C.3       1 ALC        -0.0528
     15 CZ        -50.6140   44.8070    4.7080 C.3       1 ALC        -0.0530
     16 CE1       -52.0840   44.9470    4.4560 C.3       1 ALC        -0.0528
     17 CD1       -52.7850   43.7500    5.0700 C.3       1 ALC        -0.0500
     18 N         -55.1990   40.4690    8.9230 N.am      1 PHE        -0.2619
     19 CA        -55.5180   39.2930    9.7600 C.3       1 PHE         0.1404
     20 C         -56.2830   39.8960   10.8690 C.2       1 PHE         0.2060
     21 O         -56.9890   38.9610   11.2940 O.2       1 PHE        -0.3942
     22 CB        -54.2900   38.5530   10.2150 C.3       1 PHE         0.0214
     23 CG        -53.3650   38.4140    9.0180 C.ar      1 PHE        -0.0386
     24 CD1       -52.2600   39.2670    8.8760 C.ar      1 PHE        -0.0601
     25 CD2       -53.5790   37.4010    8.0440 C.ar      1 PHE        -0.0601
     26 CE1       -51.2580   38.9870    7.9030 C.ar      1 PHE        -0.0686
     27 CE2       -52.6280   37.1810    7.0580 C.ar      1 PHE        -0.0686
     28 CZ        -51.5270   38.0080    6.9130 C.ar      1 PHE        -0.0687
     29 C21       -58.3660   42.6040   12.2330 C.2       1 08M         0.2017
     30 O22       -57.5820   43.4510   11.7540 O.2       1 08M        -0.3945
     31 C23       -57.5360   41.3500   12.5040 C.3       1 08M         0.1309
     32 N24       -56.7380   41.0740   11.2930 N.am      1 08M        -0.2636
     33 C31       -56.6340   41.5480   13.6730 C.3       1 08M        -0.0106
     34 C32       -55.8830   40.2590   14.0000 C.3       1 08M        -0.0285
     35 C33       -55.4280   40.3530   15.4310 C.3       1 08M         0.0310
     36 N34       -54.1440   39.6880   15.5690 N.am      1 08M        -0.2830
     37 C35       -53.8390   38.8630   16.7370 C.2       1 08M         0.2325
     38 O36       -54.5430   38.8890   17.7070 O.2       1 08M        -0.3757
     39 C37       -52.4420   38.2930   16.8290 C.ar      1 08M         0.1531
     40 N38       -51.6570   38.3590   15.7280 N.ar      1 08M        -0.2509
     41 C39       -50.4870   37.7440   15.7910 C.ar      1 08M         0.0475
     42 C40       -49.9130   37.5000   17.0270 C.ar      1 08M         0.0462
     43 N41       -50.6820   37.4240   18.1040 N.ar      1 08M        -0.2653
     44 C42       -51.9560   37.8970   18.0580 C.ar      1 08M         0.0620
     45 N         -59.6300   45.0310    9.6650 N.am      1 DAB        -0.2712
     46 CA        -60.5910   43.9660    9.8830 C.3       1 DAB         0.0961
     47 C         -61.6290   43.9530    8.8120 C.2       1 DAB         0.0602
     48 O         -62.4650   43.0190    8.8550 O.co2     1 DAB        -0.5666
     49 CB        -61.3280   44.1450   11.2180 C.3       1 DAB         0.0023
     50 CG        -60.4050   44.3860   12.3890 C.3       1 DAB         0.0346
     51 ND        -59.4720   43.2770   12.4550 N.am      1 DAB        -0.2849
     52 OXT       -61.9720   45.0580    8.3000 O.co2     1 DAB        -0.5666
     53 H1        -57.2249   46.1035    6.6347 H         1 FUM         0.0527
     54 H2        -55.8107   46.5821    7.6336 H         1 FUM         0.0527
     55 H3        -57.8414   46.9321    8.6275 H         1 FUM         0.0527
     56 H4        -56.7632   45.7855    9.4932 H         1 FUM         0.0527
     57 H5        -55.3951   43.4052    8.7378 H         1 ALC         0.1883
     58 H6        -55.0566   42.3345    6.0022 H         1 ALC         0.0800
     59 H7        -52.8102   41.5023    6.6837 H         1 ALC         0.0315
     60 H8        -52.9692   42.3215    8.2744 H         1 ALC         0.0315
     61 H9        -53.0908   44.5461    7.0450 H         1 ALC         0.0303
     62 H10       -50.6755   42.7523    6.7963 H         1 ALC         0.0268
     63 H11       -51.0564   43.9775    8.0536 H         1 ALC         0.0268
     64 H12       -49.2711   44.6441    6.3214 H         1 ALC         0.0265
     65 H13       -50.6202   45.8056    6.5616 H         1 ALC         0.0265
     66 H14       -50.2592   43.8588    4.2778 H         1 ALC         0.0265
     67 H15       -50.0818   45.6458    4.2356 H         1 ALC         0.0265
     68 H16       -52.2753   44.9757    3.3732 H         1 ALC         0.0265
     69 H17       -52.4548   45.8735    4.9186 H         1 ALC         0.0265
     70 H18       -53.8617   43.8227    4.8568 H         1 ALC         0.0268
     71 H19       -52.3823   42.8327    4.6157 H         1 ALC         0.0268
     72 H20       -54.7179   41.0776    9.5541 H         1 PHE         0.1885
     73 H21       -56.1528   38.5894    9.2015 H         1 PHE         0.0823
     74 H22       -54.5698   37.5574   10.5899 H         1 PHE         0.0474
     75 H23       -53.7868   39.1175   11.0138 H         1 PHE         0.0474
     76 H24       -52.1685   40.1422    9.5090 H         1 PHE         0.0557
     77 H25       -54.4823   36.8023    8.0715 H         1 PHE         0.0557
     78 H26       -50.3095   39.5115    7.9190 H         1 PHE         0.0599
     79 H27       -52.7500   36.3406    6.3843 H         1 PHE         0.0599
     80 H28       -50.8771   37.9081    6.0512 H         1 PHE         0.0559
     81 H29       -58.2068   40.5024   12.7079 H         1 08M         0.0800
     82 H30       -56.5124   41.8647   10.7238 H         1 08M         0.1883
     83 H31       -57.2337   41.8476   14.5451 H         1 08M         0.0313
     84 H32       -55.9072   42.3396   13.4383 H         1 08M         0.0313
     85 H33       -55.0131   40.1519   13.3354 H         1 08M         0.0287
     86 H34       -56.5497   39.3932   13.8738 H         1 08M         0.0287
     87 H35       -56.1666   39.8659   16.0846 H         1 08M         0.0520
     88 H36       -55.3270   41.4106   15.7162 H         1 08M         0.0520
     89 H37       -53.4557   39.7965   14.8517 H         1 08M         0.1849
     90 H38       -49.9825   37.4340   14.8830 H         1 08M         0.0941
     91 H39       -48.8401   37.3717   17.1136 H         1 08M         0.0958
     92 H40       -52.5659   37.9605   18.9519 H         1 08M         0.0978
     93 H41       -59.7650   45.8772   10.1805 H         1 DAB         0.1875
     94 H42       -60.0556   43.0051    9.8866 H         1 DAB         0.0727
     95 H43       -61.9128   43.2350   11.4174 H         1 DAB         0.0325
     96 H44       -62.0076   45.0052   11.1278 H         1 DAB         0.0325
     97 H45       -60.9882   44.4400   13.3201 H         1 DAB         0.0522
     98 H46       -59.8562   45.3284   12.2449 H         1 DAB         0.0522
     99 H47       -59.9870   42.6242   13.0105 H         1 DAB         0.1851
@<TRIPOS>BOND
     1    1    2 2  
     2    1    3 1  
     3    7    1 am 
     4    3    4 1  
     5    4    5 1  
     6    5    6 2  
     7    5   45 am 
     8    8    7 1  
     9    9    8 1  
    10    8   11 1  
    11    9   10 2  
    12   18    9 am 
    13   11   12 1  
    14   12   13 1  
    15   12   17 1  
    16   13   14 1  
    17   14   15 1  
    18   16   15 1  
    19   17   16 1  
    20   19   18 1  
    21   20   19 1  
    22   19   22 1  
    23   20   21 2  
    24   32   20 am 
    25   22   23 1  
    26   23   24 ar 
    27   23   25 ar 
    28   24   26 ar 
    29   25   27 ar 
    30   26   28 ar 
    31   27   28 ar 
    32   29   30 2  
    33   31   29 1  
    34   29   51 am 
    35   31   32 1  
    36   31   33 1  
    37   33   34 1  
    38   34   35 1  
    39   35   36 1  
    40   36   37 am 
    41   37   38 2  
    42   37   39 1  
    43   39   40 ar 
    44   39   44 ar 
    45   40   41 ar 
    46   41   42 ar 
    47   42   43 ar 
    48   43   44 ar 
    49   45   46 1  
    50   46   47 1  
    51   46   49 1  
    52   47   48 ar 
    53   47   52 ar 
    54   49   50 1  
    55   50   51 1  
    56    3   53 1  
    57    3   54 1  
    58    4   55 1  
    59    4   56 1  
    60    7   57 1  
    61    8   58 1  
    62   11   59 1  
    63   11   60 1  
    64   12   61 1  
    65   13   62 1  
    66   13   63 1  
    67   14   64 1  
    68   14   65 1  
    69   15   66 1  
    70   15   67 1  
    71   16   68 1  
    72   16   69 1  
    73   17   70 1  
    74   17   71 1  
    75   18   72 1  
    76   19   73 1  
    77   22   74 1  
    78   22   75 1  
    79   24   76 1  
    80   25   77 1  
    81   26   78 1  
    82   27   79 1  
    83   28   80 1  
    84   31   81 1  
    85   32   82 1  
    86   33   83 1  
    87   33   84 1  
    88   34   85 1  
    89   34   86 1  
    90   35   87 1  
    91   35   88 1  
    92   36   89 1  
    93   41   90 1  
    94   42   91 1  
    95   44   92 1  
    96   45   93 1  
    97   46   94 1  
    98   49   95 1  
    99   49   96 1  
   100   50   97 1  
   101   50   98 1  
   102   51   99 1  
@<TRIPOS>SUBSTRUCTURE
     1 FUM         1

