### 
### Created by X-TOOL on Mon Sep 10 21:13:10 2018
### 

@<TRIPOS>MOLECULE
3u51_ligand
  105   108     1     0     0
SMALL
GAST_HUCK


@<TRIPOS>ATOM
      1 C2        -18.4240   24.1990    8.3250 C.2       1 FUM         0.2087
      2 O3        -17.8260   23.8490    7.3130 O.2       1 FUM        -0.3810
      3 C4        -19.9670   24.1630    8.3600 C.2       1 FUM         0.0332
      4 C5        -20.7250   23.1370    7.7520 C.2       1 FUM         0.0332
      5 C6        -20.0770   21.9880    6.9930 C.2       1 FUM         0.2087
      6 O7        -19.1310   22.1950    6.2760 O.2       1 FUM        -0.3810
      7 C01       -27.6790   24.2840    7.1870 C.ar      1 P4E        -0.0687
      8 C02       -26.7080   24.0740    6.1950 C.ar      1 P4E        -0.0686
      9 C03       -25.9710   22.8810    6.1780 C.ar      1 P4E        -0.0603
     10 C04       -26.2030   21.8990    7.1510 C.ar      1 P4E        -0.0430
     11 C05       -27.1710   22.1110    8.1390 C.ar      1 P4E        -0.0603
     12 C06       -27.9100   23.3080    8.1550 C.ar      1 P4E        -0.0686
     13 C07       -25.4080   20.6050    7.1360 C.3       1 P4E        -0.0189
     14 C08       -24.1800   20.5260    7.7990 C.3       1 P4E        -0.0391
     15 C09       -22.9440   20.1080    7.0070 C.3       1 P4E        -0.0107
     16 C10       -21.7030   20.1970    7.8940 C.3       1 P4E         0.1306
     17 C11       -21.3110   18.8590    8.5370 C.2       1 P4E         0.2038
     18 O12       -21.8270   18.4720    9.5780 O.2       1 P4E        -0.3944
     19 N32       -20.5670   20.6290    7.0780 N.am      1 P4E        -0.2643
     20 N         -20.2930   18.0660    7.8460 N.am      1 ALC        -0.2637
     21 CA        -19.7890   16.7830    8.3360 C.3       1 ALC         0.1312
     22 C         -18.4220   17.1210    8.9830 C.2       1 ALC         0.2039
     23 O         -17.8000   16.2950    9.6250 O.2       1 ALC        -0.3944
     24 CB        -19.6600   15.7070    7.2300 C.3       1 ALC        -0.0096
     25 CG        -20.7500   14.6450    7.3810 C.3       1 ALC        -0.0368
     26 CD2       -22.1340   15.2120    7.6250 C.3       1 ALC        -0.0500
     27 CE2       -23.2370   14.1780    7.6420 C.3       1 ALC        -0.0528
     28 CZ        -23.2270   13.3290    6.4160 C.3       1 ALC        -0.0530
     29 CE1       -21.8780   12.7280    6.1630 C.3       1 ALC        -0.0528
     30 CD1       -20.7900   13.7720    6.1390 C.3       1 ALC        -0.0500
     31 C21       -16.7150   20.3930    9.8250 C.2       1 08M         0.2017
     32 O22       -17.8040   20.9420    9.9270 O.2       1 08M        -0.3945
     33 C23       -16.6240   18.9680    9.2920 C.3       1 08M         0.1309
     34 N24       -17.9130   18.4740    8.7650 N.am      1 08M        -0.2637
     35 C31       -15.6000   18.8750    8.1500 C.3       1 08M        -0.0106
     36 C32       -16.1960   18.0420    6.9960 C.3       1 08M        -0.0285
     37 C33       -15.5750   18.4190    5.6660 C.3       1 08M         0.0310
     38 N34       -14.1090   18.4260    5.7430 N.am      1 08M        -0.2830
     39 C35       -13.3240   17.7550    4.7210 C.2       1 08M         0.2325
     40 O36       -13.8790   17.1730    3.7970 O.2       1 08M        -0.3757
     41 C37       -11.8040   17.7710    4.7770 C.ar      1 08M         0.1531
     42 N38       -11.1580   18.8400    5.2900 N.ar      1 08M        -0.2509
     43 C39        -9.7990   18.8540    5.3290 C.ar      1 08M         0.0475
     44 C40        -9.0820   17.7730    4.8370 C.ar      1 08M         0.0462
     45 N41        -9.7320   16.6990    4.3150 N.ar      1 08M        -0.2653
     46 C42       -11.0850   16.6880    4.2800 C.ar      1 08M         0.0620
     47 N         -17.6990   24.6530    9.5070 N.am      1 DAB        -0.2643
     48 CA        -16.2170   24.7260    9.6120 C.3       1 DAB         0.1320
     49 C         -15.6130   25.7840    8.7050 C.2       1 DAB         0.1992
     50 O         -14.9680   25.4650    7.7320 O.2       1 DAB        -0.3947
     51 CB        -15.5660   23.3560    9.4390 C.3       1 DAB         0.0077
     52 CG        -15.6430   22.4790   10.6830 C.3       1 DAB         0.0352
     53 ND        -15.5190   21.1130   10.2030 N.am      1 DAB        -0.2848
     54 N         -15.8000   27.1800    9.0080 N.am      1 NH2        -0.2990
     55 H         -20.4951   24.9645    8.8766 H         1 FUM         0.0827
     56 H         -21.8118   23.1697    7.8293 H         1 FUM         0.0827
     57 H         -28.2526   25.2108    7.2002 H         1 P4E         0.0559
     58 H         -26.5271   24.8377    5.4386 H         1 P4E         0.0599
     59 H         -25.2173   22.7173    5.4077 H         1 P4E         0.0557
     60 H         -27.3525   21.3485    8.8964 H         1 P4E         0.0557
     61 H         -28.6638   23.4723    8.9250 H         1 P4E         0.0599
     62 H         -25.1589   20.4525    6.0859 H         1 P4E         0.0426
     63 H         -26.0441   19.8904    7.6584 H         1 P4E         0.0426
     64 H         -24.3128   19.7460    8.5487 H         1 P4E         0.0289
     65 H         -23.9722   21.5429    8.1319 H         1 P4E         0.0289
     66 H         -22.8231   20.7731    6.1520 H         1 P4E         0.0314
     67 H         -23.0675   19.0809    6.6637 H         1 P4E         0.0314
     68 H         -21.9458   20.9001    8.6907 H         1 P4E         0.0799
     69 H         -20.0844   19.9185    6.5278 H         1 P4E         0.1875
     70 H         -19.9129   18.4291    6.9719 H         1 ALC         0.1883
     71 H         -20.4853   16.3342    9.0444 H         1 ALC         0.0800
     72 H         -18.6853   15.2269    7.3168 H         1 ALC         0.0315
     73 H         -19.7670   16.1866    6.2570 H         1 ALC         0.0315
     74 H         -20.4843   14.0667    8.2659 H         1 ALC         0.0303
     75 H         -22.3491   15.8964    6.8044 H         1 ALC         0.0268
     76 H         -22.1192   15.6809    8.6089 H         1 ALC         0.0268
     77 H         -24.1927   14.7003    7.6867 H         1 ALC         0.0265
     78 H         -23.0838   13.5308    8.5056 H         1 ALC         0.0265
     79 H         -23.4866   13.9568    5.5636 H         1 ALC         0.0265
     80 H         -23.9415   12.5179    6.5564 H         1 ALC         0.0265
     81 H         -21.9007   12.2369    5.1902 H         1 ALC         0.0265
     82 H         -21.6604   12.0273    6.9691 H         1 ALC         0.0265
     83 H         -19.8368   13.2465    6.0804 H         1 ALC         0.0268
     84 H         -20.9855   14.4255    5.2888 H         1 ALC         0.0268
     85 H         -16.3229   18.3559   10.1421 H         1 08M         0.0800
     86 H         -18.4829   19.1168    8.2151 H         1 08M         0.1883
     87 H         -14.6909   18.3961    8.5136 H         1 08M         0.0313
     88 H         -15.3617   19.8764    7.7915 H         1 08M         0.0313
     89 H         -17.2674   18.2359    6.9458 H         1 08M         0.0287
     90 H         -15.9922   16.9885    7.1876 H         1 08M         0.0287
     91 H         -15.9126   19.4200    5.3974 H         1 08M         0.0520
     92 H         -15.8793   17.6840    4.9208 H         1 08M         0.0520
     93 H         -13.6413   18.9021    6.5143 H         1 08M         0.1849
     94 H          -9.2737   19.7131    5.7461 H         1 08M         0.0941
     95 H          -7.9925   17.7848    4.8691 H         1 08M         0.0958
     96 H         -11.6119   15.8302    3.8622 H         1 08M         0.0978
     97 H         -18.2467   24.9404   10.3180 H         1 DAB         0.1875
     98 H         -15.9930   25.0510   10.6280 H         1 DAB         0.0800
     99 H         -14.5107   23.5219    9.2222 H         1 DAB         0.0332
    100 H         -16.1014   22.8392    8.6425 H         1 DAB         0.0332
    101 H         -16.5789   22.6300   11.2209 H         1 DAB         0.0522
    102 H         -14.8552   22.7254   11.3948 H         1 DAB         0.0522
    103 H         -14.6032   20.6691   10.1338 H         1 DAB         0.1851
    104 H         -15.3899   27.8924    8.4040 H         1 NH2         0.1815
    105 H         -16.3425   27.4560    9.8265 H         1 NH2         0.1815
@<TRIPOS>BOND
     1    1    2 2  
     2    3    1 1  
     3    1   47 am 
     4    4    3 2  
     5    5    4 1  
     6    5    6 2  
     7   19    5 am 
     8    8    7 ar 
     9   12    7 ar 
    10    9    8 ar 
    11   10    9 ar 
    12   10   11 ar 
    13   13   10 1  
    14   11   12 ar 
    15   14   13 1  
    16   15   14 1  
    17   16   15 1  
    18   17   16 1  
    19   16   19 1  
    20   17   18 2  
    21   20   17 am 
    22   21   20 1  
    23   22   21 1  
    24   21   24 1  
    25   22   23 2  
    26   34   22 am 
    27   24   25 1  
    28   25   26 1  
    29   25   30 1  
    30   26   27 1  
    31   27   28 1  
    32   29   28 1  
    33   30   29 1  
    34   31   32 2  
    35   33   31 1  
    36   31   53 am 
    37   33   34 1  
    38   33   35 1  
    39   35   36 1  
    40   36   37 1  
    41   37   38 1  
    42   38   39 am 
    43   39   40 2  
    44   39   41 1  
    45   41   42 ar 
    46   41   46 ar 
    47   42   43 ar 
    48   43   44 ar 
    49   44   45 ar 
    50   45   46 ar 
    51   47   48 1  
    52   48   49 1  
    53   48   51 1  
    54   49   50 2  
    55   49   54 am 
    56   51   52 1  
    57   52   53 1  
    58    3   55 1  
    59    4   56 1  
    60    7   57 1  
    61    8   58 1  
    62    9   59 1  
    63   11   60 1  
    64   12   61 1  
    65   13   62 1  
    66   13   63 1  
    67   14   64 1  
    68   14   65 1  
    69   15   66 1  
    70   15   67 1  
    71   16   68 1  
    72   19   69 1  
    73   20   70 1  
    74   21   71 1  
    75   24   72 1  
    76   24   73 1  
    77   25   74 1  
    78   26   75 1  
    79   26   76 1  
    80   27   77 1  
    81   27   78 1  
    82   28   79 1  
    83   28   80 1  
    84   29   81 1  
    85   29   82 1  
    86   30   83 1  
    87   30   84 1  
    88   33   85 1  
    89   34   86 1  
    90   35   87 1  
    91   35   88 1  
    92   36   89 1  
    93   36   90 1  
    94   37   91 1  
    95   37   92 1  
    96   38   93 1  
    97   43   94 1  
    98   44   95 1  
    99   46   96 1  
   100   47   97 1  
   101   48   98 1  
   102   51   99 1  
   103   51  100 1  
   104   52  101 1  
   105   52  102 1  
   106   53  103 1  
   107   54  104 1  
   108   54  105 1  
@<TRIPOS>SUBSTRUCTURE
     1 FUM         1

