### 
### Created by X-TOOL on Mon Sep 10 21:13:05 2018
### 

@<TRIPOS>MOLECULE
3u5l_ligand
   37    40     1     0     0
SMALL
GAST_HUCK


@<TRIPOS>ATOM
      1 CLA        25.6140   14.4260    0.4450 Cl        1 08K        -0.0781
      2 CAP        27.2140   15.1170    0.2300 C.ar      1 08K         0.0320
      3 CAJ        27.7530   15.1830   -1.0310 C.ar      1 08K        -0.0441
      4 CAS        29.0240   15.7610   -1.1890 C.ar      1 08K         0.0325
      5 CAO        29.5910   15.8440   -2.5730 C.2       1 08K         0.0780
      6 CAQ        28.6920   16.3060   -3.6880 C.ar      1 08K        -0.0042
      7 CAG        27.5290   17.0560   -3.4490 C.ar      1 08K        -0.0538
      8 CAE        26.7600   17.5440   -4.5090 C.ar      1 08K        -0.0619
      9 CAC        27.1560   17.3000   -5.8190 C.ar      1 08K        -0.0625
     10 CAD        28.3390   16.5890   -6.0520 C.ar      1 08K        -0.0619
     11 CAF        29.0880   16.0890   -5.0080 C.ar      1 08K        -0.0538
     12 NAL        30.8580   15.6870   -2.7930 N.2       1 08K        -0.1836
     13 NAK        31.8580   15.3230   -1.7940 N.pl3     1 08K        -0.1589
     14 C23        32.9820   14.4960   -2.1690 C.3       1 08K         0.0559
     15 CAT        31.9910   16.2740   -0.8350 C.2       1 08K         0.2764
     16 NAV        31.0080   16.8110   -0.1470 N.pl3     1 08K        -0.1450
     17 CAR        31.4960   17.8510    0.5570 C.2       1 08K         0.1406
     18 CAA        30.8030   18.7450    1.5250 C.3       1 08K         0.0161
     19 NAM        32.7760   17.9960    0.2410 N.2       1 08K        -0.2854
     20 NAN        33.1250   16.9750   -0.6610 N.2       1 08K        -0.2637
     21 CAU        29.7390   16.2560   -0.0790 C.ar      1 08K         0.1132
     22 CAI        29.1360   16.0960    1.1840 C.ar      1 08K        -0.0271
     23 CAH        27.8780   15.5630    1.3510 C.ar      1 08K        -0.0536
     24 H1         27.2098   14.7975   -1.8862 H         1 08K         0.0602
     25 H2         27.2237   17.2591   -2.4289 H         1 08K         0.0618
     26 H3         25.8577   18.1109   -4.3103 H         1 08K         0.0616
     27 H4         26.5565   17.6557   -6.6492 H         1 08K         0.0611
     28 H5         28.6721   16.4287   -7.0710 H         1 08K         0.0616
     29 H6         29.9899   15.5240   -5.2140 H         1 08K         0.0618
     30 H7         33.6232   14.3288   -1.2910 H         1 08K         0.0555
     31 H8         33.5620   15.0004   -2.9559 H         1 08K         0.0555
     32 H9         32.6165   13.5292   -2.5455 H         1 08K         0.0555
     33 H10        31.5148   19.4896    1.9108 H         1 08K         0.0471
     34 H11        30.4097   18.1467    2.3600 H         1 08K         0.0471
     35 H12        29.9725   19.2594    1.0194 H         1 08K         0.0471
     36 H13        29.6875   16.4066    2.0640 H         1 08K         0.0570
     37 H14        27.4245   15.4964    2.3333 H         1 08K         0.0601
@<TRIPOS>BOND
     1    1    2 1  
     2    2    3 ar 
     3    2   23 ar 
     4    3    4 ar 
     5    4    5 1  
     6    4   21 ar 
     7    5    6 1  
     8    5   12 2  
     9    6    7 ar 
    10    6   11 ar 
    11    7    8 ar 
    12    8    9 ar 
    13    9   10 ar 
    14   10   11 ar 
    15   12   13 1  
    16   13   14 1  
    17   13   15 1  
    18   15   16 1  
    19   15   20 2  
    20   16   17 1  
    21   16   21 1  
    22   17   18 1  
    23   17   19 2  
    24   19   20 1  
    25   21   22 ar 
    26   22   23 ar 
    27    3   24 1  
    28    7   25 1  
    29    8   26 1  
    30    9   27 1  
    31   10   28 1  
    32   11   29 1  
    33   14   30 1  
    34   14   31 1  
    35   14   32 1  
    36   18   33 1  
    37   18   34 1  
    38   18   35 1  
    39   22   36 1  
    40   23   37 1  
@<TRIPOS>SUBSTRUCTURE
     1 08K         1

