### 
### Created by X-TOOL on Mon Sep 10 21:13:11 2018
### 

@<TRIPOS>MOLECULE
3u6h_ligand
   65    69     1     0     0
SMALL
GAST_HUCK


@<TRIPOS>ATOM
      1 N1         23.4690    5.3680  -23.8500 N.ar      1 03X        -0.3290
      2 N3         24.8570    0.7100  -12.1500 N.2       1 03X        -0.1831
      3 C4         20.0570    6.0750  -22.7430 C.ar      1 03X        -0.0224
      4 C5         21.4070    5.7030  -22.7050 C.ar      1 03X         0.0267
      5 C6         22.1700    5.7340  -23.8730 C.ar      1 03X         0.0168
      6 C7         24.0650    4.9630  -22.7220 C.ar      1 03X        -0.0141
      7 C8         23.3510    4.9180  -21.5210 C.ar      1 03X        -0.0097
      8 C10        21.6760    4.6320  -19.2390 C.ar      1 03X         0.1410
      9 C13        22.0870    5.4280  -18.1770 C.ar      1 03X         0.1540
     10 C15        22.5960    3.4850  -16.8400 C.ar      1 03X         0.0560
     11 C17        21.7170    3.2360  -19.1050 C.ar      1 03X        -0.0408
     12 C20        24.2570    0.3960  -13.3030 C.2       1 03X         0.1329
     13 C21        24.3470    2.5760  -13.0460 C.2       1 03X         0.3636
     14 C22        24.0060   -1.0200  -13.8340 C.3       1 03X         0.0231
     15 C24        25.5010    2.5350  -10.9570 C.ar      1 03X         0.1853
     16 C26        27.6730    3.2190  -10.0790 C.ar      1 03X        -0.0459
     17 C28        25.6540    3.5870   -8.8040 C.ar      1 03X        -0.0459
     18 C11        20.4320    7.0050  -27.4480 C.3       1 03X         0.0593
     19 O3         19.6150    6.9250  -26.2600 O.3       1 03X        -0.3184
     20 C2         20.2370    6.5170  -25.1090 C.ar      1 03X         0.1284
     21 C3         21.5820    6.1400  -25.0740 C.ar      1 03X        -0.0216
     22 C1         19.4730    6.4810  -23.9470 C.ar      1 03X         0.1282
     23 O2         18.1610    6.8700  -24.0390 O.3       1 03X        -0.3209
     24 C12        17.3670    6.8220  -22.8260 C.3       1 03X         0.0581
     25 C9         21.9960    5.2830  -21.5050 C.ar      1 03X         0.1341
     26 O1         21.2250    5.2650  -20.3720 O.3       1 03X        -0.2538
     27 C14        22.5560    4.8690  -16.9910 C.ar      1 03X        -0.0137
     28 F1         22.0400    6.7580  -18.3060 F         1 03X        -0.1920
     29 C16        22.1870    2.6710  -17.9060 C.ar      1 03X        -0.0511
     30 N2         23.0950    3.0270  -15.6790 N.am      1 03X        -0.2341
     31 C18        23.2090    1.7580  -15.2730 C.2       1 03X         0.2537
     32 O4         22.8570    0.7750  -15.9190 O.2       1 03X        -0.3751
     33 C19        23.8940    1.5860  -13.9110 C.3       1 03X         0.2518
     34 O5         24.2280    3.7940  -13.2070 O.2       1 03X        -0.3152
     35 C23        25.3870   -0.3120  -11.1710 C.3       1 03X         0.0435
     36 N4         24.8900    1.9470  -11.9880 N.am      1 03X        -0.0473
     37 C25        26.8930    2.6440  -11.0770 C.ar      1 03X         0.0065
     38 C27        27.0410    3.6950   -8.9360 C.ar      1 03X        -0.0505
     39 C29        24.8710    3.0090   -9.8080 C.ar      1 03X         0.0065
     40 H1         19.4633    6.0481  -21.8364 H         1 03X         0.0520
     41 H2         25.1079    4.6680  -22.7399 H         1 03X         0.0769
     42 H3         23.8413    4.6029  -20.6070 H         1 03X         0.0544
     43 H4         21.3893    2.5987  -19.9183 H         1 03X         0.0513
     44 H5         23.4939   -0.9617  -14.8058 H         1 03X         0.0587
     45 H6         23.3771   -1.5730  -13.1208 H         1 03X         0.0587
     46 H7         24.9668   -1.5413  -13.9566 H         1 03X         0.0587
     47 H8         28.7487    3.2942  -10.1900 H         1 03X         0.0654
     48 H9         25.1755    3.9588   -7.9052 H         1 03X         0.0654
     49 H10        19.8159    7.3422  -28.2946 H         1 03X         0.0578
     50 H11        20.8516    6.0131  -27.6720 H         1 03X         0.0578
     51 H12        21.2508    7.7207  -27.2824 H         1 03X         0.0578
     52 H13        22.1723    6.1626  -25.9829 H         1 03X         0.0483
     53 H14        16.3428    7.1585  -23.0447 H         1 03X         0.0575
     54 H15        17.8154    7.4810  -22.0679 H         1 03X         0.0575
     55 H16        17.3406    5.7902  -22.4456 H         1 03X         0.0575
     56 H17        22.8903    5.5116  -16.1845 H         1 03X         0.0467
     57 H18        22.2337    1.5928  -17.8046 H         1 03X         0.0450
     58 H19        23.4219    3.7222  -15.0388 H         1 03X         0.2233
     59 H20        22.8949    1.5757  -13.4510 H         1 03X         0.1160
     60 H21        25.2251   -1.3231  -11.5729 H         1 03X         0.0438
     61 H22        24.8582   -0.2097  -10.2119 H         1 03X         0.0438
     62 H23        26.4634   -0.1472  -11.0157 H         1 03X         0.0438
     63 H24        27.3754    2.2697  -11.9727 H         1 03X         0.0730
     64 H25        27.6255    4.1511   -8.1452 H         1 03X         0.0710
     65 H26        23.7957    2.9312   -9.6948 H         1 03X         0.0730
@<TRIPOS>BOND
     1    5    1 ar 
     2    6    1 ar 
     3   12    2 2  
     4    2   35 1  
     5   36    2 1  
     6    4    3 ar 
     7    3   22 ar 
     8    4    5 ar 
     9   25    4 ar 
    10    5   21 ar 
    11    7    6 ar 
    12   25    7 ar 
    13    9    8 ar 
    14   11    8 ar 
    15    8   26 1  
    16   27    9 ar 
    17    9   28 1  
    18   10   27 ar 
    19   10   29 ar 
    20   30   10 1  
    21   29   11 ar 
    22   12   14 1  
    23   33   12 1  
    24   33   13 1  
    25   13   34 2  
    26   13   36 am 
    27   36   15 1  
    28   15   37 ar 
    29   15   39 ar 
    30   37   16 ar 
    31   16   38 ar 
    32   17   38 ar 
    33   39   17 ar 
    34   19   18 1  
    35   20   19 1  
    36   21   20 ar 
    37   22   20 ar 
    38   22   23 1  
    39   23   24 1  
    40   26   25 1  
    41   31   30 am 
    42   31   32 2  
    43   31   33 1  
    44    3   40 1  
    45    6   41 1  
    46    7   42 1  
    47   11   43 1  
    48   14   44 1  
    49   14   45 1  
    50   14   46 1  
    51   16   47 1  
    52   17   48 1  
    53   18   49 1  
    54   18   50 1  
    55   18   51 1  
    56   21   52 1  
    57   24   53 1  
    58   24   54 1  
    59   24   55 1  
    60   27   56 1  
    61   29   57 1  
    62   30   58 1  
    63   33   59 1  
    64   35   60 1  
    65   35   61 1  
    66   35   62 1  
    67   37   63 1  
    68   38   64 1  
    69   39   65 1  
@<TRIPOS>SUBSTRUCTURE
     1 03X         1

