### 
### Created by X-TOOL on Mon Sep 10 21:13:11 2018
### 

@<TRIPOS>MOLECULE
3u6i_ligand
   67    71     1     0     0
SMALL
GAST_HUCK


@<TRIPOS>ATOM
      1 CAA        20.3980   -6.2900   24.8500 C.ar      1 044         0.0943
      2 CAB        23.5170   -4.8210   21.2380 C.ar      1 044        -0.0055
      3 CAC        24.2370   -4.8530   22.4350 C.ar      1 044        -0.0105
      4 NAD        23.6500   -5.2180   23.5710 N.ar      1 044        -0.3241
      5 CAE        22.3430   -5.5570   23.6080 C.ar      1 044         0.0239
      6 CAF        21.5740   -5.5500   22.4360 C.ar      1 044         0.0375
      7 CAG        22.1620   -5.1740   21.2330 C.ar      1 044         0.1403
      8 CAH        21.7520   -5.9300   24.8120 C.ar      1 044        -0.0198
      9 CAI        19.6360   -6.2660   23.6840 C.ar      1 044        -0.0251
     10 CAJ        20.2220   -5.9000   22.4750 C.ar      1 044        -0.0481
     11 OAK        21.3800   -5.1630   20.1030 O.3       1 044        -0.2511
     12 CAL        21.8370   -4.5110   18.9920 C.ar      1 044         0.1419
     13 CAM        21.8220   -3.1160   18.8650 C.ar      1 044        -0.0407
     14 CAN        22.3050   -5.2870   17.9440 C.ar      1 044         0.1540
     15 CAO        22.7790   -4.6960   16.7760 C.ar      1 044        -0.0140
     16 CAP        22.7730   -3.3070   16.6280 C.ar      1 044         0.0533
     17 CAQ        22.2990   -2.5250   17.6860 C.ar      1 044        -0.0514
     18 NAR        23.2770   -2.8070   15.4800 N.am      1 044        -0.2493
     19 CAS        24.5030   -2.3620   12.8740 C.2       1 044         0.2240
     20 CAT        24.0470   -1.3510   13.7050 C.2       1 044         0.1244
     21 CAU        23.3260   -1.5340   15.0590 C.2       1 044         0.1938
     22 OAV        22.9040   -0.5690   15.6970 O.2       1 044        -0.4082
     23 NAW        25.0570   -0.5370   11.9200 N.pl3     1 044        -0.1557
     24 CAX        24.4490   -0.1830   13.0670 C.2       1 044         0.1015
     25 NAY        25.0850   -1.7820   11.8190 N.am      1 044        -0.1138
     26 OAZ        24.3570   -3.5710   13.0650 O.2       1 044        -0.4045
     27 CBA        25.6800   -2.4600   10.8340 C.ar      1 044         0.0964
     28 CBB        27.0680   -2.6220   10.9390 C.ar      1 044        -0.0388
     29 CBC        24.9990   -3.0030    9.7440 C.ar      1 044        -0.0388
     30 CBD        25.7200   -3.6950    8.7680 C.ar      1 044        -0.0756
     31 CBE        27.7860   -3.3130    9.9640 C.ar      1 044        -0.0756
     32 CBF        27.1020   -3.8510    8.8740 C.ar      1 044        -0.0773
     33 FBG        22.3070   -6.6240   18.0920 F         1 044        -0.1919
     34 CBH        24.2090    1.2560   13.5580 C.3       1 044         0.0131
     35 CBI        25.6720    0.4140   10.9450 C.3       1 044         0.0944
     36 CBJ        24.7660    1.0690    9.9010 C.3       1 044         0.0770
     37 CBK        25.5780    2.0810    9.0770 C.3       1 044        -0.0368
     38 OBL        24.2000    0.0810    9.0490 O.3       1 044        -0.3898
     39 OBM        19.7840   -6.6550   26.0110 O.3       1 044        -0.3183
     40 CBN        20.6820   -7.0740   27.0560 C.3       1 044         0.0606
     41 H1         24.0054   -4.5241   20.3169 H         1 044         0.0555
     42 H2         25.2854   -4.5773   22.4376 H         1 044         0.0801
     43 H3         22.3404   -5.9420   25.7223 H         1 044         0.0494
     44 H4         18.5858   -6.5325   23.7179 H         1 044         0.0583
     45 H5         19.6308   -5.8867   21.5665 H         1 044         0.0650
     46 H6         21.4446   -2.4981   19.6718 H         1 044         0.0513
     47 H7         23.1563   -5.3197   15.9737 H         1 044         0.0466
     48 H8         22.3003   -1.4450   17.5934 H         1 044         0.0448
     49 H9         23.6697   -3.4811   14.8544 H         1 044         0.2199
     50 H10        27.5913   -2.2037   11.7912 H         1 044         0.0502
     51 H11        23.9246   -2.8894    9.6557 H         1 044         0.0502
     52 H12        25.1983   -4.1166    7.9165 H         1 044         0.0577
     53 H13        28.8600   -3.4304   10.0517 H         1 044         0.0577
     54 H14        27.6456   -4.3915    8.1076 H         1 044         0.0487
     55 H15        23.6900    1.2308   14.5275 H         1 044         0.0526
     56 H16        23.5909    1.7952   12.8251 H         1 044         0.0526
     57 H17        25.1746    1.7703   13.6723 H         1 044         0.0526
     58 H18        26.4516   -0.1378   10.3994 H         1 044         0.0597
     59 H19        26.1355    1.2236   11.5278 H         1 044         0.0597
     60 H20        23.9525    1.5998   10.4171 H         1 044         0.0613
     61 H21        24.9250    2.5510    8.3269 H         1 044         0.0255
     62 H22        26.4045    1.5618    8.5698 H         1 044         0.0255
     63 H23        25.9855    2.8545    9.7445 H         1 044         0.0255
     64 H24        23.7015   -0.5372    9.5704 H         1 044         0.2099
     65 H25        20.1021   -7.3482   27.9496 H         1 044         0.0580
     66 H26        21.3677   -6.2500   27.3025 H         1 044         0.0580
     67 H27        21.2620   -7.9439   26.7141 H         1 044         0.0580
@<TRIPOS>BOND
     1    8    1 ar 
     2    9    1 ar 
     3    1   39 1  
     4    2    3 ar 
     5    7    2 ar 
     6    3    4 ar 
     7    5    4 ar 
     8    6    5 ar 
     9    5    8 ar 
    10    7    6 ar 
    11    6   10 ar 
    12   11    7 1  
    13   10    9 ar 
    14   12   11 1  
    15   13   12 ar 
    16   14   12 ar 
    17   17   13 ar 
    18   15   14 ar 
    19   14   33 1  
    20   16   15 ar 
    21   16   17 ar 
    22   18   16 1  
    23   21   18 am 
    24   20   19 1  
    25   19   25 am 
    26   19   26 2  
    27   20   21 1  
    28   20   24 2  
    29   21   22 2  
    30   24   23 1  
    31   23   25 1  
    32   23   35 1  
    33   24   34 1  
    34   25   27 1  
    35   27   28 ar 
    36   27   29 ar 
    37   28   31 ar 
    38   29   30 ar 
    39   30   32 ar 
    40   31   32 ar 
    41   35   36 1  
    42   36   37 1  
    43   36   38 1  
    44   39   40 1  
    45    2   41 1  
    46    3   42 1  
    47    8   43 1  
    48    9   44 1  
    49   10   45 1  
    50   13   46 1  
    51   15   47 1  
    52   17   48 1  
    53   18   49 1  
    54   28   50 1  
    55   29   51 1  
    56   30   52 1  
    57   31   53 1  
    58   32   54 1  
    59   34   55 1  
    60   34   56 1  
    61   34   57 1  
    62   35   58 1  
    63   35   59 1  
    64   36   60 1  
    65   37   61 1  
    66   37   62 1  
    67   37   63 1  
    68   38   64 1  
    69   40   65 1  
    70   40   66 1  
    71   40   67 1  
@<TRIPOS>SUBSTRUCTURE
     1 044         1

