### 
### Created by X-TOOL on Mon Sep 10 21:13:10 2018
### 

@<TRIPOS>MOLECULE
3u6j_ligand
   65    69     1     0     0
SMALL
GAST_HUCK


@<TRIPOS>ATOM
      1 N1          8.7040   -5.3390   21.7270 N.ar      1 03X        -0.3290
      2 N3          4.7040   -0.1390   11.1590 N.2       1 03X        -0.1831
      3 C4          7.9670   -8.4990   20.0460 C.ar      1 03X        -0.0224
      4 C5          8.2380   -7.1400   20.2290 C.ar      1 03X         0.0267
      5 C6          8.4370   -6.6410   21.5230 C.ar      1 03X         0.0168
      6 C7          8.7830   -4.4850   20.7170 C.ar      1 03X        -0.0141
      7 C8          8.5960   -4.9180   19.4070 C.ar      1 03X        -0.0097
      8 C10         7.7050   -5.7920   16.9630 C.ar      1 03X         0.1410
      9 C13         8.6170   -5.1250   16.1360 C.ar      1 03X         0.1540
     10 C15         6.7990   -3.8860   15.1380 C.ar      1 03X         0.0560
     11 C17         6.3430   -5.5110   16.8720 C.ar      1 03X        -0.0408
     12 C20         5.7480   -0.9840   11.2170 C.2       1 03X         0.1329
     13 C21         4.6560   -0.9750   13.1010 C.2       1 03X         0.3636
     14 C22         6.7600   -1.2750   10.1050 C.3       1 03X         0.0231
     15 C24         2.9630    0.5680   12.5450 C.ar      1 03X         0.1853
     16 C26         1.7710    2.2650   13.7950 C.ar      1 03X        -0.0459
     17 C28         0.5730    0.9050   12.2130 C.ar      1 03X        -0.0459
     18 C11         8.6620   -9.3220   24.7240 C.3       1 03X         0.0593
     19 O3          7.9970   -9.7220   23.5030 O.3       1 03X        -0.3184
     20 C2          8.0880   -8.8570   22.4410 C.ar      1 03X         0.1284
     21 C3          8.3570   -7.4960   22.6170 C.ar      1 03X        -0.0216
     22 C1          7.8850   -9.3560   21.1530 C.ar      1 03X         0.1282
     23 O2          7.6210  -10.6950   21.0240 O.3       1 03X        -0.3209
     24 C12         7.1340  -11.1160   19.7370 C.3       1 03X         0.0581
     25 C9          8.3200   -6.2640   19.1450 C.ar      1 03X         0.1341
     26 O1          8.1400   -6.7250   17.8600 O.3       1 03X        -0.2538
     27 C14         8.1670   -4.1640   15.2240 C.ar      1 03X        -0.0137
     28 F1          9.9350   -5.4020   16.2350 F         1 03X        -0.1920
     29 C16         5.8980   -4.5610   15.9610 C.ar      1 03X        -0.0511
     30 N2          6.2690   -2.9880   14.3090 N.am      1 03X        -0.2341
     31 C18         6.7000   -2.5790   13.1130 C.2       1 03X         0.2537
     32 O4          7.7170   -2.9820   12.5480 O.2       1 03X        -0.3751
     33 C19         5.7570   -1.5400   12.4820 C.3       1 03X         0.2518
     34 O5          4.3030   -1.2040   14.2560 O.2       1 03X        -0.3152
     35 C23         4.3580    0.6650    9.9540 C.3       1 03X         0.0435
     36 N4          4.0800   -0.1270   12.2420 N.am      1 03X        -0.0473
     37 C25         2.9570    1.5890   13.4950 C.ar      1 03X         0.0065
     38 C27         0.5780    1.9290   13.1570 C.ar      1 03X        -0.0505
     39 C29         1.7590    0.2280   11.9190 C.ar      1 03X         0.0065
     40 H1          7.8199   -8.8913   19.0462 H         1 03X         0.0520
     41 H2          8.9951   -3.4400   20.9123 H         1 03X         0.0769
     42 H3          8.6644   -4.2106   18.5885 H         1 03X         0.0544
     43 H4          5.6353   -6.0303   17.5080 H         1 03X         0.0513
     44 H5          7.4945   -2.0122   10.4614 H         1 03X         0.0587
     45 H6          7.2784   -0.3451    9.8285 H         1 03X         0.0587
     46 H7          6.2340   -1.6768    9.2264 H         1 03X         0.0587
     47 H8          1.7790    3.0597   14.5322 H         1 03X         0.0654
     48 H9         -0.3475    0.6344   11.7085 H         1 03X         0.0654
     49 H10         8.5146  -10.0955   25.4921 H         1 03X         0.0578
     50 H11         8.2393   -8.3697   25.0768 H         1 03X         0.0578
     51 H12         9.7378   -9.1967   24.5316 H         1 03X         0.0578
     52 H13         8.5047   -7.1033   23.6165 H         1 03X         0.0483
     53 H14         6.9577  -12.2017   19.7489 H         1 03X         0.0575
     54 H15         7.8799  -10.8741   18.9656 H         1 03X         0.0575
     55 H16         6.1921  -10.5941   19.5127 H         1 03X         0.0575
     56 H17         8.8725   -3.6396   14.5897 H         1 03X         0.0467
     57 H18         4.8388   -4.3421   15.8892 H         1 03X         0.0450
     58 H19         5.4252   -2.5572   14.6290 H         1 03X         0.2233
     59 H20         6.4375   -0.7613   12.8568 H         1 03X         0.1160
     60 H21         5.0798    0.4522    9.1516 H         1 03X         0.0438
     61 H22         4.3936    1.7354   10.2048 H         1 03X         0.0438
     62 H23         3.3452    0.4011    9.6155 H         1 03X         0.0438
     63 H24         3.8758    1.8594   14.0027 H         1 03X         0.0730
     64 H25        -0.3372    2.4597   13.3934 H         1 03X         0.0710
     65 H26         1.7462   -0.5760   11.1920 H         1 03X         0.0730
@<TRIPOS>BOND
     1    5    1 ar 
     2    6    1 ar 
     3   12    2 2  
     4    2   35 1  
     5   36    2 1  
     6    4    3 ar 
     7    3   22 ar 
     8    4    5 ar 
     9   25    4 ar 
    10    5   21 ar 
    11    7    6 ar 
    12   25    7 ar 
    13    9    8 ar 
    14   11    8 ar 
    15    8   26 1  
    16   27    9 ar 
    17    9   28 1  
    18   10   27 ar 
    19   10   29 ar 
    20   30   10 1  
    21   29   11 ar 
    22   12   14 1  
    23   33   12 1  
    24   33   13 1  
    25   13   34 2  
    26   13   36 am 
    27   36   15 1  
    28   15   37 ar 
    29   15   39 ar 
    30   37   16 ar 
    31   16   38 ar 
    32   17   38 ar 
    33   39   17 ar 
    34   19   18 1  
    35   20   19 1  
    36   21   20 ar 
    37   22   20 ar 
    38   22   23 1  
    39   23   24 1  
    40   26   25 1  
    41   31   30 am 
    42   31   32 2  
    43   31   33 1  
    44    3   40 1  
    45    6   41 1  
    46    7   42 1  
    47   11   43 1  
    48   14   44 1  
    49   14   45 1  
    50   14   46 1  
    51   16   47 1  
    52   17   48 1  
    53   18   49 1  
    54   18   50 1  
    55   18   51 1  
    56   21   52 1  
    57   24   53 1  
    58   24   54 1  
    59   24   55 1  
    60   27   56 1  
    61   29   57 1  
    62   30   58 1  
    63   33   59 1  
    64   35   60 1  
    65   35   61 1  
    66   35   62 1  
    67   37   63 1  
    68   38   64 1  
    69   39   65 1  
@<TRIPOS>SUBSTRUCTURE
     1 03X         1

