### 
### Created by X-TOOL on Mon Sep 10 21:13:11 2018
### 

@<TRIPOS>MOLECULE
3u6w_ligand
   15    14     1     0     0
SMALL
GAST_HUCK


@<TRIPOS>ATOM
      1 O1        -24.2270  -24.9420  -31.5270 O.co2     1 KIV        -0.5464
      2 C1        -25.2910  -25.4390  -31.0690 C.2       1 KIV         0.1251
      3 O2        -25.8080  -26.4620  -31.5800 O.co2     1 KIV        -0.5464
      4 C2        -25.9470  -24.8230  -29.8980 C.2       1 KIV         0.1739
      5 C3        -25.3450  -23.5460  -29.3350 C.3       1 KIV         0.0366
      6 C4        -26.3740  -22.6450  -28.6580 C.3       1 KIV        -0.0462
      7 C5        -24.1990  -23.8750  -28.3950 C.3       1 KIV        -0.0462
      8 O3        -26.9340  -25.3750  -29.3850 O.2       1 KIV        -0.3574
      9 H         -24.9596  -22.9763  -30.1806 H         1 KIV         0.0528
     10 H         -26.7775  -23.1514  -27.7812 H         1 KIV         0.0257
     11 H         -25.8955  -21.7142  -28.3534 H         1 KIV         0.0257
     12 H         -27.1813  -22.4281  -29.3575 H         1 KIV         0.0257
     13 H         -23.7058  -22.9525  -28.0886 H         1 KIV         0.0257
     14 H         -24.5878  -24.3898  -27.5164 H         1 KIV         0.0257
     15 H         -23.4836  -24.5181  -28.9075 H         1 KIV         0.0257
@<TRIPOS>BOND
     1    1    2 ar 
     2    2    3 ar 
     3    2    4 1  
     4    4    5 1  
     5    4    8 2  
     6    5    6 1  
     7    5    7 1  
     8    5    9 1  
     9    6   10 1  
    10    6   11 1  
    11    6   12 1  
    12    7   13 1  
    13    7   14 1  
    14    7   15 1  
@<TRIPOS>SUBSTRUCTURE
     1 KIV         1

