### 
### Created by X-TOOL on Fri Sep 26 17:34:57 2014
### 

@<TRIPOS>MOLECULE
3u7k_ligand
   65    66     1     0     0
SMALL
GAST_HUCK


@<TRIPOS>ATOM
      1 C         -16.7390   84.8790   68.7910 C.2       1 MDB         0.2065
      2 N         -15.8440   86.3270   70.3670 N.am      1 MDB        -0.2466
      3 O         -15.9900   85.4150   67.9820 O.2       1 MDB        -0.3942
      4 CA        -17.0930   85.6700   70.0330 C.3       1 MDB         0.1368
      5 CB        -18.2490   86.6640   69.8370 C.3       1 MDB         0.0024
      6 CAA       -18.5860   87.3400   71.1680 C.3       1 MDB        -0.0558
      7 CAC       -17.9000   87.7850   68.8540 C.3       1 MDB        -0.0558
      8 CAD       -19.5090   85.9450   69.3590 C.3       1 MDB        -0.0558
      9 CAG       -15.1350   86.0770   71.4660 C.2       1 MDB         0.2867
     10 OAH       -15.5220   85.2850   72.3130 O.2       1 MDB        -0.3915
     11 NAI       -13.9970   86.7650   71.5590 N.am      1 MDB        -0.2221
     12 CAJ       -13.0740   86.7280   72.5670 C.ar      1 MDB         0.0966
     13 CAK       -13.2220   85.9280   73.7000 C.ar      1 MDB        -0.0496
     14 CAL       -12.2490   85.9330   74.7050 C.ar      1 MDB        -0.0870
     15 CAM       -11.1210   86.7440   74.5840 C.ar      1 MDB        -0.0863
     16 CAN       -10.9670   87.5440   73.4490 C.ar      1 MDB        -0.0463
     17 CAP       -11.9460   87.5330   72.4470 C.ar      1 MDB         0.1118
     18 OAP       -11.7950   88.3150   71.3330 O.3       1 MDB        -0.3276
     19 CAQ       -10.5800   88.2480   70.5830 C.3       1 MDB         0.0562
     20 NAS       -17.1970   83.6290   68.5680 N.am      1 MDB        -0.2523
     21 CAT       -16.7910   82.9620   67.3330 C.3       1 MDB         0.1244
     22 CAU       -17.9580   82.5640   66.4440 C.2       1 MDB         0.2215
     23 OAV       -18.9580   83.2610   66.3100 O.2       1 MDB        -0.3947
     24 NAW       -17.7880   81.4060   65.8170 N.am      1 MDB        -0.1626
     25 OAX       -18.7330   80.8890   64.9380 O.3       1 MDB        -0.2717
     26 CAY       -18.0860   82.8350   69.4290 C.3       1 MDB         0.0393
     27 CAZ       -17.2520   82.0260   70.4220 C.3       1 MDB        -0.0204
     28 CBA       -18.1510   81.4890   71.5380 C.3       1 MDB        -0.0484
     29 CBB       -17.5490   80.1600   71.9850 C.3       1 MDB        -0.0527
     30 CBC       -16.5180   79.7560   70.9430 C.3       1 MDB        -0.0527
     31 CBD       -16.6150   80.7840   69.8120 C.3       1 MDB        -0.0484
     32 H1        -15.4921   87.0129   69.7300 H         1 MDB         0.1883
     33 H2        -17.3795   84.9794   70.8398 H         1 MDB         0.0803
     34 H3        -19.4135   88.0494   71.0198 H         1 MDB         0.0237
     35 H4        -17.7024   87.8799   71.5392 H         1 MDB         0.0237
     36 H5        -18.8844   86.5767   71.9017 H         1 MDB         0.0237
     37 H6        -17.6485   87.3496   67.8757 H         1 MDB         0.0237
     38 H7        -17.0381   88.3520   69.2354 H         1 MDB         0.0237
     39 H8        -18.7627   88.4586   68.7446 H         1 MDB         0.0237
     40 H9        -19.7612   85.1393   70.0641 H         1 MDB         0.0237
     41 H10       -19.3308   85.5168   68.3615 H         1 MDB         0.0237
     42 H11       -20.3424   86.6610   69.3072 H         1 MDB         0.0237
     43 H12       -13.7938   87.3830   70.7995 H         1 MDB         0.2221
     44 H13       -14.0978   85.2975   73.8025 H         1 MDB         0.0465
     45 H14       -12.3721   85.3050   75.5799 H         1 MDB         0.0484
     46 H15       -10.3692   86.7536   75.3649 H         1 MDB         0.0459
     47 H16       -10.0904   88.1729   73.3437 H         1 MDB         0.0494
     48 H17       -10.6374   88.9395   69.7294 H         1 MDB         0.0572
     49 H18       -10.4326   87.2221   70.2145 H         1 MDB         0.0572
     50 H19        -9.7349   88.5309   71.2278 H         1 MDB         0.0572
     51 H20       -16.2294   82.0537   67.5968 H         1 MDB         0.0765
     52 H21       -16.1398   83.6444   66.7671 H         1 MDB         0.0765
     53 H22       -16.9497   80.8868   65.9831 H         1 MDB         0.2217
     54 H23       -18.4251   80.0575   64.5969 H         1 MDB         0.2490
     55 H24       -18.6811   82.1497   68.8075 H         1 MDB         0.0527
     56 H25       -18.7590   83.5084   69.9799 H         1 MDB         0.0527
     57 H26       -16.4696   82.6776   70.8382 H         1 MDB         0.0320
     58 H27       -19.1726   81.3345   71.1605 H         1 MDB         0.0269
     59 H28       -18.1742   82.1968   72.3797 H         1 MDB         0.0269
     60 H29       -18.3358   79.3942   72.0523 H         1 MDB         0.0265
     61 H30       -17.0661   80.2768   72.9664 H         1 MDB         0.0265
     62 H31       -16.7392   78.7486   70.5605 H         1 MDB         0.0265
     63 H32       -15.5094   79.7684   71.3819 H         1 MDB         0.0265
     64 H33       -15.6131   81.0203   69.4242 H         1 MDB         0.0269
     65 H34       -17.2418   80.3953   68.9959 H         1 MDB         0.0269
@<TRIPOS>BOND
     1    1    3 2  
     2    1    4 1  
     3    1   20 am 
     4    4    2 1  
     5    2    9 am 
     6    4    5 1  
     7    5    6 1  
     8    5    7 1  
     9    5    8 1  
    10    9   10 2  
    11    9   11 am 
    12   11   12 1  
    13   12   13 ar 
    14   12   17 ar 
    15   13   14 ar 
    16   14   15 ar 
    17   15   16 ar 
    18   16   17 ar 
    19   17   18 1  
    20   18   19 1  
    21   20   21 1  
    22   20   26 1  
    23   21   22 1  
    24   22   23 2  
    25   22   24 am 
    26   24   25 1  
    27   26   27 1  
    28   27   28 1  
    29   27   31 1  
    30   28   29 1  
    31   29   30 1  
    32   30   31 1  
    33    2   32 1  
    34    4   33 1  
    35    6   34 1  
    36    6   35 1  
    37    6   36 1  
    38    7   37 1  
    39    7   38 1  
    40    7   39 1  
    41    8   40 1  
    42    8   41 1  
    43    8   42 1  
    44   11   43 1  
    45   13   44 1  
    46   14   45 1  
    47   15   46 1  
    48   16   47 1  
    49   19   48 1  
    50   19   49 1  
    51   19   50 1  
    52   21   51 1  
    53   21   52 1  
    54   24   53 1  
    55   25   54 1  
    56   26   55 1  
    57   26   56 1  
    58   27   57 1  
    59   28   58 1  
    60   28   59 1  
    61   29   60 1  
    62   29   61 1  
    63   30   62 1  
    64   30   63 1  
    65   31   64 1  
    66   31   65 1  
@<TRIPOS>SUBSTRUCTURE
     1 MDB         1

