### 
### Created by X-TOOL on Fri Sep 26 17:34:56 2014
### 

@<TRIPOS>MOLECULE
3u7l_ligand
   61    62     1     0     0
SMALL
GAST_HUCK


@<TRIPOS>ATOM
      1 C         -16.8740  144.9230   44.9580 C.2       1 UDB         0.2065
      2 N         -16.0370  146.3170   46.6820 N.am      1 UDB        -0.2461
      3 O         -16.1710  145.5090   44.1420 O.2       1 UDB        -0.3942
      4 F1        -10.0940  148.6320   48.9380 F         1 UDB        -0.1886
      5 F2        -12.7090  146.9320   52.5120 F         1 UDB        -0.1886
      6 CA        -17.2370  145.6380   46.2460 C.3       1 UDB         0.1369
      7 CB        -18.3630  146.6740   46.0830 C.3       1 UDB         0.0024
      8 CAA       -18.0210  147.6830   44.9910 C.3       1 UDB        -0.0558
      9 CAC       -18.5920  147.4650   47.3790 C.3       1 UDB        -0.0558
     10 CAD       -19.6630  145.9920   45.6880 C.3       1 UDB        -0.0558
     11 CAG       -15.4730  146.1870   47.8710 C.2       1 UDB         0.2894
     12 OAH       -15.9510  145.4760   48.7450 O.2       1 UDB        -0.3903
     13 NAI       -14.3870  146.9440   47.9520 N.am      1 UDB        -0.2212
     14 CAJ       -13.4380  147.1800   48.9520 C.ar      1 UDB         0.0626
     15 CAK       -12.2530  147.7720   48.5040 C.ar      1 UDB        -0.0127
     16 CAL       -11.2310  148.0700   49.3920 C.ar      1 UDB         0.1174
     17 CAM       -11.3950  147.7910   50.7490 C.ar      1 UDB        -0.0105
     18 CAN       -12.5790  147.2020   51.2000 C.ar      1 UDB         0.1174
     19 CAP       -13.6180  146.8950   50.3060 C.ar      1 UDB        -0.0127
     20 NAS       -17.2940  143.6740   44.7090 N.am      1 UDB        -0.2523
     21 CAT       -16.9020  143.0530   43.4470 C.3       1 UDB         0.1244
     22 CAU       -18.0650  142.6620   42.5580 C.2       1 UDB         0.2215
     23 OAV       -19.0850  143.3490   42.4650 O.2       1 UDB        -0.3947
     24 NAW       -17.8610  141.5300   41.8770 N.am      1 UDB        -0.1626
     25 OAX       -18.8110  141.0260   40.9920 O.3       1 UDB        -0.2717
     26 CAY       -18.1250  142.8400   45.5890 C.3       1 UDB         0.0393
     27 CAZ       -17.2410  142.1170   46.6130 C.3       1 UDB        -0.0204
     28 CBA       -16.5180  140.9070   46.0340 C.3       1 UDB        -0.0484
     29 CBB       -16.3880  139.8960   47.1750 C.3       1 UDB        -0.0527
     30 CBC       -17.3700  140.3160   48.2650 C.3       1 UDB        -0.0527
     31 CBD       -18.0800  141.5750   47.7750 C.3       1 UDB        -0.0484
     32 H1        -15.5975  146.9357   46.0308 H         1 UDB         0.1884
     33 H2        -17.5472  144.8959   46.9964 H         1 UDB         0.0803
     34 H3        -18.8402  148.4108   44.8947 H         1 UDB         0.0237
     35 H4        -17.8842  147.1564   44.0350 H         1 UDB         0.0237
     36 H5        -17.0922  148.2093   45.2559 H         1 UDB         0.0237
     37 H6        -18.8421  146.7695   48.1937 H         1 UDB         0.0237
     38 H7        -19.4208  148.1736   47.2345 H         1 UDB         0.0237
     39 H8        -17.6772  148.0185   47.6373 H         1 UDB         0.0237
     40 H9        -19.5106  145.4218   44.7598 H         1 UDB         0.0237
     41 H10       -20.4418  146.7521   45.5276 H         1 UDB         0.0237
     42 H11       -19.9772  145.3087   46.4907 H         1 UDB         0.0237
     43 H12       -14.2072  147.4592   47.1140 H         1 UDB         0.2253
     44 H13       -12.1323  148.0003   47.4512 H         1 UDB         0.0452
     45 H14       -10.6055  148.0307   51.4521 H         1 UDB         0.0462
     46 H15       -14.5392  146.4466   50.6601 H         1 UDB         0.0452
     47 H16       -16.3220  142.1464   43.6744 H         1 UDB         0.0765
     48 H17       -16.2698  143.7638   42.8947 H         1 UDB         0.0765
     49 H18       -17.0036  141.0319   42.0064 H         1 UDB         0.2217
     50 H19       -18.4873  140.2201   40.6069 H         1 UDB         0.2490
     51 H20       -18.6644  142.0965   44.9838 H         1 UDB         0.0527
     52 H21       -18.8490  143.4772   46.1180 H         1 UDB         0.0527
     53 H22       -16.4994  142.8346   46.9939 H         1 UDB         0.0320
     54 H23       -15.5223  141.1978   45.6679 H         1 UDB         0.0269
     55 H24       -17.1009  140.4749   45.2073 H         1 UDB         0.0269
     56 H25       -15.3613  139.9033   47.5697 H         1 UDB         0.0265
     57 H26       -16.6349  138.8867   46.8140 H         1 UDB         0.0265
     58 H27       -16.8282  140.5285   49.1984 H         1 UDB         0.0265
     59 H28       -18.1029  139.5147   48.4407 H         1 UDB         0.0265
     60 H29       -19.0953  141.3298   47.4299 H         1 UDB         0.0269
     61 H30       -18.1371  142.3190   48.5832 H         1 UDB         0.0269
@<TRIPOS>BOND
     1    1    3 2  
     2    6    1 1  
     3    1   20 am 
     4    2    6 1  
     5   11    2 am 
     6   16    4 1  
     7   18    5 1  
     8    6    7 1  
     9    7    8 1  
    10    7    9 1  
    11    7   10 1  
    12   11   12 2  
    13   13   11 am 
    14   14   13 1  
    15   15   14 ar 
    16   14   19 ar 
    17   16   15 ar 
    18   17   16 ar 
    19   17   18 ar 
    20   18   19 ar 
    21   20   21 1  
    22   20   26 1  
    23   21   22 1  
    24   22   23 2  
    25   22   24 am 
    26   24   25 1  
    27   26   27 1  
    28   27   28 1  
    29   27   31 1  
    30   28   29 1  
    31   29   30 1  
    32   30   31 1  
    33    2   32 1  
    34    6   33 1  
    35    8   34 1  
    36    8   35 1  
    37    8   36 1  
    38    9   37 1  
    39    9   38 1  
    40    9   39 1  
    41   10   40 1  
    42   10   41 1  
    43   10   42 1  
    44   13   43 1  
    45   15   44 1  
    46   17   45 1  
    47   19   46 1  
    48   21   47 1  
    49   21   48 1  
    50   24   49 1  
    51   25   50 1  
    52   26   51 1  
    53   26   52 1  
    54   27   53 1  
    55   28   54 1  
    56   28   55 1  
    57   29   56 1  
    58   29   57 1  
    59   30   58 1  
    60   30   59 1  
    61   31   60 1  
    62   31   61 1  
@<TRIPOS>SUBSTRUCTURE
     1 UDB         1

