### 
### Created by X-TOOL on Fri Sep 26 17:34:55 2014
### 

@<TRIPOS>MOLECULE
3u7m_ligand
   55    55     1     0     0
SMALL
GAST_HUCK


@<TRIPOS>ATOM
      1 C1        -16.7880  143.7470   44.5390 C.2       1 FHF         0.1354
      2 N1        -16.3930  145.5190   46.1810 N.am      1 FHF        -0.2476
      3 O1        -15.6150  143.7770   44.2550 O.2       1 FHF        -0.3888
      4 C2        -17.3710  144.5530   45.7390 C.3       1 FHF         0.1184
      5 C3        -18.4550  145.5840   45.4590 C.3       1 FHF        -0.0075
      6 C4        -16.6550  139.3050   47.0340 C.3       1 FHF        -0.0653
      7 O2        -18.9480  140.3870   40.4700 O.2       1 FHF        -0.3830
      8 O3        -15.1180  144.1990   47.3020 O.2       1 FHF        -0.3907
      9 O4        -19.6220  142.6070   41.4440 O.3       1 FHF        -0.2684
     10 F1        -12.8300  147.5500   46.4800 F         1 FHF        -0.1939
     11 C5        -18.1520  141.1280   40.9920 C.2       1 FHF         0.1951
     12 C6        -10.8960  146.2160   48.6530 C.ar      1 FHF        -0.0792
     13 C7        -11.8530  145.4370   49.2770 C.ar      1 FHF        -0.0797
     14 C8        -11.2400  147.0270   47.6020 C.ar      1 FHF        -0.0418
     15 C9        -13.1690  145.4390   48.8520 C.ar      1 FHF        -0.0430
     16 C10       -17.0280  139.5260   45.6110 C.3       1 FHF        -0.0558
     17 C11       -17.2440  140.9980   45.4330 C.3       1 FHF        -0.0509
     18 C12       -17.1290  141.3830   43.9690 C.3       1 FHF        -0.0322
     19 C13       -17.6150  143.1370   42.2870 C.3       1 FHF         0.0816
     20 N2        -14.6610  146.3900   47.2390 N.am      1 FHF        -0.2188
     21 C14       -15.3660  145.3120   46.9310 C.2       1 FHF         0.2886
     22 C15       -12.5520  147.0300   47.2000 C.ar      1 FHF         0.1511
     23 C16       -13.5020  146.2730   47.8190 C.ar      1 FHF         0.1004
     24 C17       -17.6680  142.8000   43.7670 C.3       1 FHF         0.0580
     25 N3        -18.5300  142.2840   41.5500 N.am      1 FHF        -0.1497
     26 C18       -19.6320  145.3310   46.3820 C.3       1 FHF        -0.0584
     27 C19       -18.8090  145.7260   43.9940 C.3       1 FHF        -0.0584
     28 H1        -16.5287  146.4591   45.8683 H         1 FHF         0.1885
     29 H2        -17.6788  143.8477   46.5250 H         1 FHF         0.0791
     30 H3        -18.0391  146.5593   45.7520 H         1 FHF         0.0343
     31 H4        -16.4871  138.2317   47.2066 H         1 FHF         0.0230
     32 H5        -17.4680  139.6582   47.6853 H         1 FHF         0.0230
     33 H6        -15.7341  139.8615   47.2624 H         1 FHF         0.0230
     34 H7        -20.1849  141.9503   41.8371 H         1 FHF         0.2496
     35 H8        -17.0994  140.8492   41.0096 H         1 FHF         0.1560
     36 H9         -9.8683  146.1855   48.9965 H         1 FHF         0.0476
     37 H10       -11.5661  144.8127   50.1155 H         1 FHF         0.0543
     38 H11       -10.5005  147.6448   47.1056 H         1 FHF         0.0561
     39 H12       -13.9108  144.8024   49.3205 H         1 FHF         0.0488
     40 H13       -17.9520  138.9782   45.3741 H         1 FHF         0.0263
     41 H14       -16.2181  139.1815   44.9512 H         1 FHF         0.0263
     42 H15       -16.4863  141.5469   46.0115 H         1 FHF         0.0267
     43 H16       -18.2472  141.2628   45.7984 H         1 FHF         0.0267
     44 H17       -17.7130  140.6788   43.3583 H         1 FHF         0.0293
     45 H18       -16.0732  141.3459   43.6626 H         1 FHF         0.0293
     46 H19       -16.5918  142.9812   41.9144 H         1 FHF         0.0582
     47 H20       -17.9016  144.1891   42.1425 H         1 FHF         0.0582
     48 H21       -15.0210  147.2981   47.0249 H         1 FHF         0.2244
     49 H22       -18.7044  142.8684   44.1293 H         1 FHF         0.0552
     50 H23       -20.4192  146.0734   46.1843 H         1 FHF         0.0235
     51 H24       -19.3025  145.4157   47.4281 H         1 FHF         0.0235
     52 H25       -20.0278  144.3204   46.2029 H         1 FHF         0.0235
     53 H26       -17.8935  145.9059   43.4114 H         1 FHF         0.0235
     54 H27       -19.4987  146.5729   43.8638 H         1 FHF         0.0235
     55 H28       -19.2919  144.8024   43.6422 H         1 FHF         0.0235
@<TRIPOS>BOND
     1    1    3 2  
     2    4    1 1  
     3    1   24 1  
     4    2    4 1  
     5   21    2 am 
     6    4    5 1  
     7    5   26 1  
     8    5   27 1  
     9   16    6 1  
    10   11    7 2  
    11   21    8 2  
    12   25    9 1  
    13   22   10 1  
    14   25   11 am 
    15   13   12 ar 
    16   12   14 ar 
    17   15   13 ar 
    18   14   22 ar 
    19   23   15 ar 
    20   17   16 1  
    21   18   17 1  
    22   24   18 1  
    23   24   19 1  
    24   19   25 1  
    25   20   21 am 
    26   20   23 1  
    27   22   23 ar 
    28    2   28 1  
    29    4   29 1  
    30    5   30 1  
    31    6   31 1  
    32    6   32 1  
    33    6   33 1  
    34    9   34 1  
    35   11   35 1  
    36   12   36 1  
    37   13   37 1  
    38   14   38 1  
    39   15   39 1  
    40   16   40 1  
    41   16   41 1  
    42   17   42 1  
    43   17   43 1  
    44   18   44 1  
    45   18   45 1  
    46   19   46 1  
    47   19   47 1  
    48   20   48 1  
    49   24   49 1  
    50   26   50 1  
    51   26   51 1  
    52   26   52 1  
    53   27   53 1  
    54   27   54 1  
    55   27   55 1  
@<TRIPOS>SUBSTRUCTURE
     1 FHF         1

