### 
### Created by X-TOOL on Fri Sep 26 17:34:55 2014
### 

@<TRIPOS>MOLECULE
3u7n_ligand
   57    57     1     0     0
SMALL
GAST_HUCK


@<TRIPOS>ATOM
      1 C         -16.9580  144.7670   44.8290 C.2       1 UHF         0.1354
      2 N         -16.7670  146.6210   46.4120 N.am      1 UHF        -0.2470
      3 O         -15.8150  144.9660   44.4470 O.2       1 UHF        -0.3888
      4 CA        -17.5340  145.4220   46.0940 C.3       1 UHF         0.1185
      5 CB        -18.9640  145.8550   45.8320 C.3       1 UHF        -0.0075
      6 CAA       -16.8230  140.2560   47.1780 C.3       1 UHF        -0.0653
      7 CAB        -9.9100  147.7240   49.2510 C.3       1 UHF        -0.0322
      8 OAE       -18.5890  141.3520   40.6660 O.2       1 UHF        -0.3830
      9 OAF       -15.0590  145.5100   47.2730 O.2       1 UHF        -0.3893
     10 OAH       -19.9250  143.6130   41.6290 O.3       1 UHF        -0.2684
     11 CAI       -18.0630  142.2380   41.3220 C.2       1 UHF         0.1951
     12 CAJ       -12.1690  146.8860   49.3110 C.ar      1 UHF        -0.0541
     13 CAK       -13.4530  146.8840   48.7930 C.ar      1 UHF        -0.0192
     14 CAL       -11.5300  148.5080   47.6820 C.ar      1 UHF        -0.0062
     15 CAM       -17.1300  140.5570   45.7300 C.3       1 UHF        -0.0558
     16 CAN       -17.0460  142.0550   45.5380 C.3       1 UHF        -0.0509
     17 CAO       -17.4700  142.4080   44.1170 C.3       1 UHF        -0.0322
     18 CAP       -17.9000  144.3320   42.5900 C.3       1 UHF         0.0816
     19 NAQ       -12.8250  148.4830   47.1840 N.ar      1 UHF        -0.2931
     20 NAR       -14.9550  147.7290   47.1960 N.am      1 UHF        -0.2070
     21 CAT       -15.5680  146.5740   46.9730 C.2       1 UHF         0.2921
     22 CAV       -11.2010  147.7040   48.7520 C.ar      1 UHF        -0.0344
     23 CAW       -13.7550  147.7010   47.7230 C.ar      1 UHF         0.1323
     24 CAY       -17.9030  143.8780   44.0420 C.3       1 UHF         0.0580
     25 NBA       -18.6380  143.3550   41.8130 N.am      1 UHF        -0.1497
     26 CG1       -18.9330  147.1560   45.0410 C.3       1 UHF        -0.0584
     27 CG2       -19.6490  146.1090   47.1630 C.3       1 UHF        -0.0584
     28 H1        -17.1621  147.5144   46.1979 H         1 UHF         0.1886
     29 H2        -17.4978  144.7117   46.9332 H         1 UHF         0.0792
     30 H3        -19.5019  145.0779   45.2691 H         1 UHF         0.0343
     31 H4        -16.8772  139.1703   47.3463 H         1 UHF         0.0230
     32 H5        -17.5564  140.7638   47.8216 H         1 UHF         0.0230
     33 H6        -15.8118  140.6146   47.4207 H         1 UHF         0.0230
     34 H7         -9.8330  147.0249   50.0968 H         1 UHF         0.0377
     35 H8         -9.6644  148.7405   49.5920 H         1 UHF         0.0377
     36 H9         -9.2067  147.4224   48.4608 H         1 UHF         0.0377
     37 H10       -20.1440  144.4386   42.0450 H         1 UHF         0.2496
     38 H11       -17.0028  142.1109   41.5361 H         1 UHF         0.1560
     39 H12       -11.9218  146.2487   50.1523 H         1 UHF         0.0637
     40 H13       -14.2151  146.2454   49.2248 H         1 UHF         0.0582
     41 H14       -10.7839  149.1540   47.2335 H         1 UHF         0.0710
     42 H15       -18.1420  140.2047   45.4815 H         1 UHF         0.0263
     43 H16       -16.3974  140.0555   45.0806 H         1 UHF         0.0263
     44 H17       -16.0115  142.3891   45.7059 H         1 UHF         0.0267
     45 H18       -17.7138  142.5549   46.2550 H         1 UHF         0.0267
     46 H19       -18.3119  141.7658   43.8191 H         1 UHF         0.0293
     47 H20       -16.6236  142.2434   43.4340 H         1 UHF         0.0293
     48 H21       -16.8656  144.3975   42.2216 H         1 UHF         0.0582
     49 H22       -18.3823  145.3170   42.5059 H         1 UHF         0.0582
     50 H23       -15.3961  148.5971   46.9684 H         1 UHF         0.2287
     51 H24       -18.9179  143.9743   44.4551 H         1 UHF         0.0552
     52 H25       -19.9624  147.4877   44.8403 H         1 UHF         0.0235
     53 H26       -18.4078  146.9935   44.0882 H         1 UHF         0.0235
     54 H27       -18.4065  147.9266   45.6231 H         1 UHF         0.0235
     55 H28       -19.6778  145.1757   47.7445 H         1 UHF         0.0235
     56 H29       -20.6755  146.4622   46.9856 H         1 UHF         0.0235
     57 H30       -19.0900  146.8729   47.7232 H         1 UHF         0.0235
@<TRIPOS>BOND
     1    1    3 2  
     2    4    1 1  
     3    1   24 1  
     4    2    4 1  
     5   21    2 am 
     6    4    5 1  
     7    5   26 1  
     8    5   27 1  
     9   15    6 1  
    10   22    7 1  
    11   11    8 2  
    12   21    9 2  
    13   25   10 1  
    14   25   11 am 
    15   13   12 ar 
    16   12   22 ar 
    17   23   13 ar 
    18   19   14 ar 
    19   14   22 ar 
    20   16   15 1  
    21   17   16 1  
    22   24   17 1  
    23   24   18 1  
    24   18   25 1  
    25   23   19 ar 
    26   20   21 am 
    27   20   23 1  
    28    2   28 1  
    29    4   29 1  
    30    5   30 1  
    31    6   31 1  
    32    6   32 1  
    33    6   33 1  
    34    7   34 1  
    35    7   35 1  
    36    7   36 1  
    37   10   37 1  
    38   11   38 1  
    39   12   39 1  
    40   13   40 1  
    41   14   41 1  
    42   15   42 1  
    43   15   43 1  
    44   16   44 1  
    45   16   45 1  
    46   17   46 1  
    47   17   47 1  
    48   18   48 1  
    49   18   49 1  
    50   20   50 1  
    51   24   51 1  
    52   26   52 1  
    53   26   53 1  
    54   26   54 1  
    55   27   55 1  
    56   27   56 1  
    57   27   57 1  
@<TRIPOS>SUBSTRUCTURE
     1 UHF         1

