### 
### Created by X-TOOL on Fri Sep 26 17:34:55 2014
### 

@<TRIPOS>MOLECULE
3u7s_ligand
   75    78     1     0     0
SMALL
GAST_HUCK


@<TRIPOS>ATOM
      1 N1        -10.7180   14.3630   34.9150 N.pl3     1 MOL        -0.3369
      2 C2        -10.3550   14.6440   33.6300 C.ar      1 MOL         0.0353
      3 C3         -9.9790   15.9350   33.2380 C.ar      1 MOL        -0.0429
      4 C4         -9.6060   16.1990   31.9090 C.ar      1 MOL        -0.0471
      5 C5         -9.6230   15.1720   30.9640 C.ar      1 MOL         0.0949
      6 C6         -9.9950   13.8900   31.3650 C.ar      1 MOL        -0.0471
      7 C7        -10.3540   13.6220   32.6890 C.ar      1 MOL        -0.0429
      8 S8         -9.2000   15.4110   29.4290 S.o2      1 MOL         0.0648
      9 O9         -8.0200   16.2280   29.3920 O.2       1 MOL        -0.1518
     10 O10        -8.9130   14.1150   28.8640 O.2       1 MOL        -0.1518
     11 N11       -10.3670   16.0310   28.4860 N.am      1 MOL        -0.2327
     12 C12       -11.6980   15.4430   28.7610 C.3       1 MOL         0.0319
     13 C13       -12.4570   15.2260   27.4400 C.3       1 MOL        -0.0296
     14 C14       -11.6880   14.3650   26.4470 C.3       1 MOL        -0.0612
     15 C15       -13.8260   14.6140   27.6630 C.3       1 MOL        -0.0612
     16 C16       -10.3660   17.5100   28.4270 C.3       1 MOL         0.0578
     17 C17       -10.2700   17.8980   26.9410 C.3       1 MOL         0.0967
     18 O18       -10.6210   19.2770   26.7080 O.3       1 MOL        -0.3877
     19 C19        -8.8690   17.5890   26.3880 C.3       1 MOL         0.0807
     20 N20        -8.9040   17.8390   24.9480 N.am      1 MOL        -0.2550
     21 C21        -8.8220   16.8810   24.0120 C.2       1 MOL         0.3203
     22 O22        -8.7270   15.6740   24.2470 O.2       1 MOL        -0.3775
     23 O23        -8.8630   17.3420   22.6330 O.3       1 MOL        -0.2578
     24 C24        -8.4530   16.4590   21.5880 C.3       1 MOL         0.1189
     25 C25        -9.3820   16.7760   20.4320 C.3       1 MOL         0.0815
     26 O26        -8.8230   17.9500   19.8440 O.3       1 MOL        -0.3480
     27 C27        -7.4030   17.9800   20.0370 C.3       1 MOL         0.1648
     28 O28        -6.9880   19.2060   20.6450 O.3       1 MOL        -0.3509
     29 C29        -6.1260   18.9590   21.7570 C.3       1 MOL         0.0512
     30 C30        -6.1090   17.4570   22.0200 C.3       1 MOL        -0.0191
     31 C31        -7.0990   16.8680   21.0290 C.3       1 MOL         0.0449
     32 C32        -7.8380   18.5500   26.9740 C.3       1 MOL         0.0064
     33 C33        -6.0290   19.1830   25.3610 C.ar      1 MOL        -0.0603
     34 C34        -4.7760   18.9690   24.7940 C.ar      1 MOL        -0.0686
     35 C35        -3.9880   17.9040   25.2170 C.ar      1 MOL        -0.0687
     36 C36        -4.4450   17.0390   26.2150 C.ar      1 MOL        -0.0686
     37 C37        -5.6980   17.2440   26.7900 C.ar      1 MOL        -0.0603
     38 C38        -6.4830   18.3120   26.3570 C.ar      1 MOL        -0.0408
     39 H1        -10.7236   15.1104   35.6237 H         1 MOL         0.1719
     40 H2        -10.9864   13.4035   35.1762 H         1 MOL         0.1719
     41 H3         -9.9757   16.7379   33.9663 H         1 MOL         0.0515
     42 H4         -9.3054   17.1991   31.6182 H         1 MOL         0.0602
     43 H5        -10.0061   13.0867   30.6373 H         1 MOL         0.0602
     44 H6        -10.6318   12.6159   32.9818 H         1 MOL         0.0515
     45 H7        -12.2727   16.1258   29.4040 H         1 MOL         0.0480
     46 H8        -11.5717   14.4772   29.2721 H         1 MOL         0.0480
     47 H9        -12.6002   16.2164   26.9833 H         1 MOL         0.0311
     48 H10       -12.2806   14.2475   25.5277 H         1 MOL         0.0233
     49 H11       -11.4978   13.3760   26.8895 H         1 MOL         0.0233
     50 H12       -10.7302   14.8494   26.2064 H         1 MOL         0.0233
     51 H13       -14.3902   15.2290   28.3795 H         1 MOL         0.0233
     52 H14       -13.7117   13.5960   28.0639 H         1 MOL         0.0233
     53 H15       -14.3694   14.5730   26.7075 H         1 MOL         0.0233
     54 H16        -9.5026   17.9100   28.9789 H         1 MOL         0.0504
     55 H17       -11.2951   17.9066   28.8622 H         1 MOL         0.0504
     56 H18       -10.9923   17.2770   26.3908 H         1 MOL         0.0634
     57 H19       -10.5472   19.4691   25.7805 H         1 MOL         0.2100
     58 H20        -8.5922   16.5466   26.6044 H         1 MOL         0.0604
     59 H21        -8.9950   18.7861   24.6404 H         1 MOL         0.1873
     60 H22        -8.4781   15.4057   21.9040 H         1 MOL         0.0675
     61 H23       -10.4027   16.9692   20.7937 H         1 MOL         0.0590
     62 H24        -9.4001   15.9481   19.7080 H         1 MOL         0.0590
     63 H25        -6.8773   17.8265   19.0830 H         1 MOL         0.0913
     64 H26        -6.5020   19.4885   22.6448 H         1 MOL         0.0561
     65 H27        -5.1090   19.3082   21.5250 H         1 MOL         0.0561
     66 H28        -6.4227   17.2425   23.0523 H         1 MOL         0.0293
     67 H29        -5.1026   17.0469   21.8498 H         1 MOL         0.0293
     68 H30        -6.6368   16.0025   20.5318 H         1 MOL         0.0380
     69 H31        -7.7734   18.3928   28.0608 H         1 MOL         0.0449
     70 H32        -8.1513   19.5847   26.7711 H         1 MOL         0.0449
     71 H33        -6.6448   20.0135   25.0351 H         1 MOL         0.0557
     72 H34        -4.4129   19.6351   24.0197 H         1 MOL         0.0599
     73 H35        -3.0135   17.7439   24.7700 H         1 MOL         0.0559
     74 H36        -3.8265   16.2107   26.5411 H         1 MOL         0.0599
     75 H37        -6.0589   16.5794   27.5666 H         1 MOL         0.0557
@<TRIPOS>BOND
     1    2    1 1  
     2    3    2 ar 
     3    7    2 ar 
     4    4    3 ar 
     5    5    4 ar 
     6    5    6 ar 
     7    8    5 1  
     8    6    7 ar 
     9    8    9 2  
    10    8   10 2  
    11   11    8 am 
    12   11   12 1  
    13   16   11 1  
    14   12   13 1  
    15   13   14 1  
    16   13   15 1  
    17   17   16 1  
    18   17   18 1  
    19   19   17 1  
    20   19   20 1  
    21   32   19 1  
    22   20   21 am 
    23   21   22 2  
    24   21   23 1  
    25   23   24 1  
    26   24   25 1  
    27   24   31 1  
    28   25   26 1  
    29   27   26 1  
    30   27   28 1  
    31   31   27 1  
    32   29   28 1  
    33   30   29 1  
    34   31   30 1  
    35   38   32 1  
    36   33   34 ar 
    37   33   38 ar 
    38   34   35 ar 
    39   35   36 ar 
    40   36   37 ar 
    41   37   38 ar 
    42    1   39 1  
    43    1   40 1  
    44    3   41 1  
    45    4   42 1  
    46    6   43 1  
    47    7   44 1  
    48   12   45 1  
    49   12   46 1  
    50   13   47 1  
    51   14   48 1  
    52   14   49 1  
    53   14   50 1  
    54   15   51 1  
    55   15   52 1  
    56   15   53 1  
    57   16   54 1  
    58   16   55 1  
    59   17   56 1  
    60   18   57 1  
    61   19   58 1  
    62   20   59 1  
    63   24   60 1  
    64   25   61 1  
    65   25   62 1  
    66   27   63 1  
    67   29   64 1  
    68   29   65 1  
    69   30   66 1  
    70   30   67 1  
    71   31   68 1  
    72   32   69 1  
    73   32   70 1  
    74   33   71 1  
    75   34   72 1  
    76   35   73 1  
    77   36   74 1  
    78   37   75 1  
@<TRIPOS>SUBSTRUCTURE
     1 MOL         1

