### 
### Created by X-TOOL on Mon Sep 10 21:13:08 2018
### 

@<TRIPOS>MOLECULE
3u81_ligand
   46    48     1     0     0
SMALL
GAST_HUCK


@<TRIPOS>ATOM
      1 N         -10.4680  -11.2790   15.7000 N.4       1 SAH         0.2327
      2 CA        -11.0360  -10.3730   14.6820 C.3       1 SAH         0.0291
      3 CB        -12.3690   -9.7400   15.1090 C.3       1 SAH         0.0114
      4 CG        -13.4020  -10.7470   15.5390 C.3       1 SAH         0.0005
      5 SD        -14.9850   -9.9040   15.7020 S.3       1 SAH        -0.1578
      6 C         -10.0190   -9.2890   14.3760 C.2       1 SAH         0.0844
      7 O          -9.1370   -9.0000   15.1970 O.co2     1 SAH        -0.5643
      8 OXT       -10.1590   -8.7140   13.2960 O.co2     1 SAH        -0.5643
      9 C5'       -15.9120  -11.1900   16.5110 C.3       1 SAH         0.0226
     10 C4'       -16.2530  -12.3740   15.5940 C.3       1 SAH         0.0995
     11 O4'       -16.6740  -13.4540   16.4250 O.3       1 SAH        -0.3383
     12 C3'       -17.3410  -12.1260   14.5500 C.3       1 SAH         0.1132
     13 O3'       -16.9300  -12.3690   13.2170 O.3       1 SAH        -0.3864
     14 C2'       -18.4430  -13.1170   15.0210 C.3       1 SAH         0.1385
     15 O2'       -19.2770  -13.6460   13.9760 O.3       1 SAH        -0.3836
     16 C1'       -17.6590  -14.1940   15.7210 C.3       1 SAH         0.2009
     17 N9        -18.4020  -14.9730   16.7120 N.pl3     1 SAH        -0.1919
     18 C8        -19.2800  -14.4600   17.6290 C.2       1 SAH         0.1123
     19 N7        -19.6960  -15.4220   18.4940 N.2       1 SAH        -0.2958
     20 C5        -19.0390  -16.5660   18.0760 C.ar      1 SAH         0.1045
     21 C6        -19.0320  -17.9020   18.5580 C.ar      1 SAH         0.1298
     22 N6        -19.7970  -18.2710   19.6210 N.pl3     1 SAH        -0.3152
     23 N1        -18.2590  -18.7820   17.9360 N.ar      1 SAH        -0.2698
     24 C2        -17.5390  -18.4040   16.8640 C.ar      1 SAH         0.0533
     25 N3        -17.4590  -17.1710   16.3320 N.ar      1 SAH        -0.2714
     26 C4        -18.2330  -16.2800   16.9540 C.ar      1 SAH         0.1613
     27 H1        -11.1342  -12.0049   15.9129 H         1 SAH         0.2010
     28 H2        -10.2614  -10.7566   16.5369 H         1 SAH         0.2010
     29 H3         -9.6207  -11.6941   15.3452 H         1 SAH         0.2010
     30 H4        -11.2174  -10.9565   13.7674 H         1 SAH         0.1024
     31 H5        -12.7716   -9.1697   14.2589 H         1 SAH         0.0347
     32 H6        -12.1767   -9.0578   15.9502 H         1 SAH         0.0347
     33 H7        -13.1135  -11.1855   16.5057 H         1 SAH         0.0379
     34 H8        -13.4813  -11.5433   14.7842 H         1 SAH         0.0379
     35 H9        -16.8520  -10.7581   16.8849 H         1 SAH         0.0402
     36 H10       -15.3188  -11.5659   17.3577 H         1 SAH         0.0402
     37 H11       -15.3355  -12.6601   15.0590 H         1 SAH         0.0632
     38 H12       -17.7003  -11.0883   14.6131 H         1 SAH         0.0647
     39 H13       -16.6603  -13.2758   13.1303 H         1 SAH         0.2100
     40 H14       -19.1009  -12.6085   15.7411 H         1 SAH         0.0676
     41 H15       -19.7240  -12.9319   13.5371 H         1 SAH         0.2101
     42 H16       -17.2111  -14.8765   14.9837 H         1 SAH         0.0996
     43 H17       -19.6019  -13.4201   17.6609 H         1 SAH         0.1349
     44 H18       -19.7781  -19.2449   19.9557 H         1 SAH         0.1820
     45 H19       -20.3950  -17.5764   20.0910 H         1 SAH         0.1820
     46 H20       -16.9594  -19.1786   16.3750 H         1 SAH         0.0996
@<TRIPOS>BOND
     1    1    2 1  
     2    2    3 1  
     3    2    6 1  
     4    3    4 1  
     5    4    5 1  
     6    5    9 1  
     7    6    7 ar 
     8    6    8 ar 
     9    9   10 1  
    10   10   11 1  
    11   10   12 1  
    12   11   16 1  
    13   12   13 1  
    14   12   14 1  
    15   14   15 1  
    16   14   16 1  
    17   16   17 1  
    18   17   18 1  
    19   17   26 1  
    20   18   19 2  
    21   19   20 1  
    22   20   21 ar 
    23   20   26 ar 
    24   21   22 1  
    25   21   23 ar 
    26   23   24 ar 
    27   24   25 ar 
    28   25   26 ar 
    29    1   27 1  
    30    1   28 1  
    31    1   29 1  
    32    2   30 1  
    33    3   31 1  
    34    3   32 1  
    35    4   33 1  
    36    4   34 1  
    37    9   35 1  
    38    9   36 1  
    39   10   37 1  
    40   12   38 1  
    41   13   39 1  
    42   14   40 1  
    43   15   41 1  
    44   16   42 1  
    45   18   43 1  
    46   22   44 1  
    47   22   45 1  
    48   24   46 1  
@<TRIPOS>SUBSTRUCTURE
     1 SAH         1

