### 
### Created by X-TOOL on Mon Sep 10 21:13:07 2018
### 

@<TRIPOS>MOLECULE
3u8j_ligand
   29    30     1     0     0
SMALL
GAST_HUCK


@<TRIPOS>ATOM
      1 C1          3.7060   18.3200   37.9020 C.3       1 09O         0.0681
      2 C2          4.5620   18.8070   36.7110 C.3       1 09O        -0.0133
      3 N1          5.5780   17.8000   36.3150 N.4       1 09O         0.2284
      4 C3          6.8930   17.9220   37.0030 C.3       1 09O        -0.0318
      5 C4          6.9100   17.5160   38.4990 C.3       1 09O         0.0073
      6 C5          5.7150   18.0200   39.3330 C.3       1 09O         0.0333
      7 N2          4.4430   17.4530   38.8370 N.pl3     1 09O        -0.2973
      8 C6          2.5700   13.9780   40.1520 C.ar      1 09O        -0.0027
      9 N3          1.8470   14.8870   39.4650 N.ar      1 09O        -0.3105
     10 C7          2.4990   16.0000   39.0510 C.ar      1 09O         0.0283
     11 C8          3.8830   16.2870   39.2750 C.ar      1 09O         0.0690
     12 C9          4.6090   15.3110   39.9950 C.ar      1 09O        -0.0244
     13 C10         3.9380   14.1500   40.4360 C.ar      1 09O        -0.0458
     14 H1          2.8478   17.7566   37.5071 H         1 09O         0.0569
     15 H2          3.3443   19.1999   38.4541 H         1 09O         0.0569
     16 H3          5.0751   19.7368   36.9977 H         1 09O         0.0833
     17 H4          3.9011   19.0023   35.8536 H         1 09O         0.0833
     18 H5          5.7354   17.8891   35.3234 H         1 09O         0.2014
     19 H6          5.2050   16.8852   36.5152 H         1 09O         0.2014
     20 H7          7.2142   18.9718   36.9342 H         1 09O         0.0814
     21 H8          7.6131   17.2827   36.4713 H         1 09O         0.0814
     22 H9          7.8308   17.9155   38.9490 H         1 09O         0.0336
     23 H10         6.9224   16.4174   38.5527 H         1 09O         0.0336
     24 H11         5.6688   19.1171   39.2680 H         1 09O         0.0518
     25 H12         5.8570   17.7204   40.3818 H         1 09O         0.0518
     26 H13         2.0767   13.0776   40.4998 H         1 09O         0.0710
     27 H14         1.9228   16.7366   38.5029 H         1 09O         0.0723
     28 H15         5.6631   15.4517   40.2049 H         1 09O         0.0635
     29 H16         4.4758   13.3913   40.9930 H         1 09O         0.0674
@<TRIPOS>BOND
     1    1    2 1  
     2    7    1 1  
     3    2    3 1  
     4    4    3 1  
     5    5    4 1  
     6    6    5 1  
     7    7    6 1  
     8   11    7 1  
     9    9    8 ar 
    10    8   13 ar 
    11   10    9 ar 
    12   10   11 ar 
    13   11   12 ar 
    14   12   13 ar 
    15    1   14 1  
    16    1   15 1  
    17    2   16 1  
    18    2   17 1  
    19    3   18 1  
    20    3   19 1  
    21    4   20 1  
    22    4   21 1  
    23    5   22 1  
    24    5   23 1  
    25    6   24 1  
    26    6   25 1  
    27    8   26 1  
    28   10   27 1  
    29   12   28 1  
    30   13   29 1  
@<TRIPOS>SUBSTRUCTURE
     1 09O         1

