### 
### Created by X-TOOL on Mon Sep 10 21:13:07 2018
### 

@<TRIPOS>MOLECULE
3u8m_ligand
   29    30     1     0     0
SMALL
GAST_HUCK


@<TRIPOS>ATOM
      1 C1        -33.1880   76.5370  -26.3820 C.ar      1 09R         0.0285
      2 C2        -32.9820   76.3340  -27.7670 C.ar      1 09R         0.0689
      3 C3        -34.1270   75.8480  -28.5000 C.ar      1 09R        -0.0241
      4 C4        -35.3370   75.5880  -27.8090 C.ar      1 09R        -0.0341
      5 C5        -35.4010   75.8380  -26.4110 C.ar      1 09R         0.0757
      6 N1        -34.3420   76.3050  -25.7300 N.ar      1 09R        -0.2988
      7 BR1       -36.7820   75.5320  -25.4170 Br        1 09R        -0.0314
      8 N2        -31.7320   76.6090  -28.2690 N.pl3     1 09R        -0.2974
      9 C6        -30.8270   77.5110  -27.5470 C.3       1 09R         0.0681
     10 C7        -29.9070   78.2590  -28.5200 C.3       1 09R        -0.0133
     11 N3        -30.6710   79.2140  -29.3310 N.4       1 09R         0.2284
     12 C8        -31.1700   78.7390  -30.6550 C.3       1 09R        -0.0318
     13 C9        -31.5940   77.2590  -30.8310 C.3       1 09R         0.0073
     14 C10       -31.3370   76.2710  -29.6560 C.3       1 09R         0.0333
     15 H1        -32.3514   76.9082  -25.8012 H         1 09R         0.0723
     16 H2        -34.0619   75.6834  -29.5695 H         1 09R         0.0635
     17 H3        -36.2012   75.2040  -28.3390 H         1 09R         0.0678
     18 H4        -30.2119   76.9222  -26.8507 H         1 09R         0.0569
     19 H5        -31.4232   78.2421  -26.9813 H         1 09R         0.0569
     20 H6        -29.4179   77.5318  -29.1848 H         1 09R         0.0833
     21 H7        -29.1425   78.8037  -27.9466 H         1 09R         0.0833
     22 H8        -30.0781   80.0117  -29.4989 H         1 09R         0.2014
     23 H9        -31.4721   79.4988  -28.7896 H         1 09R         0.2014
     24 H10       -30.3693   78.9301  -31.3847 H         1 09R         0.0814
     25 H11       -32.0475   79.3537  -30.9041 H         1 09R         0.0814
     26 H12       -31.0564   76.8686  -31.7077 H         1 09R         0.0336
     27 H13       -32.6756   77.2521  -31.0311 H         1 09R         0.0336
     28 H14       -31.8627   75.3392  -29.9116 H         1 09R         0.0518
     29 H15       -30.2528   76.0866  -29.6353 H         1 09R         0.0518
@<TRIPOS>BOND
     1    1    2 ar 
     2    1    6 ar 
     3    2    3 ar 
     4    2    8 1  
     5    3    4 ar 
     6    4    5 ar 
     7    5    6 ar 
     8    5    7 1  
     9    8    9 1  
    10    8   14 1  
    11    9   10 1  
    12   10   11 1  
    13   11   12 1  
    14   12   13 1  
    15   13   14 1  
    16    1   15 1  
    17    3   16 1  
    18    4   17 1  
    19    9   18 1  
    20    9   19 1  
    21   10   20 1  
    22   10   21 1  
    23   11   22 1  
    24   11   23 1  
    25   12   24 1  
    26   12   25 1  
    27   13   26 1  
    28   13   27 1  
    29   14   28 1  
    30   14   29 1  
@<TRIPOS>SUBSTRUCTURE
     1 09R         1

