### 
### Created by X-TOOL on Mon Sep 10 21:13:06 2018
### 

@<TRIPOS>MOLECULE
3u8n_ligand
   36    37     1     0     0
SMALL
GAST_HUCK


@<TRIPOS>ATOM
      1 C1         51.5350   22.1430  102.0840 C.3       1 09S         0.0679
      2 C2         50.5360   22.4300  100.9620 C.3       1 09S        -0.0134
      3 N1         51.2580   22.8170   99.7340 N.4       1 09S         0.2284
      4 C3         51.3980   24.2860   99.5650 C.3       1 09S        -0.0318
      5 C4         52.5000   24.8700  100.4620 C.3       1 09S         0.0073
      6 C5         52.2750   24.5890  101.9680 C.3       1 09S         0.0330
      7 N2         52.5730   23.1790  102.2700 N.pl3     1 09S        -0.2997
      8 C6         56.3570   21.8560  103.2900 C.ar      1 09S         0.1042
      9 N3         55.2800   21.0850  103.5740 N.ar      1 09S        -0.3091
     10 C7         54.0570   21.5250  103.2360 C.ar      1 09S         0.0171
     11 C8         53.8310   22.7710  102.5900 C.ar      1 09S         0.0591
     12 C9         54.9700   23.5640  102.3110 C.ar      1 09S         0.0032
     13 C10        56.2700   23.1220  102.6600 C.ar      1 09S         0.1190
     14 BR1        57.8940   21.2180  103.7610 Br        1 09S        -0.0385
     15 O1         57.4320   23.8380  102.3940 O.3       1 09S        -0.3134
     16 C11        57.2700   25.1350  101.8560 C.3       1 09S         0.0691
     17 C12        58.5660   25.7740  101.3590 C.3       1 09S        -0.0369
     18 H1         52.0382   21.1911  101.8590 H         1 09S         0.0569
     19 H2         50.9742   22.0477  103.0255 H         1 09S         0.0569
     20 H3         49.8700   23.2504  101.2675 H         1 09S         0.0833
     21 H4         49.9392   21.5272  100.7651 H         1 09S         0.0833
     22 H5         50.7557   22.4513   98.9403 H         1 09S         0.2014
     23 H6         52.1799   22.4104   99.7647 H         1 09S         0.2014
     24 H7         50.4415   24.7650   99.8213 H         1 09S         0.0814
     25 H8         51.6455   24.5000   98.5148 H         1 09S         0.0814
     26 H9         52.5329   25.9591  100.3109 H         1 09S         0.0336
     27 H10        53.4629   24.4292  100.1644 H         1 09S         0.0336
     28 H11        51.2270   24.8024  102.2253 H         1 09S         0.0518
     29 H12        52.9375   25.2360  102.5617 H         1 09S         0.0518
     30 H13        53.2016   20.9004  103.4667 H         1 09S         0.0633
     31 H14        54.8456   24.5239  101.8230 H         1 09S         0.0549
     32 H15        56.8442   25.7817  102.6373 H         1 09S         0.0614
     33 H16        56.5699   25.0724  101.0099 H         1 09S         0.0614
     34 H17        58.3509   26.7757  100.9587 H         1 09S         0.0256
     35 H18        59.0029   25.1485  100.5666 H         1 09S         0.0256
     36 H19        59.2772   25.8578  102.1939 H         1 09S         0.0256
@<TRIPOS>BOND
     1    1    2 1  
     2    7    1 1  
     3    2    3 1  
     4    4    3 1  
     5    5    4 1  
     6    6    5 1  
     7    7    6 1  
     8   11    7 1  
     9    9    8 ar 
    10    8   13 ar 
    11    8   14 1  
    12   10    9 ar 
    13   10   11 ar 
    14   11   12 ar 
    15   12   13 ar 
    16   13   15 1  
    17   15   16 1  
    18   16   17 1  
    19    1   18 1  
    20    1   19 1  
    21    2   20 1  
    22    2   21 1  
    23    3   22 1  
    24    3   23 1  
    25    4   24 1  
    26    4   25 1  
    27    5   26 1  
    28    5   27 1  
    29    6   28 1  
    30    6   29 1  
    31   10   30 1  
    32   12   31 1  
    33   16   32 1  
    34   16   33 1  
    35   17   34 1  
    36   17   35 1  
    37   17   36 1  
@<TRIPOS>SUBSTRUCTURE
     1 09S         1

