### 
### Created by X-TOOL on Mon Sep 10 21:13:11 2018
### 

@<TRIPOS>MOLECULE
3u8w_ligand
   54    58     1     0     0
SMALL
GAST_HUCK


@<TRIPOS>ATOM
      1 C23         7.7050  -25.2730  -25.8720 C.3       1 09J        -0.0279
      2 C24         6.5200  -25.8870  -25.1300 C.3       1 09J        -0.0279
      3 C22         6.3280  -25.3300  -26.5450 C.3       1 09J         0.0416
      4 N5          6.1540  -26.3110  -27.6450 N.am      1 09J        -0.2840
      5 C21         5.1370  -27.1850  -27.7210 C.2       1 09J         0.2008
      6 O2          4.2480  -27.2820  -26.8780 O.2       1 09J        -0.3875
      7 C11         5.1110  -28.1080  -28.9590 C.ar      1 09J         0.0450
      8 C10         3.9240  -28.7730  -29.2710 C.ar      1 09J        -0.0374
      9 C12         6.2260  -28.2920  -29.7800 C.ar      1 09J        -0.0471
     10 C13         6.1420  -29.1360  -30.8900 C.ar      1 09J        -0.0520
     11 C14         4.9500  -29.8000  -31.1960 C.ar      1 09J        -0.0292
     12 C20         4.9240  -30.7060  -32.4300 C.3       1 09J        -0.0264
     13 C9          3.8220  -29.6210  -30.3770 C.ar      1 09J         0.0041
     14 C4          2.5700  -30.2300  -30.5780 C.2       1 09J         0.0658
     15 C5          2.2640  -31.4420  -29.9660 C.2       1 09J         0.0159
     16 C3          1.5720  -29.6230  -31.3480 C.2       1 09J         0.2370
     17 O1          1.8110  -28.5430  -31.8930 O.2       1 09J        -0.3808
     18 N4          0.2910  -30.2580  -31.5150 N.am      1 09J        -0.1371
     19 C7         -0.7270  -29.5650  -32.3570 C.3       1 09J         0.0628
     20 C8         -0.5780  -29.9310  -33.8380 C.3       1 09J        -0.0418
     21 N3          0.0330  -31.3510  -30.9630 N.pl3     1 09J        -0.1020
     22 C1          0.9990  -32.0000  -30.1670 C.2       1 09J         0.1813
     23 N1          0.4540  -33.1340  -29.7200 N.2       1 09J        -0.2437
     24 N2         -0.7020  -33.2690  -30.1310 N.2       1 09J        -0.2431
     25 C2         -1.0690  -32.2430  -30.8930 C.2       1 09J         0.1880
     26 C6         -2.3270  -32.1000  -31.5010 C.ar      1 09J         0.0845
     27 C15        -3.3680  -31.4210  -30.8510 C.ar      1 09J         0.0557
     28 CL1        -3.1410  -30.7060  -29.2930 Cl        1 09J        -0.0671
     29 C16        -4.6190  -31.2880  -31.4600 C.ar      1 09J        -0.0478
     30 C17        -4.8510  -31.8420  -32.7150 C.ar      1 09J        -0.0602
     31 C18        -3.8240  -32.5250  -33.3630 C.ar      1 09J        -0.0235
     32 C19        -2.5760  -32.6570  -32.7550 C.ar      1 09J         0.1510
     33 F1         -1.5960  -33.3120  -33.3940 F         1 09J        -0.1780
     34 H1          8.5205  -25.9166  -26.2335 H         1 09J         0.0288
     35 H2          8.1175  -24.3071  -25.5452 H         1 09J         0.0288
     36 H3          6.0797  -25.3631  -24.2688 H         1 09J         0.0288
     37 H4          6.4827  -26.9727  -24.9571 H         1 09J         0.0288
     38 H5          5.7394  -24.4189  -26.7277 H         1 09J         0.0555
     39 H6          6.8369  -26.3220  -28.3755 H         1 09J         0.1846
     40 H7          3.0566  -28.6275  -28.6373 H         1 09J         0.0668
     41 H8          7.1552  -27.7806  -29.5561 H         1 09J         0.0662
     42 H9          7.0114  -29.2779  -31.5218 H         1 09J         0.0572
     43 H10         5.9114  -30.6939  -32.9146 H         1 09J         0.0413
     44 H11         4.1642  -30.3412  -33.1368 H         1 09J         0.0413
     45 H12         4.6778  -31.7338  -32.1252 H         1 09J         0.0413
     46 H13         2.9986  -31.9472  -29.3407 H         1 09J         0.0727
     47 H14        -0.6037  -28.4778  -32.2438 H         1 09J         0.0549
     48 H15        -1.7311  -29.8576  -32.0163 H         1 09J         0.0549
     49 H16        -1.3434  -29.4024  -34.4251 H         1 09J         0.0250
     50 H17        -0.7056  -31.0165  -33.9621 H         1 09J         0.0250
     51 H18         0.4219  -29.6367  -34.1897 H         1 09J         0.0250
     52 H19        -5.4120  -30.7509  -30.9523 H         1 09J         0.0598
     53 H20        -5.8229  -31.7430  -33.1848 H         1 09J         0.0631
     54 H21        -3.9957  -32.9552  -34.3431 H         1 09J         0.0613
@<TRIPOS>BOND
     1    1    2 1  
     2    1    3 1  
     3    2    3 1  
     4    3    4 1  
     5    4    5 am 
     6    5    6 2  
     7    5    7 1  
     8    7    8 ar 
     9    7    9 ar 
    10    8   13 ar 
    11    9   10 ar 
    12   10   11 ar 
    13   11   12 1  
    14   11   13 ar 
    15   13   14 1  
    16   14   15 2  
    17   14   16 1  
    18   15   22 1  
    19   16   17 2  
    20   16   18 am 
    21   18   19 1  
    22   18   21 1  
    23   19   20 1  
    24   21   22 1  
    25   21   25 1  
    26   22   23 2  
    27   23   24 1  
    28   24   25 2  
    29   25   26 1  
    30   26   27 ar 
    31   26   32 ar 
    32   27   28 1  
    33   27   29 ar 
    34   29   30 ar 
    35   30   31 ar 
    36   31   32 ar 
    37   32   33 1  
    38    1   34 1  
    39    1   35 1  
    40    2   36 1  
    41    2   37 1  
    42    3   38 1  
    43    4   39 1  
    44    8   40 1  
    45    9   41 1  
    46   10   42 1  
    47   12   43 1  
    48   12   44 1  
    49   12   45 1  
    50   15   46 1  
    51   19   47 1  
    52   19   48 1  
    53   20   49 1  
    54   20   50 1  
    55   20   51 1  
    56   29   52 1  
    57   30   53 1  
    58   31   54 1  
@<TRIPOS>SUBSTRUCTURE
     1 09J         1

