### 
### Created by X-TOOL on Mon Sep 10 21:13:09 2018
### 

@<TRIPOS>MOLECULE
3u90_ligand
   42    41     1     0     0
SMALL
GAST_HUCK


@<TRIPOS>ATOM
      1 S          34.4850    0.7670   29.4020 S.o2      1 SDS        -0.0737
      2 O1S        35.3350    0.2190   28.3760 O.co2     1 SDS        -0.4611
      3 O2S        34.7070    0.1030   30.6940 O.3       1 SDS        -0.2658
      4 O3S        34.7570    2.1760   29.5450 O.co2     1 SDS        -0.4611
      5 O4         33.0800    0.5270   29.0420 O.co2     1 SDS        -0.4611
      6 C1         35.8860    0.3440   31.3730 C.3       1 SDS         0.0737
      7 C2         28.9420   -0.2360   34.4220 C.3       1 SDS        -0.0653
      8 C3         30.3060    0.3250   34.6520 C.3       1 SDS        -0.0559
      9 C4         31.0460   -0.5080   35.6470 C.3       1 SDS        -0.0533
     10 C5         32.4650   -0.0470   35.7140 C.3       1 SDS        -0.0531
     11 C6         33.1120   -0.5480   36.9610 C.3       1 SDS        -0.0531
     12 C7         34.3080    0.2840   37.2880 C.3       1 SDS        -0.0531
     13 C8         35.5590   -0.4120   36.8630 C.3       1 SDS        -0.0531
     14 C9         36.2760    0.4100   35.8470 C.3       1 SDS        -0.0531
     15 C10        36.9770   -0.4810   34.8740 C.3       1 SDS        -0.0530
     16 C11        37.0310    0.1710   33.5310 C.3       1 SDS        -0.0509
     17 C12        35.7440   -0.0480   32.8070 C.3       1 SDS        -0.0273
     18 H1         36.1285    1.4152   31.3114 H         1 SDS         0.0583
     19 H2         36.6959   -0.2423   30.9145 H         1 SDS         0.0583
     20 H3         28.4086    0.3861   33.6882 H         1 SDS         0.0230
     21 H4         28.3842   -0.2442   35.3700 H         1 SDS         0.0230
     22 H5         29.0279   -1.2633   34.0382 H         1 SDS         0.0230
     23 H6         30.2165    1.3527   35.0337 H         1 SDS         0.0263
     24 H7         30.8602    0.3337   33.7019 H         1 SDS         0.0263
     25 H8         31.0161   -1.5633   35.3382 H         1 SDS         0.0265
     26 H9         30.5776   -0.4021   36.6366 H         1 SDS         0.0265
     27 H10        32.4903    1.0527   35.7084 H         1 SDS         0.0265
     28 H11        33.0132   -0.4309   34.8410 H         1 SDS         0.0265
     29 H12        33.4244   -1.5925   36.8146 H         1 SDS         0.0265
     30 H13        32.3927   -0.4934   37.7914 H         1 SDS         0.0265
     31 H14        34.3418    0.4592   38.3734 H         1 SDS         0.0265
     32 H15        34.2334    1.2478   36.7631 H         1 SDS         0.0265
     33 H16        35.3029   -1.3889   36.4271 H         1 SDS         0.0265
     34 H17        36.2095   -0.5598   37.7377 H         1 SDS         0.0265
     35 H18        37.0140    1.0511   36.3514 H         1 SDS         0.0265
     36 H19        35.5511    1.0386   35.3090 H         1 SDS         0.0265
     37 H20        36.4326   -1.4335   34.7948 H         1 SDS         0.0265
     38 H21        38.0010   -0.6721   35.2275 H         1 SDS         0.0265
     39 H22        37.8560   -0.2637   32.9476 H         1 SDS         0.0266
     40 H23        37.1996    1.2507   33.6564 H         1 SDS         0.0266
     41 H24        35.4695   -1.1115   32.8676 H         1 SDS         0.0288
     42 H25        34.9562    0.5613   33.2740 H         1 SDS         0.0288
@<TRIPOS>BOND
     1    1    2 ar 
     2    3    1 1  
     3    1    4 ar 
     4    1    5 ar 
     5    6    3 1  
     6   17    6 1  
     7    8    7 1  
     8    9    8 1  
     9   10    9 1  
    10   11   10 1  
    11   12   11 1  
    12   13   12 1  
    13   14   13 1  
    14   15   14 1  
    15   16   15 1  
    16   16   17 1  
    17    6   18 1  
    18    6   19 1  
    19    7   20 1  
    20    7   21 1  
    21    7   22 1  
    22    8   23 1  
    23    8   24 1  
    24    9   25 1  
    25    9   26 1  
    26   10   27 1  
    27   10   28 1  
    28   11   29 1  
    29   11   30 1  
    30   12   31 1  
    31   12   32 1  
    32   13   33 1  
    33   13   34 1  
    34   14   35 1  
    35   14   36 1  
    36   15   37 1  
    37   15   38 1  
    38   16   39 1  
    39   16   40 1  
    40   17   41 1  
    41   17   42 1  
@<TRIPOS>SUBSTRUCTURE
     1 SDS         1

