### 
### Created by X-TOOL on Mon Sep 10 21:13:10 2018
### 

@<TRIPOS>MOLECULE
3u92_ligand
   29    29     1     0     0
SMALL
GAST_HUCK


@<TRIPOS>ATOM
      1 N          44.2120   34.7670   16.9680 N.4       1 KAI         0.2433
      2 CD         45.5870   35.2750   17.0840 C.3       1 KAI        -0.0169
      3 CD1        47.3110   36.1150   20.4660 C.2       1 KAI        -0.1288
      4 CD2        48.2810   35.9450   18.1800 C.3       1 KAI        -0.0295
      5 CA         43.7470   34.5300   18.3200 C.3       1 KAI         0.0373
      6 CB         44.9360   34.6980   19.2120 C.3       1 KAI         0.0449
      7 CB1        45.7580   33.4380   19.3810 C.3       1 KAI         0.0124
      8 CG         45.6890   35.7510   18.4960 C.3       1 KAI         0.0446
      9 CG1        45.2000   32.3080   20.2680 C.2       1 KAI         0.0356
     10 CG2        47.1410   35.9750   19.0540 C.2       1 KAI        -0.0678
     11 C          42.6500   35.4850   18.6960 C.2       1 KAI         0.0851
     12 O          42.1320   36.1830   17.7910 O.co2     1 KAI        -0.5642
     13 OD1        44.2540   32.5480   21.0770 O.co2     1 KAI        -0.5690
     14 OD2        45.6970   31.1250   20.1910 O.co2     1 KAI        -0.5690
     15 OXT        42.2350   35.5780   19.8920 O.co2     1 KAI        -0.5642
     16 H1         44.2011   33.9083   16.4402 H         1 KAI         0.2032
     17 H2         43.6258   35.4489   16.5124 H         1 KAI         0.2032
     18 H3         45.7565   36.1036   16.3807 H         1 KAI         0.0845
     19 H4         46.3156   34.4742   16.8896 H         1 KAI         0.0845
     20 H5         48.3053   36.2712   20.8819 H         1 KAI         0.0075
     21 H6         46.4463   36.0654   21.1261 H         1 KAI         0.0075
     22 H7         49.1958   36.1227   18.7644 H         1 KAI         0.0425
     23 H8         48.1770   36.7282   17.4146 H         1 KAI         0.0425
     24 H9         48.3431   34.9612   17.6919 H         1 KAI         0.0425
     25 H10        43.3637   33.5023   18.4038 H         1 KAI         0.1031
     26 H11        44.6239   35.0463   20.2076 H         1 KAI         0.0424
     27 H12        46.7266   33.7373   19.8079 H         1 KAI         0.0438
     28 H13        45.9144   33.0155   18.3775 H         1 KAI         0.0438
     29 H14        45.1619   36.7119   18.5902 H         1 KAI         0.0554
@<TRIPOS>BOND
     1    2    1 1  
     2    5    1 1  
     3    8    2 1  
     4   10    3 2  
     5   10    4 1  
     6    6    5 1  
     7    5   11 1  
     8    6    7 1  
     9    8    6 1  
    10    7    9 1  
    11    8   10 1  
    12    9   13 ar 
    13    9   14 ar 
    14   11   12 ar 
    15   11   15 ar 
    16    1   16 1  
    17    1   17 1  
    18    2   18 1  
    19    2   19 1  
    20    3   20 1  
    21    3   21 1  
    22    4   22 1  
    23    4   23 1  
    24    4   24 1  
    25    5   25 1  
    26    6   26 1  
    27    7   27 1  
    28    7   28 1  
    29    8   29 1  
@<TRIPOS>SUBSTRUCTURE
     1 KAI         1

