### 
### Created by X-TOOL on Mon Sep 10 21:13:11 2018
### 

@<TRIPOS>MOLECULE
3u93_ligand
   18    17     1     0     0
SMALL
GAST_HUCK


@<TRIPOS>ATOM
      1 N          20.9800   21.2130   16.9410 N.4       1 GLU         0.2328
      2 CA         21.4550   21.4220   18.3350 C.3       1 GLU         0.0298
      3 C          22.6450   20.5360   18.6690 C.2       1 GLU         0.0845
      4 O          23.2060   19.8910   17.7910 O.co2     1 GLU        -0.5643
      5 CB         20.3100   21.1470   19.3080 C.3       1 GLU         0.0139
      6 CG         19.3090   22.2970   19.3870 C.3       1 GLU         0.0069
      7 CD         19.8730   23.5000   20.1140 C.2       1 GLU         0.0351
      8 OE1        20.8290   23.3140   20.8960 O.co2     1 GLU        -0.5690
      9 OE2        19.3550   24.6260   19.9180 O.co2     1 GLU        -0.5690
     10 OXT        23.0680   20.4430   19.8220 O.co2     1 GLU        -0.5643
     11 H1         20.1932   21.8166   16.7601 H         1 GLU         0.2010
     12 H2         20.7005   20.2519   16.8218 H         1 GLU         0.2010
     13 H3         21.7243   21.4289   16.2965 H         1 GLU         0.2010
     14 H4         21.7659   22.4717   18.4418 H         1 GLU         0.1025
     15 H5         20.7329   20.9803   20.3097 H         1 GLU         0.0356
     16 H6         19.7792   20.2416   18.9787 H         1 GLU         0.0356
     17 H7         18.4121   21.9495   19.9207 H         1 GLU         0.0433
     18 H8         19.0342   22.5978   18.3653 H         1 GLU         0.0433
@<TRIPOS>BOND
     1    1    2 1  
     2    2    3 1  
     3    2    5 1  
     4    3    4 ar 
     5    3   10 ar 
     6    5    6 1  
     7    6    7 1  
     8    7    8 ar 
     9    7    9 ar 
    10    1   11 1  
    11    1   12 1  
    12    1   13 1  
    13    2   14 1  
    14    5   15 1  
    15    5   16 1  
    16    6   17 1  
    17    6   18 1  
@<TRIPOS>SUBSTRUCTURE
     1 GLU         1

