### 
### Created by X-TOOL on Mon Sep 10 21:13:10 2018
### 

@<TRIPOS>MOLECULE
3u9c_ligand
   25    27     1     0     0
SMALL
GAST_HUCK


@<TRIPOS>ATOM
      1 O4         47.1010   -2.1770   43.1530 O.3       1 04G        -0.3438
      2 O5         45.1650   -4.9940   39.7680 O.3       1 04G        -0.2706
      3 N6         47.0150   -4.0860   37.8800 N.pl3     1 04G        -0.2911
      4 O6         43.1090   -7.8660   36.5080 O.3       1 04G        -0.3438
      5 C21        48.0040   -2.6470   39.6150 C.ar      1 04G        -0.0565
      6 C22        48.0160   -2.1780   40.9280 C.ar      1 04G        -0.0554
      7 C23        47.0790   -2.6470   41.8590 C.ar      1 04G         0.0667
      8 C24        46.1270   -3.5870   41.4700 C.ar      1 04G        -0.0101
      9 C25        46.1110   -4.0700   40.1240 C.ar      1 04G         0.1283
     10 C26        47.0300   -3.6090   39.2170 C.ar      1 04G         0.0788
     11 C27        46.0240   -5.0430   37.5390 C.ar      1 04G         0.0788
     12 C28        45.1280   -5.4720   38.4850 C.ar      1 04G         0.1283
     13 C29        44.1300   -6.4350   38.1390 C.ar      1 04G        -0.0101
     14 C30        44.0690   -6.9380   36.8400 C.ar      1 04G         0.0667
     15 C31        44.9860   -6.5000   35.8740 C.ar      1 04G        -0.0554
     16 C32        45.9610   -5.5590   36.2100 C.ar      1 04G        -0.0565
     17 H          46.3991   -2.5960   43.6564 H         1 04G         0.2439
     18 H          47.6901   -3.7539   37.1913 H         1 04G         0.1955
     19 H          43.2043   -8.1066   35.5835 H         1 04G         0.2439
     20 H          48.7362   -2.2797   38.8959 H         1 04G         0.0457
     21 H          48.7594   -1.4413   41.2327 H         1 04G         0.0418
     22 H          45.3957   -3.9536   42.1903 H         1 04G         0.0437
     23 H          43.4173   -6.7758   38.8900 H         1 04G         0.0437
     24 H          44.9376   -6.8948   34.8592 H         1 04G         0.0418
     25 H          46.6732   -5.2189   35.4582 H         1 04G         0.0457
@<TRIPOS>BOND
     1    7    1 1  
     2    2    9 1  
     3   12    2 1  
     4    3   10 1  
     5   11    3 1  
     6   14    4 1  
     7    5    6 ar 
     8   10    5 ar 
     9    7    6 ar 
    10    8    7 ar 
    11    9    8 ar 
    12    9   10 ar 
    13   12   11 ar 
    14   11   16 ar 
    15   13   12 ar 
    16   13   14 ar 
    17   14   15 ar 
    18   15   16 ar 
    19    1   17 1  
    20    3   18 1  
    21    4   19 1  
    22    5   20 1  
    23    6   21 1  
    24    8   22 1  
    25   13   23 1  
    26   15   24 1  
    27   16   25 1  
@<TRIPOS>SUBSTRUCTURE
     1 04G         1

