### 
### Created by X-TOOL on Mon Sep 10 21:13:10 2018
### 

@<TRIPOS>MOLECULE
3u9n_ligand
   50    54     1     0     0
SMALL
GAST_HUCK


@<TRIPOS>ATOM
      1 C01         6.9320   -5.2320   12.2840 C.ar      1 09H        -0.0892
      2 C02         6.2820   -4.2660   11.5650 C.ar      1 09H        -0.0890
      3 C03         6.9910   -3.3430   10.8120 C.ar      1 09H        -0.0521
      4 C04         8.3760   -3.3890   10.7940 C.ar      1 09H         0.0853
      5 C05         9.0640   -4.3920   11.5330 C.ar      1 09H         0.0639
      6 C06         8.3210   -5.2890   12.2890 C.ar      1 09H        -0.0570
      7 N07        10.4640   -4.3870   11.5550 N.pl3     1 09H        -0.3037
      8 C08        11.1250   -5.7050   11.6860 C.3       1 09H         0.0643
      9 C09        12.6620   -5.5330   11.5820 C.3       1 09H        -0.0139
     10 N10        13.2360   -4.5610   12.5610 N.4       1 09H         0.2297
     11 C11        12.5700   -3.2700   12.3650 C.3       1 09H        -0.0139
     12 C12        11.0380   -3.3510   12.4970 C.3       1 09H         0.0643
     13 N13         9.1760   -2.5070   10.0470 N.am      1 09H        -0.2394
     14 C14         8.8850   -1.3130    9.4330 C.2       1 09H         0.2263
     15 O15         7.8710   -0.6450    9.5370 O.2       1 09H        -0.3819
     16 C16         9.9930   -0.8610    8.6120 C.2       1 09H         0.1010
     17 N17        11.2310   -1.5580    8.5830 N.2       1 09H        -0.2967
     18 C18        12.0840   -0.9650    7.7620 C.2       1 09H         0.1092
     19 S19        11.4740    0.4520    7.0280 S.3       1 09H         0.0042
     20 C20         9.9560    0.2610    7.8200 C.2       1 09H         0.0374
     21 C21        13.4760   -1.4020    7.5370 C.ar      1 09H         0.0074
     22 C22        14.3930   -0.6580    6.7390 C.ar      1 09H        -0.0573
     23 C23        15.7190   -1.0600    6.5750 C.ar      1 09H        -0.0262
     24 C24        16.1210   -2.2040    7.2350 C.ar      1 09H         0.1288
     25 C25        15.2590   -2.9390    8.0320 C.ar      1 09H        -0.0054
     26 C26        13.9330   -2.5450    8.1980 C.ar      1 09H        -0.0538
     27 O27        17.3950   -2.7290    7.1650 O.3       1 09H        -0.2543
     28 C28        17.4150   -3.7600    8.2100 C.2       1 09H         0.0860
     29 C29        15.9730   -4.1190    8.5910 C.2       1 09H        -0.0450
     30 H1          6.3607   -5.9567   12.8528 H         1 09H         0.0454
     31 H2          5.1991   -4.2220   11.5845 H         1 09H         0.0466
     32 H3          6.4642   -2.5882   10.2395 H         1 09H         0.0459
     33 H4          8.8272   -6.0383   12.8868 H         1 09H         0.0466
     34 H5         10.7766   -6.3700   10.8821 H         1 09H         0.0562
     35 H6         10.8719   -6.1454   12.6617 H         1 09H         0.0562
     36 H7         12.9024   -5.1833   10.5671 H         1 09H         0.0833
     37 H8         13.1314   -6.5130   11.7530 H         1 09H         0.0833
     38 H9         14.2266   -4.4618   12.4032 H         1 09H         0.2015
     39 H10        13.0766   -4.8884   13.5009 H         1 09H         0.2015
     40 H11        12.8149   -2.8996   11.3586 H         1 09H         0.0833
     41 H12        12.9488   -2.5634   13.1181 H         1 09H         0.0833
     42 H13        10.7805   -3.6238   13.5311 H         1 09H         0.0562
     43 H14        10.6044   -2.3687   12.2580 H         1 09H         0.0562
     44 H15        10.1262   -2.8011    9.9442 H         1 09H         0.2210
     45 H16         9.1006    0.9259    7.7100 H         1 09H         0.0876
     46 H17        14.0510    0.2448    6.2460 H         1 09H         0.0579
     47 H18        16.4061   -0.4966    5.9541 H         1 09H         0.0575
     48 H19        13.2650   -3.1174    8.8313 H         1 09H         0.0600
     49 H20        18.3110   -4.1999    8.6454 H         1 09H         0.1076
     50 H21        15.5835   -4.9881    9.1191 H         1 09H         0.0345
@<TRIPOS>BOND
     1    1    2 ar 
     2    1    6 ar 
     3    2    3 ar 
     4    3    4 ar 
     5    4    5 ar 
     6    4   13 1  
     7    5    6 ar 
     8    5    7 1  
     9    7    8 1  
    10    7   12 1  
    11    8    9 1  
    12    9   10 1  
    13   10   11 1  
    14   11   12 1  
    15   13   14 am 
    16   14   15 2  
    17   14   16 1  
    18   16   17 1  
    19   16   20 2  
    20   17   18 2  
    21   18   19 1  
    22   18   21 1  
    23   19   20 1  
    24   21   22 ar 
    25   21   26 ar 
    26   22   23 ar 
    27   23   24 ar 
    28   24   25 ar 
    29   24   27 1  
    30   25   26 ar 
    31   25   29 1  
    32   27   28 1  
    33   28   29 2  
    34    1   30 1  
    35    2   31 1  
    36    3   32 1  
    37    6   33 1  
    38    8   34 1  
    39    8   35 1  
    40    9   36 1  
    41    9   37 1  
    42   10   38 1  
    43   10   39 1  
    44   11   40 1  
    45   11   41 1  
    46   12   42 1  
    47   12   43 1  
    48   13   44 1  
    49   20   45 1  
    50   22   46 1  
    51   23   47 1  
    52   26   48 1  
    53   28   49 1  
    54   29   50 1  
@<TRIPOS>SUBSTRUCTURE
     1 09H         1

