### 
### Created by X-TOOL on Mon Sep 10 21:13:09 2018
### 

@<TRIPOS>MOLECULE
3ua8_ligand
   43    45     1     0     0
SMALL
GAST_HUCK


@<TRIPOS>ATOM
      1 O37        42.8510   31.9680   13.9670 O.2       1 08W        -0.3969
      2 C36        42.4040   32.9360   13.3520 C.2       1 08W         0.1934
      3 N38        41.0920   33.0300   13.0160 N.am      1 08W        -0.2928
      4 C40        40.1240   32.0010   13.4080 C.3       1 08W         0.0185
      5 C33        43.3480   34.0060   12.9370 C.2       1 08W         0.0963
      6 N32        44.5060   34.4820   13.6450 N.2       1 08W        -0.3029
      7 C30        45.0910   35.3980   12.9890 C.2       1 08W         0.1243
      8 C34        43.3980   34.7820   11.8190 C.2       1 08W         0.0837
      9 N29        44.4240   35.6180   11.8870 N.pl3     1 08W        -0.1869
     10 C6         44.7440   36.4420   10.8530 C.ar      1 08W         0.1289
     11 C7         45.7690   35.9440   10.0430 C.ar      1 08W         0.0161
     12 C9         46.2120   36.6690    8.9320 C.ar      1 08W         0.1053
     13 C17        47.3090   36.1880    8.0330 C.2       1 08W         0.2667
     14 O18        47.8430   35.1180    8.2820 O.2       1 08W        -0.3701
     15 N16        47.6720   36.9510    6.9750 N.am      1 08W        -0.0564
     16 N19        48.7500   36.4480    6.1540 N.am      1 08W        -0.1212
     17 S21        50.2720   37.0130    6.5610 S.o2      1 08W         0.0584
     18 O23        50.2880   38.3970    7.0000 O.2       1 08W        -0.1538
     19 C24        50.7460   36.1130    8.0640 C.3       1 08W         0.0754
     20 O22        51.2560   36.7010    5.5420 O.2       1 08W        -0.1538
     21 C15        47.0820   38.1490    6.6810 C.2       1 08W         0.3417
     22 O28        47.4320   38.8080    5.7140 O.2       1 08W        -0.3824
     23 N13        46.0920   38.6150    7.4680 N.am      1 08W        -0.2054
     24 C10        45.6330   37.8920    8.6060 C.ar      1 08W         0.1108
     25 C11        44.6060   38.3950    9.4060 C.ar      1 08W        -0.0123
     26 C5         44.1410   37.6740   10.5280 C.ar      1 08W         0.0697
     27 C2         43.0380   38.2480   11.4200 C.3       1 08W         0.3671
     28 F1         42.0440   37.3620   11.5720 F         1 08W        -0.2302
     29 F3         43.5390   38.5540   12.6630 F         1 08W        -0.2302
     30 F4         42.5230   39.3810   10.8740 F         1 08W        -0.2302
     31 H1         40.7784   33.8197   12.4887 H         1 08W         0.1833
     32 H2         39.1263   32.2749   13.0345 H         1 08W         0.0482
     33 H3         40.0961   31.9226   14.5048 H         1 08W         0.0482
     34 H4         40.4233   31.0335   12.9787 H         1 08W         0.0482
     35 H5         45.9993   35.9154   13.2944 H         1 08W         0.1276
     36 H6         42.6959   34.7239   10.9886 H         1 08W         0.1010
     37 H7         46.2239   34.9885   10.2779 H         1 08W         0.0690
     38 H8         48.5978   35.8100    5.3991 H         1 08W         0.2028
     39 H9         51.7452   36.4400    8.3874 H         1 08W         0.0483
     40 H10        50.7635   35.0332    7.8547 H         1 08W         0.0483
     41 H11        50.0167   36.3203    8.8609 H         1 08W         0.0483
     42 H12        45.6678   39.4931    7.2466 H         1 08W         0.2292
     43 H13        44.1590   39.3522    9.1629 H         1 08W         0.0671
@<TRIPOS>BOND
     1    1    2 2  
     2    2    3 am 
     3    2    5 1  
     4    3    4 1  
     5    5    6 1  
     6    5    8 2  
     7    6    7 2  
     8    7    9 1  
     9    8    9 1  
    10    9   10 1  
    11   10   11 ar 
    12   10   26 ar 
    13   11   12 ar 
    14   12   13 1  
    15   12   24 ar 
    16   13   14 2  
    17   13   15 am 
    18   15   16 1  
    19   15   21 am 
    20   16   17 am 
    21   17   18 2  
    22   17   19 1  
    23   17   20 2  
    24   21   22 2  
    25   21   23 am 
    26   23   24 1  
    27   24   25 ar 
    28   25   26 ar 
    29   26   27 1  
    30   27   28 1  
    31   27   29 1  
    32   27   30 1  
    33    3   31 1  
    34    4   32 1  
    35    4   33 1  
    36    4   34 1  
    37    7   35 1  
    38    8   36 1  
    39   11   37 1  
    40   16   38 1  
    41   19   39 1  
    42   19   40 1  
    43   19   41 1  
    44   23   42 1  
    45   25   43 1  
@<TRIPOS>SUBSTRUCTURE
     1 08W         1

