### 
### Created by X-TOOL on Mon Sep 10 21:13:10 2018
### 

@<TRIPOS>MOLECULE
3ua9_ligand
   52    57     1     0     0
SMALL
GAST_HUCK


@<TRIPOS>ATOM
      1 CAF         5.9360   -1.8780    5.3260 C.ar      1 IWR         0.0768
      2 NAG         6.2830   -3.0610    4.7580 N.ar      1 IWR        -0.2956
      3 CAH         6.7880   -3.1290    3.5290 C.ar      1 IWR         0.0076
      4 CAI         6.9990   -1.9520    2.7920 C.ar      1 IWR        -0.0360
      5 CAJ         6.6600   -0.7070    3.3360 C.ar      1 IWR        -0.0412
      6 CAA         6.1190   -0.6700    4.6220 C.ar      1 IWR        -0.0059
      7 CAB         5.7730    0.5450    5.2010 C.ar      1 IWR        -0.0665
      8 CAC         5.2350    0.5790    6.4760 C.ar      1 IWR        -0.0763
      9 CAD         5.0690   -0.6160    7.1760 C.ar      1 IWR        -0.0379
     10 CAE         5.4270   -1.8550    6.6230 C.ar      1 IWR         0.0955
     11 NAK         5.2340   -3.0360    7.2450 N.am      1 IWR        -0.2276
     12 CAL         4.4890   -3.2080    8.3470 C.2       1 IWR         0.2263
     13 OAM         3.9460   -2.3050    8.9480 O.2       1 IWR        -0.3774
     14 CAN         4.2950   -4.6510    8.7750 C.ar      1 IWR         0.0426
     15 CAS         5.3730   -5.5170    8.8170 C.ar      1 IWR        -0.0530
     16 CAO         5.2170   -6.8560    9.1690 C.ar      1 IWR        -0.0296
     17 CAR         3.0400   -5.1480    9.0690 C.ar      1 IWR        -0.0530
     18 CAQ         2.8700   -6.4870    9.4340 C.ar      1 IWR        -0.0296
     19 CAP         3.9580   -7.3380    9.4890 C.ar      1 IWR         0.1008
     20 NAT         3.8030   -8.6110    9.8060 N.am      1 IWR        -0.1293
     21 CAW         3.7340   -9.1130   11.0270 C.2       1 IWR         0.2387
     22 OBE         3.7980   -8.4520   12.0440 O.2       1 IWR        -0.3743
     23 CAV         3.5570  -10.6140   11.0050 C.3       1 IWR         0.0830
     24 CBB         4.8260  -11.3500   11.4390 C.3       1 IWR        -0.0175
     25 CBC         4.6380  -12.6430   10.6500 C.3       1 IWR        -0.0423
     26 CBA         6.1000  -10.8200   10.7610 C.3       1 IWR        -0.0473
     27 CAZ         5.9750  -11.3140    9.3150 C.3       1 IWR        -0.0473
     28 CAY         4.6120  -11.9850    9.2970 C.3       1 IWR        -0.0175
     29 CAU         3.4870  -10.9520    9.5200 C.3       1 IWR         0.0830
     30 CAX         3.7610   -9.5900    8.8850 C.2       1 IWR         0.2387
     31 OBD         3.7980   -9.4200    7.6710 O.2       1 IWR        -0.3743
     32 H1          7.0363   -4.0916    3.0969 H         1 IWR         0.0824
     33 H2          7.4263   -2.0077    1.7973 H         1 IWR         0.0687
     34 H3          6.8140    0.2058    2.7720 H         1 IWR         0.0734
     35 H4          5.9247    1.4680    4.6531 H         1 IWR         0.0469
     36 H5          4.9463    1.5225    6.9248 H         1 IWR         0.0587
     37 H6          4.6514   -0.5867    8.1759 H         1 IWR         0.0475
     38 H7          5.6790   -3.8427    6.8560 H         1 IWR         0.2308
     39 H8          6.3611   -5.1455    8.5705 H         1 IWR         0.0633
     40 H9          6.0758   -7.5170    9.1924 H         1 IWR         0.0534
     41 H10         2.1779   -4.4930    9.0162 H         1 IWR         0.0633
     42 H11         1.8809   -6.8593    9.6749 H         1 IWR         0.0534
     43 H12         2.6739  -10.9316   11.5787 H         1 IWR         0.0579
     44 H13         4.9221  -11.4510   12.5301 H         1 IWR         0.0330
     45 H14         3.6967  -13.1579   10.8923 H         1 IWR         0.0274
     46 H15         5.4793  -13.3417   10.7687 H         1 IWR         0.0274
     47 H16         7.0000  -11.2329   11.2400 H         1 IWR         0.0270
     48 H17         6.1360   -9.7212   10.7983 H         1 IWR         0.0270
     49 H18         6.7720  -12.0324    9.0728 H         1 IWR         0.0270
     50 H19         6.0108  -10.4737    8.6061 H         1 IWR         0.0270
     51 H20         4.4479  -12.6462    8.4334 H         1 IWR         0.0330
     52 H21         2.5133  -11.3565    9.2066 H         1 IWR         0.0579
@<TRIPOS>BOND
     1    1    2 ar 
     2    1    6 ar 
     3    1   10 ar 
     4    2    3 ar 
     5    3    4 ar 
     6    4    5 ar 
     7    5    6 ar 
     8    6    7 ar 
     9    7    8 ar 
    10    8    9 ar 
    11    9   10 ar 
    12   10   11 1  
    13   11   12 am 
    14   12   13 2  
    15   12   14 1  
    16   14   15 ar 
    17   14   17 ar 
    18   15   16 ar 
    19   16   19 ar 
    20   17   18 ar 
    21   18   19 ar 
    22   19   20 1  
    23   20   21 am 
    24   20   30 am 
    25   21   22 2  
    26   21   23 1  
    27   23   24 1  
    28   23   29 1  
    29   24   25 1  
    30   24   26 1  
    31   25   28 1  
    32   26   27 1  
    33   27   28 1  
    34   28   29 1  
    35   29   30 1  
    36   30   31 2  
    37    3   32 1  
    38    4   33 1  
    39    5   34 1  
    40    7   35 1  
    41    8   36 1  
    42    9   37 1  
    43   11   38 1  
    44   15   39 1  
    45   16   40 1  
    46   17   41 1  
    47   18   42 1  
    48   23   43 1  
    49   24   44 1  
    50   25   45 1  
    51   25   46 1  
    52   26   47 1  
    53   26   48 1  
    54   27   49 1  
    55   27   50 1  
    56   28   51 1  
    57   29   52 1  
@<TRIPOS>SUBSTRUCTURE
     1 IWR         1

