### 
### Created by X-TOOL on Mon Sep 10 21:13:10 2018
### 

@<TRIPOS>MOLECULE
3ubd_ligand
   61    64     1     0     0
SMALL
GAST_HUCK


@<TRIPOS>ATOM
      1 C1         29.1130    4.4050    3.7940 C.3       1 SL0         0.0372
      2 C2         30.2380    4.2500    4.8370 C.2       1 SL0         0.2310
      3 O1         30.4900    3.1340    5.3250 O.2       1 SL0        -0.3707
      4 O2         31.0660    5.3260    5.1160 O.3       1 SL0        -0.2678
      5 C3         31.9260    5.2090    6.2080 C.3       1 SL0         0.1512
      6 C4         33.2900    4.9260    5.7680 C.3       1 SL0         0.1431
      7 O3         33.7050    5.9640    4.9330 O.3       1 SL0        -0.3833
      8 C5         31.8580    6.4870    7.0650 C.3       1 SL0         0.1464
      9 O4         30.5750    6.6780    7.5630 O.3       1 SL0        -0.2680
     10 C6         29.7620    7.6910    7.0820 C.2       1 SL0         0.2310
     11 O5         30.2510    8.6280    6.4290 O.2       1 SL0        -0.3707
     12 C7         28.2800    7.5390    7.1910 C.3       1 SL0         0.0372
     13 C8         32.8920    6.4000    8.1620 C.3       1 SL0         0.0927
     14 C9         32.9880    7.7000    8.9650 C.3       1 SL0        -0.0357
     15 O6         34.1380    6.0250    7.6700 O.3       1 SL0        -0.3394
     16 C10        34.2300    4.8250    6.9730 C.3       1 SL0         0.2061
     17 O7         33.8510    3.6850    7.7120 O.3       1 SL0        -0.2917
     18 C11        34.5220    3.5580    8.9340 C.2       1 SL0         0.1658
     19 C12        36.0500    3.4170    8.9570 C.2       1 SL0         0.1455
     20 O8         36.7260    3.4420    7.9170 O.2       1 SL0        -0.4153
     21 C13        33.8470    3.5330   10.0910 C.2       1 SL0         0.1561
     22 C14        32.3280    3.5880   10.2540 C.ar      1 SL0         0.0038
     23 C15        31.8020    3.9990   11.4850 C.ar      1 SL0        -0.0611
     24 C16        30.4260    3.9960   11.6780 C.ar      1 SL0        -0.0332
     25 C17        29.6000    3.5280   10.6480 C.ar      1 SL0         0.0878
     26 O9         28.2170    3.5160   10.8230 O.3       1 SL0        -0.3329
     27 C18        30.1300    3.0750    9.4420 C.ar      1 SL0        -0.0332
     28 C19        31.5190    3.0770    9.2510 C.ar      1 SL0        -0.0611
     29 O10        34.4880    3.4020   11.3230 O.3       1 SL0        -0.2589
     30 C20        35.9840    3.2440   11.4380 C.ar      1 SL0         0.1206
     31 C21        36.5040    3.1330   12.6960 C.ar      1 SL0        -0.0055
     32 C22        37.8590    2.9950   12.8100 C.ar      1 SL0         0.0766
     33 O11        38.3520    2.8840   14.0760 O.3       1 SL0        -0.3353
     34 C23        38.6870    3.0070   11.6940 C.ar      1 SL0        -0.0094
     35 C24        38.1190    3.1390   10.4420 C.ar      1 SL0         0.0929
     36 C25        36.7600    3.2720   10.3110 C.ar      1 SL0         0.0812
     37 O12        38.9280    3.1410    9.2800 O.3       1 SL0        -0.3327
     38 H1         28.5629    3.4567    3.7045 H         1 SL0         0.0483
     39 H2         29.5501    4.6687    2.8196 H         1 SL0         0.0483
     40 H3         28.4234    5.2001    4.1138 H         1 SL0         0.0483
     41 H4         31.5872    4.3642    6.8256 H         1 SL0         0.0708
     42 H5         33.3078    3.9759    5.2140 H         1 SL0         0.0679
     43 H6         33.1245    6.0169    4.1829 H         1 SL0         0.2101
     44 H7         32.1047    7.3489    6.4276 H         1 SL0         0.0706
     45 H8         27.7882    8.4258    6.7649 H         1 SL0         0.0483
     46 H9         27.9987    7.4369    8.2495 H         1 SL0         0.0483
     47 H10        27.9617    6.6424    6.6389 H         1 SL0         0.0483
     48 H11        32.5630    5.6116    8.8550 H         1 SL0         0.0625
     49 H12        33.7508    7.5906    9.7500 H         1 SL0         0.0255
     50 H13        32.0142    7.9179    9.4279 H         1 SL0         0.0255
     51 H14        33.2681    8.5255    8.2942 H         1 SL0         0.0255
     52 H15        35.2680    4.6940    6.6332 H         1 SL0         0.0988
     53 H16        32.4640    4.3174   12.2821 H         1 SL0         0.0584
     54 H17        29.9991    4.3497   12.6095 H         1 SL0         0.0544
     55 H18        27.8028    3.1730   10.0399 H         1 SL0         0.2486
     56 H19        29.4722    2.7229    8.6556 H         1 SL0         0.0544
     57 H20        31.9518    2.6866    8.3370 H         1 SL0         0.0584
     58 H21        35.8656    3.1536   13.5718 H         1 SL0         0.0393
     59 H22        39.2970    2.7935   14.0398 H         1 SL0         0.2494
     60 H23        39.7614    2.9143   11.8043 H         1 SL0         0.0396
     61 H24        39.8391    3.0412    9.5297 H         1 SL0         0.2504
@<TRIPOS>BOND
     1    1    2 1  
     2    2    3 2  
     3    2    4 1  
     4    4    5 1  
     5    5    6 1  
     6    5    8 1  
     7    6    7 1  
     8    6   16 1  
     9    8    9 1  
    10    8   13 1  
    11    9   10 1  
    12   10   11 2  
    13   10   12 1  
    14   13   14 1  
    15   13   15 1  
    16   15   16 1  
    17   16   17 1  
    18   17   18 1  
    19   18   19 1  
    20   18   21 2  
    21   19   20 2  
    22   19   36 1  
    23   21   22 1  
    24   21   29 1  
    25   22   23 ar 
    26   22   28 ar 
    27   23   24 ar 
    28   24   25 ar 
    29   25   26 1  
    30   25   27 ar 
    31   27   28 ar 
    32   29   30 1  
    33   30   31 ar 
    34   30   36 ar 
    35   31   32 ar 
    36   32   33 1  
    37   32   34 ar 
    38   34   35 ar 
    39   35   36 ar 
    40   35   37 1  
    41    1   38 1  
    42    1   39 1  
    43    1   40 1  
    44    5   41 1  
    45    6   42 1  
    46    7   43 1  
    47    8   44 1  
    48   12   45 1  
    49   12   46 1  
    50   12   47 1  
    51   13   48 1  
    52   14   49 1  
    53   14   50 1  
    54   14   51 1  
    55   16   52 1  
    56   23   53 1  
    57   24   54 1  
    58   26   55 1  
    59   27   56 1  
    60   28   57 1  
    61   31   58 1  
    62   33   59 1  
    63   34   60 1  
    64   37   61 1  
@<TRIPOS>SUBSTRUCTURE
     1 SL0         1

