### 
### Created by X-TOOL on Mon Sep 10 21:13:06 2018
### 

@<TRIPOS>MOLECULE
3ucj_ligand
   19    19     1     0     0
SMALL
GAST_HUCK


@<TRIPOS>ATOM
      1 C1         76.0040   52.2290  107.0040 C.2       1 AZM         0.2562
      2 C2         76.2140   54.2610  108.2940 C.2       1 AZM         0.2252
      3 C3         75.0760   55.8660  109.6430 C.2       1 AZM         0.2120
      4 C4         75.0690   57.2850  110.1810 C.3       1 AZM         0.0337
      5 N1         75.9790   49.4690  106.7240 N.am      1 AZM        -0.2565
      6 N2         77.4210   53.7310  107.9020 N.2       1 AZM        -0.2573
      7 N3         77.3100   52.4820  107.0940 N.2       1 AZM        -0.2476
      8 N4         76.2280   55.3720  109.1840 N.am      1 AZM        -0.1925
      9 O1         75.5850   50.9650  104.7570 O.2       1 AZM        -0.1452
     10 O2         74.0430   50.8130  106.6030 O.2       1 AZM        -0.1452
     11 O3         74.0400   55.1500  109.5970 O.2       1 AZM        -0.3804
     12 S1         75.4600   50.8310  106.1110 S.o2      1 AZM         0.0991
     13 S2         74.8660   53.3890  107.7280 S.3       1 AZM         0.0874
     14 H1         74.0547   57.5441  110.5187 H         1 AZM         0.0474
     15 H2         75.3797   57.9798  109.3868 H         1 AZM         0.0474
     16 H3         75.7675   57.3597  111.0275 H         1 AZM         0.0474
     17 H4         75.7301   48.6006  106.2951 H         1 AZM         0.1638
     18 H5         76.5562   49.4760  107.5406 H         1 AZM         0.1638
     19 H6         77.0968   55.7804  109.4640 H         1 AZM         0.2411
@<TRIPOS>BOND
     1    1    7 2  
     2    1   12 1  
     3   13    1 1  
     4    2    6 2  
     5    8    2 1  
     6    2   13 1  
     7    3    4 1  
     8    3    8 am 
     9    3   11 2  
    10   12    5 am 
    11    6    7 1  
    12   12    9 2  
    13   12   10 2  
    14    4   14 1  
    15    4   15 1  
    16    4   16 1  
    17    5   17 1  
    18    5   18 1  
    19    8   19 1  
@<TRIPOS>SUBSTRUCTURE
     1 AZM         1

