### 
### Created by X-TOOL on Mon Sep 10 21:13:08 2018
### 

@<TRIPOS>MOLECULE
3ud5_ligand
   76    81     1     0     0
SMALL
GAST_HUCK


@<TRIPOS>ATOM
      1 C1         20.7030    5.8660    2.4850 C.3       1 J1A         0.0996
      2 N1         22.6820    5.2950    5.2710 N.pl3     1 J1A        -0.1919
      3 O1         20.9620    5.6960    3.8640 O.3       1 J1A        -0.3383
      4 S1         18.3160    4.2010    2.4150 S.3       1 J1A        -0.1543
      5 C2         21.7210    4.9290    1.7760 C.3       1 J1A         0.1132
      6 N2         23.3740    5.4700    7.3970 N.2       1 J1A        -0.2958
      7 O2         22.1950    5.4360    0.5820 O.3       1 J1A        -0.3864
      8 C3         22.9240    4.8700    2.7810 C.3       1 J1A         0.1385
      9 N3         23.3330    3.2540    9.2810 N.pl3     1 J1A        -0.3152
     10 O3         24.1230    5.3520    2.2800 O.3       1 J1A        -0.3836
     11 C4         22.3720    5.7400    3.9590 C.3       1 J1A         0.2009
     12 N4         22.4010    1.8920    7.5190 N.ar      1 J1A        -0.2698
     13 O4         11.0710   -1.1910    9.5700 O.2       1 J1A        -0.3491
     14 C5         23.2020    6.1100    6.2580 C.2       1 J1A         0.1123
     15 N5         22.0050    2.8810    5.2990 N.ar      1 J1A        -0.2714
     16 C6         22.9390    4.1990    7.1650 C.ar      1 J1A         0.1045
     17 N6         15.1400    3.7430    5.8120 N.4       1 J1A         0.2390
     18 C7         22.8830    3.0980    8.0160 C.ar      1 J1A         0.1298
     19 C8         21.9960    1.8780    6.2100 C.ar      1 J1A         0.0533
     20 N8          7.5570    0.9370   10.0510 N.pl3     1 J1A        -0.2042
     21 C9         22.4920    4.0320    5.8300 C.ar      1 J1A         0.1613
     22 N9          6.8520   -0.7580   11.4980 N.pl3     1 J1A        -0.3305
     23 C10        19.2000    5.7580    2.1580 C.3       1 J1A         0.0229
     24 N10         9.0230   -0.9820   10.5180 N.am      1 J1A        -0.2435
     25 C11        17.0630    4.5250    3.7320 C.3       1 J1A         0.0149
     26 N11        10.7660    1.2710    8.1450 N.ar      1 J1A        -0.1635
     27 C12        15.7050    3.9590    3.3030 C.3       1 J1A        -0.0005
     28 N12         8.2540    2.6470    8.5870 N.ar      1 J1A        -0.1567
     29 C13        14.6870    4.1590    4.4450 C.3       1 J1A        -0.0307
     30 C14        16.5380    4.1460    6.1430 C.3       1 J1A        -0.0307
     31 C15        17.5400    3.8580    5.0330 C.3       1 J1A        -0.0005
     32 C16        14.8570    2.3250    6.1510 C.3       1 J1A         0.0092
     33 C18        11.3590    3.2130    6.6130 C.3       1 J1A         0.0594
     34 C19         7.8330   -0.2550   10.6690 C.cat     1 J1A         0.2087
     35 C20        10.0720   -0.5120    9.6630 C.2       1 J1A         0.2754
     36 C21        10.4390    2.4710    7.5640 C.ar      1 J1A         0.1876
     37 C22         9.1960    3.1240    7.7840 C.ar      1 J1A         0.1278
     38 C25         8.5550    1.4280    9.2140 C.ar      1 J1A         0.2851
     39 C26         9.7960    0.7610    8.9850 C.ar      1 J1A         0.2638
     40 C27        13.5910    2.3440    7.0300 C.3       1 J1A         0.0112
     41 N28        12.4520    2.4250    6.0770 N.4       1 J1A         0.2624
     42 H1         20.9819    6.8939    2.2099 H         1 J1A         0.0632
     43 H2         21.2801    3.9352    1.6088 H         1 J1A         0.0647
     44 H3         22.6325    6.2639    0.7422 H         1 J1A         0.2100
     45 H4         23.0892    3.8339    3.1114 H         1 J1A         0.0676
     46 H5         23.6791    4.1719    9.5950 H         1 J1A         0.1820
     47 H6         23.3298    2.4550    9.9310 H         1 J1A         0.1820
     48 H7         24.3751    4.8416    1.5194 H         1 J1A         0.2101
     49 H8         22.7401    6.7695    3.8379 H         1 J1A         0.0996
     50 H9         23.4425    7.1620    6.1113 H         1 J1A         0.1349
     51 H10        14.5621    4.2773    6.4417 H         1 J1A         0.2035
     52 H11        21.6138    0.9288    5.8521 H         1 J1A         0.0996
     53 H12         6.6684    1.4371   10.1966 H         1 J1A         0.2564
     54 H13         7.0014   -1.6503   11.9903 H         1 J1A         0.1792
     55 H14         5.9701   -0.2413   11.6248 H         1 J1A         0.1792
     56 H15        19.0898    6.0112    1.0932 H         1 J1A         0.0403
     57 H16        18.6888    6.5157    2.7700 H         1 J1A         0.0403
     58 H17         9.1410   -1.8418   11.0149 H         1 J1A         0.1833
     59 H18        16.9679    5.6092    3.8912 H         1 J1A         0.0416
     60 H19        15.8064    2.8857    3.0846 H         1 J1A         0.0327
     61 H20        15.3553    4.4850    2.4024 H         1 J1A         0.0327
     62 H21        14.4335    5.2286    4.4858 H         1 J1A         0.0815
     63 H22        13.7863    3.5779    4.1980 H         1 J1A         0.0815
     64 H23        16.8523    3.5993    7.0443 H         1 J1A         0.0815
     65 H24        16.5482    5.2268    6.3475 H         1 J1A         0.0815
     66 H25        18.5244    4.2610    5.3131 H         1 J1A         0.0327
     67 H26        17.6182    2.7713    4.8815 H         1 J1A         0.0327
     68 H27        15.7009    1.8886    6.7054 H         1 J1A         0.0868
     69 H28        14.6784    1.7413    5.2359 H         1 J1A         0.0868
     70 H29        11.7888    4.0696    7.1529 H         1 J1A         0.1258
     71 H30        10.7551    3.5772    5.7688 H         1 J1A         0.1258
     72 H31         9.0081    4.0594    7.2694 H         1 J1A         0.1320
     73 H32        13.5982    3.2188    7.6969 H         1 J1A         0.0867
     74 H33        13.5256    1.4251    7.6311 H         1 J1A         0.0867
     75 H34        12.7721    2.8501    5.2209 H         1 J1A         0.2055
     76 H35        12.1195    1.4929    5.8855 H         1 J1A         0.2055
@<TRIPOS>BOND
     1    1    3 1  
     2    1    5 1  
     3   23    1 1  
     4   11    2 1  
     5    2   14 1  
     6    2   21 1  
     7    3   11 1  
     8    4   23 1  
     9   25    4 1  
    10    5    7 1  
    11    5    8 1  
    12   14    6 2  
    13   16    6 1  
    14    8   10 1  
    15    8   11 1  
    16   18    9 1  
    17   18   12 ar 
    18   19   12 ar 
    19   35   13 2  
    20   15   19 ar 
    21   21   15 ar 
    22   16   18 ar 
    23   21   16 ar 
    24   17   29 1  
    25   17   30 1  
    26   32   17 1  
    27   20   34 ar 
    28   38   20 1  
    29   34   22 ar 
    30   24   34 ar 
    31   35   24 am 
    32   27   25 1  
    33   31   25 1  
    34   36   26 ar 
    35   26   39 ar 
    36   29   27 1  
    37   37   28 ar 
    38   28   38 ar 
    39   30   31 1  
    40   40   32 1  
    41   33   36 1  
    42   41   33 1  
    43   39   35 1  
    44   36   37 ar 
    45   39   38 ar 
    46   40   41 1  
    47    1   42 1  
    48    5   43 1  
    49    7   44 1  
    50    8   45 1  
    51    9   46 1  
    52    9   47 1  
    53   10   48 1  
    54   11   49 1  
    55   14   50 1  
    56   17   51 1  
    57   19   52 1  
    58   20   53 1  
    59   22   54 1  
    60   22   55 1  
    61   23   56 1  
    62   23   57 1  
    63   24   58 1  
    64   25   59 1  
    65   27   60 1  
    66   27   61 1  
    67   29   62 1  
    68   29   63 1  
    69   30   64 1  
    70   30   65 1  
    71   31   66 1  
    72   31   67 1  
    73   32   68 1  
    74   32   69 1  
    75   33   70 1  
    76   33   71 1  
    77   37   72 1  
    78   40   73 1  
    79   40   74 1  
    80   41   75 1  
    81   41   76 1  
@<TRIPOS>SUBSTRUCTURE
     1 J1A         1

