### 
### Created by X-TOOL on Mon Sep 10 21:13:10 2018
### 

@<TRIPOS>MOLECULE
3ud7_ligand
   53    54     1     0     0
SMALL
GAST_HUCK


@<TRIPOS>ATOM
      1 C1        -24.8680  -13.8100   59.6400 C.3       1 GNS         0.1821
      2 C2        -25.1800  -12.8000   58.5430 C.3       1 GNS         0.1138
      3 N         -24.8810  -11.4580   59.0050 N.am      1 GNS        -0.2705
      4 S1        -24.0500  -10.4580   58.0730 S.o2      1 GNS        -0.1197
      5 O1S       -22.6400  -10.7990   58.2400 O.co2     1 GNS        -0.4676
      6 O2S       -24.5050  -10.6820   56.7040 O.co2     1 GNS        -0.4676
      7 O3S       -24.3420   -9.1060   58.5400 O.co2     1 GNS        -0.4676
      8 C3        -26.6400  -12.8910   58.1170 C.3       1 GNS         0.1076
      9 O3        -26.8360  -12.1320   56.9450 O.3       1 GNS        -0.3871
     10 C4        -27.0440  -14.3380   57.8580 C.3       1 GNS         0.1112
     11 C5        -26.6000  -15.2410   59.0020 C.3       1 GNS         0.1130
     12 O5        -25.2100  -15.1050   59.1970 O.3       1 GNS        -0.3411
     13 C6        -26.9300  -16.6990   58.7060 C.3       1 GNS         0.0730
     14 O6        -25.7620  -17.3700   58.2880 O.3       1 GNS        -0.3924
     15 O4        -28.4440  -14.4160   57.7140 O.3       1 GNS        -0.3865
     16 S         -27.3340   -8.9370   60.7630 S.o2      1 IDY        -0.0732
     17 C1        -27.7160  -11.2890   62.9130 C.3       1 IDY         0.1919
     18 O1        -27.6080  -11.2650   64.3320 O.3       1 IDY        -0.3518
     19 C2        -26.3980  -10.8520   62.2610 C.3       1 IDY         0.1635
     20 O2        -26.6250  -10.2950   60.9590 O.3       1 IDY        -0.2546
     21 C3        -25.3480  -11.9680   62.2530 C.3       1 IDY         0.1184
     22 O3        -24.6810  -11.8570   63.5160 O.3       1 IDY        -0.3862
     23 C4        -25.8750  -13.4090   62.1220 C.3       1 IDY         0.1280
     24 O4        -25.6140  -13.4970   60.7950 O.3       1 IDY        -0.3391
     25 C5        -27.2380  -13.6600   62.7860 C.3       1 IDY         0.1424
     26 O5        -28.1690  -12.5960   62.5430 O.3       1 IDY        -0.3284
     27 C6        -27.9050  -14.8650   62.1920 C.2       1 IDY         0.0664
     28 C7        -27.0280  -12.0830   64.8810 C.3       1 IDY         0.0395
     29 O61       -27.8600  -15.9360   62.8810 O.co2     1 IDY        -0.5662
     30 O62       -28.5390  -14.7800   61.0770 O.co2     1 IDY        -0.5662
     31 OS1       -27.9010   -8.8840   59.3810 O.co2     1 IDY        -0.4611
     32 OS2       -26.2990   -7.9050   60.8950 O.co2     1 IDY        -0.4611
     33 OS3       -28.4030   -8.7000   61.7940 O.co2     1 IDY        -0.4611
     34 H         -23.8041  -13.7740   59.8743 H         1 GNS         0.0930
     35 H         -24.5569  -13.0306   57.6789 H         1 GNS         0.0587
     36 H         -25.2005  -11.1519   59.9240 H         1 GNS         0.1646
     37 H         -27.2595  -12.4985   58.9234 H         1 GNS         0.0641
     38 H         -26.6089  -11.2153   57.1171 H         1 GNS         0.2100
     39 H         -26.5559  -14.6745   56.9433 H         1 GNS         0.0646
     40 H         -27.1340  -14.9418   59.9039 H         1 GNS         0.0647
     41 H         -27.6798  -16.7487   57.9164 H         1 GNS         0.0584
     42 H         -27.3189  -17.1736   59.6069 H         1 GNS         0.0584
     43 H         -25.1023  -17.3256   58.9841 H         1 GNS         0.2095
     44 H         -28.7226  -13.8467   56.9929 H         1 GNS         0.2100
     45 H         -28.4456  -10.5685   62.5433 H         1 GNS         0.0939
     46 H         -25.9767  -10.0597   62.8798 H         1 GNS         0.0697
     47 H         -24.7279  -11.8246   61.3681 H         1 GNS         0.0650
     48 H         -24.2765  -10.9893   63.5878 H         1 GNS         0.2100
     49 H         -25.4557  -14.2514   62.6721 H         1 GNS         0.0669
     50 H         -27.0179  -13.7682   63.8480 H         1 GNS         0.0794
     51 H         -27.4812  -13.0517   64.6704 H         1 GNS         0.0525
     52 H         -25.9925  -12.0832   64.5407 H         1 GNS         0.0525
     53 H         -27.0593  -11.8913   65.9536 H         1 GNS         0.0525
@<TRIPOS>BOND
     1    1    2 1  
     2    1   12 1  
     3   24    1 1  
     4    2    3 1  
     5    2    8 1  
     6    3    4 am 
     7    4    5 ar 
     8    4    6 ar 
     9    4    7 ar 
    10    8    9 1  
    11    8   10 1  
    12   11   10 1  
    13   10   15 1  
    14   12   11 1  
    15   11   13 1  
    16   13   14 1  
    17   20   16 1  
    18   16   31 ar 
    19   16   32 ar 
    20   16   33 ar 
    21   17   18 1  
    22   19   17 1  
    23   17   26 1  
    24   18   28 1  
    25   19   20 1  
    26   21   19 1  
    27   21   22 1  
    28   23   21 1  
    29   23   24 1  
    30   23   25 1  
    31   25   26 1  
    32   25   27 1  
    33   27   29 ar 
    34   27   30 ar 
    35    1   34 1  
    36    2   35 1  
    37    3   36 1  
    38    8   37 1  
    39    9   38 1  
    40   10   39 1  
    41   11   40 1  
    42   13   41 1  
    43   13   42 1  
    44   14   43 1  
    45   15   44 1  
    46   17   45 1  
    47   19   46 1  
    48   21   47 1  
    49   22   48 1  
    50   23   49 1  
    51   25   50 1  
    52   28   51 1  
    53   28   52 1  
    54   28   53 1  
@<TRIPOS>SUBSTRUCTURE
     1 GNS         1

