### 
### Created by X-TOOL on Mon Sep 10 21:13:11 2018
### 

@<TRIPOS>MOLECULE
3ud8_ligand
   56    57     1     0     0
SMALL
GAST_HUCK


@<TRIPOS>ATOM
      1 N          26.3640   -8.5660  -22.0630 N.am      1 GNX        -0.2704
      2 C1         26.5610   -6.1840  -21.5870 C.3       1 GNX         0.1822
      3 S1         24.9720   -9.3200  -22.2950 S.o2      1 GNX        -0.1197
      4 C2         26.5910   -7.2650  -22.6610 C.3       1 GNX         0.1163
      5 C3         27.9220   -7.2580  -23.4040 C.3       1 GNX         0.1369
      6 O3         27.8300   -8.0860  -24.5420 O.3       1 GNX        -0.2577
      7 C4         28.3000   -5.8450  -23.8340 C.3       1 GNX         0.1137
      8 O4         29.6350   -5.8330  -24.2880 O.3       1 GNX        -0.3864
      9 C5         28.1480   -4.8640  -22.6780 C.3       1 GNX         0.1130
     10 O5         26.8330   -4.9310  -22.1730 O.3       1 GNX        -0.3411
     11 C6         28.4470   -3.4390  -23.1280 C.3       1 GNX         0.0730
     12 O6         27.5070   -2.5580  -22.5540 O.3       1 GNX        -0.3924
     13 O12        28.0250   -9.3910  -26.5320 O.co2     1 GNX        -0.4611
     14 S12        28.6590   -8.9470  -25.2450 S.o2      1 GNX        -0.0733
     15 O1S        24.7090   -9.2880  -23.7310 O.co2     1 GNX        -0.4676
     16 O22        30.0870   -8.7560  -25.5020 O.co2     1 GNX        -0.4611
     17 O2S        25.1400  -10.6800  -21.7920 O.co2     1 GNX        -0.4676
     18 O32        28.5560  -10.0550  -24.2900 O.co2     1 GNX        -0.4611
     19 O3S        23.9620   -8.5820  -21.5410 O.co2     1 GNX        -0.4676
     20 S          28.4250  -10.9820  -19.4380 S.o2      1 IDY        -0.0732
     21 C1         28.5390   -8.1630  -17.5960 C.3       1 IDY         0.1919
     22 O1         28.8130   -8.7190  -16.1310 O.3       1 IDY        -0.3518
     23 C2         27.3910   -8.7840  -18.3950 C.3       1 IDY         0.1635
     24 O2         27.8370   -9.5410  -19.5440 O.3       1 IDY        -0.2546
     25 C3         26.3470   -7.7110  -18.7310 C.3       1 IDY         0.1184
     26 O3         25.4850   -7.5560  -17.5850 O.3       1 IDY        -0.3862
     27 C4         26.9170   -6.3410  -19.1330 C.3       1 IDY         0.1280
     28 O4         27.5350   -6.4670  -20.6080 O.3       1 IDY        -0.3391
     29 C5         28.1350   -5.8670  -18.3310 C.3       1 IDY         0.1424
     30 O5         29.0600   -6.9280  -18.0950 O.3       1 IDY        -0.3284
     31 C6         28.9100   -4.8650  -19.1450 C.2       1 IDY         0.0664
     32 C7         28.8600   -8.5230  -15.1760 C.3       1 IDY         0.0395
     33 O61        28.7720   -3.5920  -18.8930 O.co2     1 IDY        -0.5662
     34 O62        29.7190   -5.2660  -20.0310 O.co2     1 IDY        -0.5662
     35 OS1        29.1890  -11.2790  -20.6680 O.co2     1 IDY        -0.4611
     36 OS2        27.3490  -11.9950  -19.3410 O.co2     1 IDY        -0.4611
     37 OS3        29.3540  -11.1270  -18.2580 O.co2     1 IDY        -0.4611
     38 H          27.0912   -9.0004  -21.4948 H         1 GNX         0.1646
     39 H          25.5752   -6.1609  -21.1224 H         1 GNX         0.0930
     40 H          25.7973   -7.0559  -23.3782 H         1 GNX         0.0588
     41 H          28.6938   -7.6326  -22.7316 H         1 GNX         0.0667
     42 H          27.6304   -5.5382  -24.6375 H         1 GNX         0.0647
     43 H          29.7232   -6.4297  -25.0348 H         1 GNX         0.2100
     44 H          28.8603   -5.1367  -21.8993 H         1 GNX         0.0647
     45 H          28.3839   -3.3802  -24.2146 H         1 GNX         0.0584
     46 H          29.4504   -3.1594  -22.8069 H         1 GNX         0.0584
     47 H          26.6238   -2.8051  -22.8375 H         1 GNX         0.2095
     48 H          29.4910   -8.6449  -17.8186 H         1 GNX         0.0939
     49 H          26.9062   -9.5299  -17.7651 H         1 GNX         0.0697
     50 H          25.8142   -8.0626  -19.6145 H         1 GNX         0.0650
     51 H          25.0533   -8.3922  -17.3953 H         1 GNX         0.2100
     52 H          26.0798   -5.6572  -18.9933 H         1 GNX         0.0669
     53 H          27.7507   -5.4634  -17.3942 H         1 GNX         0.0794
     54 H          29.6156   -7.7573  -15.0003 H         1 GNX         0.0525
     55 H          27.8901   -8.1639  -14.8319 H         1 GNX         0.0525
     56 H          29.1267   -9.4297  -14.6330 H         1 GNX         0.0525
@<TRIPOS>BOND
     1    1    3 am 
     2    4    1 1  
     3    2    4 1  
     4    2   10 1  
     5   28    2 1  
     6    3   15 ar 
     7    3   17 ar 
     8    3   19 ar 
     9    4    5 1  
    10    5    6 1  
    11    5    7 1  
    12    6   14 1  
    13    7    8 1  
    14    9    7 1  
    15   10    9 1  
    16    9   11 1  
    17   11   12 1  
    18   14   13 ar 
    19   14   16 ar 
    20   14   18 ar 
    21   24   20 1  
    22   20   35 ar 
    23   20   36 ar 
    24   20   37 ar 
    25   21   22 1  
    26   23   21 1  
    27   21   30 1  
    28   22   32 1  
    29   23   24 1  
    30   25   23 1  
    31   25   26 1  
    32   27   25 1  
    33   27   28 1  
    34   27   29 1  
    35   29   30 1  
    36   29   31 1  
    37   31   33 ar 
    38   31   34 ar 
    39    1   38 1  
    40    2   39 1  
    41    4   40 1  
    42    5   41 1  
    43    7   42 1  
    44    8   43 1  
    45    9   44 1  
    46   11   45 1  
    47   11   46 1  
    48   12   47 1  
    49   21   48 1  
    50   23   49 1  
    51   25   50 1  
    52   26   51 1  
    53   27   52 1  
    54   29   53 1  
    55   32   54 1  
    56   32   55 1  
    57   32   56 1  
@<TRIPOS>SUBSTRUCTURE
     1 GNX         1

