### 
### Created by X-TOOL on Mon Sep 10 21:13:11 2018
### 

@<TRIPOS>MOLECULE
3ud9_ligand
   56    57     1     0     0
SMALL
GAST_HUCK


@<TRIPOS>ATOM
      1 C1        -39.4380   -4.9870   17.8860 C.3       1 SGN         0.1821
      2 C2        -40.8180   -4.4850   17.4600 C.3       1 SGN         0.1138
      3 C3        -41.8370   -4.8980   18.5040 C.3       1 SGN         0.1076
      4 C4        -41.7390   -6.3830   18.7200 C.3       1 SGN         0.1113
      5 C5        -40.3260   -6.8490   19.0490 C.3       1 SGN         0.1154
      6 C6        -40.2550   -8.3580   19.0110 C.3       1 SGN         0.1024
      7 N         -40.8000   -3.0500   17.3290 N.am      1 SGN        -0.2705
      8 O3        -43.1690   -4.6570   18.1120 O.3       1 SGN        -0.3871
      9 O4        -42.6110   -6.5830   19.7940 O.3       1 SGN        -0.3865
     10 O5        -39.4170   -6.3880   18.0880 O.3       1 SGN        -0.3411
     11 O6        -39.6940   -8.7440   17.7790 O.3       1 SGN        -0.2631
     12 S1        -40.9060   -2.4120   15.8920 S.o2      1 SGN        -0.1197
     13 O1S       -41.4260   -1.0840   16.0060 O.co2     1 SGN        -0.4676
     14 O2S       -41.8200   -3.2660   15.2100 O.co2     1 SGN        -0.4676
     15 O3S       -39.6120   -2.4650   15.2790 O.co2     1 SGN        -0.4676
     16 S2        -38.9340  -10.0900   17.7470 S.o2      1 SGN        -0.0736
     17 O4S       -38.7020  -10.4580   16.3660 O.co2     1 SGN        -0.4611
     18 O5S       -39.8280  -11.0010   18.4100 O.co2     1 SGN        -0.4611
     19 O6S       -37.6930   -9.9420   18.4960 O.co2     1 SGN        -0.4611
     20 S         -40.1070    0.4560   19.4840 S.o2      1 IDY        -0.0732
     21 C1        -38.0420   -1.2500   21.0500 C.3       1 IDY         0.1919
     22 O1        -37.0000   -0.7620   21.5010 O.3       1 IDY        -0.3518
     23 C2        -38.1370   -1.1630   19.5490 C.3       1 IDY         0.1635
     24 O2        -39.5230   -0.9150   19.2290 O.3       1 IDY        -0.2546
     25 C3        -37.6170   -2.3650   18.8280 C.3       1 IDY         0.1184
     26 O3        -36.1770   -2.1360   18.5400 O.3       1 IDY        -0.3862
     27 C4        -37.7850   -3.6660   19.5360 C.3       1 IDY         0.1280
     28 O4        -39.0440   -4.3560   19.0760 O.3       1 IDY        -0.3391
     29 C5        -37.7730   -3.6210   21.0560 C.3       1 IDY         0.1424
     30 O5        -38.4390   -2.4800   21.6200 O.3       1 IDY        -0.3284
     31 C6        -38.5250   -4.8060   21.6170 C.2       1 IDY         0.0664
     32 C7        -35.6730   -0.2900   21.6370 C.3       1 IDY         0.0395
     33 O61       -37.8490   -5.6610   22.3410 O.co2     1 IDY        -0.5662
     34 O62       -39.8480   -4.6070   21.7720 O.co2     1 IDY        -0.5662
     35 OS1       -41.5740    0.3570   19.4430 O.co2     1 IDY        -0.4611
     36 OS2       -39.6430    1.3650   18.4130 O.co2     1 IDY        -0.4611
     37 OS3       -39.6250    0.9990   20.7980 O.co2     1 IDY        -0.4611
     38 H         -38.7483   -4.7464   17.0769 H         1 SGN         0.0930
     39 H         -41.0851   -4.9193   16.4966 H         1 SGN         0.0587
     40 H         -41.6122   -4.3099   19.3938 H         1 SGN         0.0641
     41 H         -41.9920   -6.9550   17.8273 H         1 SGN         0.0646
     42 H         -40.0793   -6.4613   20.0374 H         1 SGN         0.0648
     43 H         -41.2538   -8.7817   19.1158 H         1 SGN         0.0610
     44 H         -39.6394   -8.7238   19.8328 H         1 SGN         0.0610
     45 H         -40.7198   -2.4560   18.1543 H         1 SGN         0.1646
     46 H         -43.7637   -4.9493   18.8066 H         1 SGN         0.2100
     47 H         -43.4891   -6.2793   19.5526 H         1 SGN         0.2100
     48 H         -38.8306   -0.5893   21.4101 H         1 SGN         0.0939
     49 H         -37.4928   -0.3534   19.2059 H         1 SGN         0.0697
     50 H         -38.2185   -2.4660   17.9246 H         1 SGN         0.0650
     51 H         -36.0818   -1.3525   17.9934 H         1 SGN         0.2100
     52 H         -36.8895   -4.2233   19.2610 H         1 SGN         0.0669
     53 H         -36.7141   -3.5999   21.3136 H         1 SGN         0.0794
     54 H         -34.9771   -1.1101   21.4603 H         1 SGN         0.0525
     55 H         -35.4944    0.5026   20.9104 H         1 SGN         0.0525
     56 H         -35.5289    0.0998   22.6447 H         1 SGN         0.0525
@<TRIPOS>BOND
     1    1    2 1  
     2    1   10 1  
     3   28    1 1  
     4    2    3 1  
     5    2    7 1  
     6    3    4 1  
     7    3    8 1  
     8    5    4 1  
     9    4    9 1  
    10    5    6 1  
    11   10    5 1  
    12    6   11 1  
    13    7   12 am 
    14   11   16 1  
    15   12   13 ar 
    16   12   14 ar 
    17   12   15 ar 
    18   16   17 ar 
    19   16   18 ar 
    20   16   19 ar 
    21   24   20 1  
    22   20   35 ar 
    23   20   36 ar 
    24   20   37 ar 
    25   21   22 1  
    26   23   21 1  
    27   21   30 1  
    28   22   32 1  
    29   23   24 1  
    30   25   23 1  
    31   25   26 1  
    32   27   25 1  
    33   27   28 1  
    34   27   29 1  
    35   29   30 1  
    36   29   31 1  
    37   31   33 ar 
    38   31   34 ar 
    39    1   38 1  
    40    2   39 1  
    41    3   40 1  
    42    4   41 1  
    43    5   42 1  
    44    6   43 1  
    45    6   44 1  
    46    7   45 1  
    47    8   46 1  
    48    9   47 1  
    49   21   48 1  
    50   23   49 1  
    51   25   50 1  
    52   26   51 1  
    53   27   52 1  
    54   29   53 1  
    55   32   54 1  
    56   32   55 1  
    57   32   56 1  
@<TRIPOS>SUBSTRUCTURE
     1 SGN         1

