### 
### Created by X-TOOL on Mon Sep 10 21:13:11 2018
### 

@<TRIPOS>MOLECULE
3uda_ligand
   59    60     1     0     0
SMALL
GAST_HUCK


@<TRIPOS>ATOM
      1 N          -2.2260   10.0650   16.5490 N.am      1 SUS        -0.2704
      2 C1         -2.3210   12.3580   17.3670 C.3       1 SUS         0.1822
      3 S1         -3.5310    9.1720   16.3070 S.o2      1 SUS        -0.1197
      4 C2         -2.2140   11.4560   16.1430 C.3       1 SUS         0.1163
      5 S2         -2.7520   17.2840   15.7050 S.o2      1 SUS        -0.0736
      6 C3         -0.9470   11.7570   15.3510 C.3       1 SUS         0.1369
      7 O3         -1.0010   11.0940   14.1090 O.3       1 SUS        -0.2577
      8 S3         -0.4300    9.8310   13.7780 S.o2      1 SUS        -0.0733
      9 C4         -0.7910   13.2560   15.1210 C.3       1 SUS         0.1138
     10 O4          0.4990   13.5220   14.6160 O.3       1 SUS        -0.3864
     11 C5         -0.9990   14.0330   16.4160 C.3       1 SUS         0.1155
     12 O5         -2.2570   13.7070   16.9630 O.3       1 SUS        -0.3411
     13 C6         -0.9240   15.5340   16.1710 C.3       1 SUS         0.1024
     14 O6         -2.1370   16.1350   16.5630 O.3       1 SUS        -0.2631
     15 O1S        -4.6760    9.9790   16.7170 O.co2     1 SUS        -0.4676
     16 O2S        -3.5610    8.8490   14.8830 O.co2     1 SUS        -0.4676
     17 O3S        -3.3850    7.9770   17.1330 O.co2     1 SUS        -0.4676
     18 O4S        -2.0720   17.2660   14.4130 O.co2     1 SUS        -0.4611
     19 O5S        -4.1720   16.9880   15.5440 O.co2     1 SUS        -0.4611
     20 O6S        -2.5270   18.5310   16.4310 O.co2     1 SUS        -0.4611
     21 O7S         0.7730   10.1360   13.0480 O.co2     1 SUS        -0.4611
     22 O8S        -0.0860    8.8400   14.7710 O.co2     1 SUS        -0.4611
     23 O9S        -1.3490    9.2760   12.8080 O.co2     1 SUS        -0.4611
     24 S          -0.3830    7.7840   18.9530 S.o2      1 IDY        -0.0732
     25 C1          0.4940   10.0290   20.9690 C.3       1 IDY         0.1919
     26 O1          0.1170   10.0040   22.4130 O.3       1 IDY        -0.3518
     27 C2         -0.8660    9.9210   20.3180 C.3       1 IDY         0.1635
     28 O2         -0.6840    9.3040   19.0150 O.3       1 IDY        -0.2546
     29 C3         -1.4340   11.2990   20.2700 C.3       1 IDY         0.1184
     30 O3         -2.7440   11.4790   20.9960 O.3       1 IDY        -0.3862
     31 C4         -0.6860   12.5180   19.8100 C.3       1 IDY         0.1280
     32 O4         -1.2560   12.0810   18.2480 O.3       1 IDY        -0.3391
     33 C5          0.7000   12.5140   20.4560 C.3       1 IDY         0.1424
     34 O5          1.2780   11.1790   20.5600 O.3       1 IDY        -0.3284
     35 C6          1.6040   13.3920   19.6120 C.2       1 IDY         0.0664
     36 C7          1.4060   10.6300   22.9550 C.3       1 IDY         0.0395
     37 O61         2.2100   12.9290   18.5850 O.co2     1 IDY        -0.5662
     38 O62         1.8580   14.6490   19.9500 O.co2     1 IDY        -0.5662
     39 OS1         0.1420    7.4660   17.6000 O.co2     1 IDY        -0.4611
     40 OS2        -1.6270    7.0350   19.2180 O.co2     1 IDY        -0.4611
     41 OS3         0.6090    7.3780   19.9900 O.co2     1 IDY        -0.4611
     42 H          -1.4022    9.6552   16.9892 H         1 SUS         0.1646
     43 H          -3.2690   12.1744   17.8727 H         1 SUS         0.0930
     44 H          -3.0725   11.6506   15.5002 H         1 SUS         0.0588
     45 H          -0.0894   11.4047   15.9241 H         1 SUS         0.0667
     46 H          -1.5465   13.5746   14.4028 H         1 SUS         0.0647
     47 H           0.6186   13.0559   13.7854 H         1 SUS         0.2100
     48 H          -0.2074   13.7587   17.1133 H         1 SUS         0.0648
     49 H          -0.7516   15.7210   15.1111 H         1 SUS         0.0610
     50 H          -0.1045   15.9566   16.7524 H         1 SUS         0.0610
     51 H           1.1834    9.2351   20.6818 H         1 SUS         0.0939
     52 H          -1.5719    9.2952   20.8641 H         1 SUS         0.0697
     53 H          -1.4884   11.2641   19.1819 H         1 SUS         0.0650
     54 H          -3.0323   12.3909   20.9123 H         1 SUS         0.2100
     55 H          -0.7632   13.5902   19.9906 H         1 SUS         0.0669
     56 H           0.6035   12.8888   21.4750 H         1 SUS         0.0794
     57 H           2.2550   10.0022   22.6844 H         1 SUS         0.0525
     58 H           1.5350   11.6231   22.5245 H         1 SUS         0.0525
     59 H           1.3418   10.7086   24.0403 H         1 SUS         0.0525
@<TRIPOS>BOND
     1    1    3 am 
     2    4    1 1  
     3    2    4 1  
     4    2   12 1  
     5   32    2 1  
     6    3   15 ar 
     7    3   16 ar 
     8    3   17 ar 
     9    4    6 1  
    10   14    5 1  
    11    5   18 ar 
    12    5   19 ar 
    13    5   20 ar 
    14    6    7 1  
    15    6    9 1  
    16    7    8 1  
    17    8   21 ar 
    18    8   22 ar 
    19    8   23 ar 
    20    9   10 1  
    21   11    9 1  
    22   12   11 1  
    23   11   13 1  
    24   13   14 1  
    25   28   24 1  
    26   24   39 ar 
    27   24   40 ar 
    28   24   41 ar 
    29   25   26 1  
    30   27   25 1  
    31   25   34 1  
    32   26   36 1  
    33   27   28 1  
    34   29   27 1  
    35   29   30 1  
    36   31   29 1  
    37   31   32 1  
    38   31   33 1  
    39   33   34 1  
    40   33   35 1  
    41   35   37 ar 
    42   35   38 ar 
    43    1   42 1  
    44    2   43 1  
    45    4   44 1  
    46    6   45 1  
    47    9   46 1  
    48   10   47 1  
    49   11   48 1  
    50   13   49 1  
    51   13   50 1  
    52   25   51 1  
    53   27   52 1  
    54   29   53 1  
    55   30   54 1  
    56   31   55 1  
    57   33   56 1  
    58   36   57 1  
    59   36   58 1  
    60   36   59 1  
@<TRIPOS>SUBSTRUCTURE
     1 SUS         1

