### 
### Created by X-TOOL on Mon Sep 10 21:13:09 2018
### 

@<TRIPOS>MOLECULE
3udd_ligand
   48    51     1     0     0
SMALL
GAST_HUCK


@<TRIPOS>ATOM
      1 S1        -23.9700   -3.1720   10.6020 S.3       1 34M        -0.0184
      2 C2        -24.0280   -3.6140   12.3730 C.3       1 34M         0.1104
      3 C5        -23.3060   -2.6320   13.2250 C.2       1 34M         0.2292
      4 N6        -22.6890   -1.5880   12.9300 N.2       1 34M        -0.2754
      5 C7        -22.1330   -1.0080   14.0980 C.2       1 34M         0.1003
      6 N8        -22.5120   -1.6960   15.1040 N.2       1 34M        -0.1281
      7 O9        -23.2660   -2.7610   14.5660 O.3       1 34M        -0.1348
      8 C10       -21.3910    0.2990   14.1490 C.ar      1 34M        -0.0095
      9 C11       -20.8700    0.7460   15.3700 C.ar      1 34M        -0.0604
     10 C13       -20.2360    1.9990   15.4360 C.ar      1 34M        -0.0312
     11 C15       -20.1890    2.8280   14.3000 C.ar      1 34M         0.0925
     12 C16       -20.7500    2.3710   13.0800 C.ar      1 34M        -0.0312
     13 C18       -21.3850    1.1230   13.0090 C.ar      1 34M        -0.0604
     14 O20       -19.5310    4.0720   14.4280 O.3       1 34M        -0.3200
     15 C21       -19.5260    5.0570   13.3690 C.3       1 34M         0.0599
     16 C25       -24.8900   -4.5650   10.0290 C.2       1 34M         0.2085
     17 N26       -25.0700   -4.8720    8.7550 N.pl3     1 34M        -0.1656
     18 C27       -25.7690   -5.9780    8.7820 C.2       1 34M         0.1395
     19 N28       -25.9920   -6.4060    9.9520 N.2       1 34M        -0.2817
     20 N29       -25.3740   -5.4420   10.8030 N.2       1 34M        -0.2719
     21 C30       -26.2870   -6.7560    7.5960 C.3       1 34M         0.0159
     22 C34       -24.6530   -4.1600    7.6690 C.ar      1 34M         0.0934
     23 C35       -23.6900   -4.6820    6.7770 C.ar      1 34M        -0.0356
     24 C37       -23.2590   -3.9210    5.6810 C.ar      1 34M        -0.0372
     25 C39       -23.7880   -2.6340    5.4560 C.ar      1 34M         0.0836
     26 C40       -24.7470   -2.1060    6.3580 C.ar      1 34M        -0.0372
     27 C42       -25.1940   -2.8800    7.4380 C.ar      1 34M        -0.0356
     28 O44       -23.2710   -1.9070    4.3830 O.3       1 34M        -0.3258
     29 C45       -23.4980   -0.5030    4.1560 C.3       1 34M         0.0579
     30 H1        -23.5665   -4.6037   12.5057 H         1 34M         0.0687
     31 H2        -25.0796   -3.6539   12.6932 H         1 34M         0.0687
     32 H3        -20.9551    0.1300   16.2579 H         1 34M         0.0600
     33 H4        -19.7823    2.3273   16.3642 H         1 34M         0.0548
     34 H5        -20.6872    2.9926   12.1941 H         1 34M         0.0548
     35 H6        -21.8630    0.7988   12.0917 H         1 34M         0.0600
     36 H7        -18.9555    5.9401   13.6924 H         1 34M         0.0579
     37 H8        -20.5601    5.3528   13.1385 H         1 34M         0.0579
     38 H9        -19.0586    4.6273   12.4707 H         1 34M         0.0579
     39 H10       -26.8383   -7.6397    7.9497 H         1 34M         0.0467
     40 H11       -25.4411   -7.0776    6.9706 H         1 34M         0.0467
     41 H12       -26.9590   -6.1175    7.0038 H         1 34M         0.0467
     42 H13       -23.2832   -5.6734    6.9402 H         1 34M         0.0554
     43 H14       -22.5153   -4.3244    5.0034 H         1 34M         0.0526
     44 H15       -25.1342   -1.1041    6.2122 H         1 34M         0.0526
     45 H16       -25.9602   -2.4914    8.0990 H         1 34M         0.0554
     46 H17       -22.9743   -0.1902    3.2407 H         1 34M         0.0575
     47 H18       -23.1165    0.0732    5.0118 H         1 34M         0.0575
     48 H19       -24.5766   -0.3196    4.0421 H         1 34M         0.0575
@<TRIPOS>BOND
     1    1    2 1  
     2    1   16 1  
     3    2    3 1  
     4    3    4 2  
     5    3    7 1  
     6    4    5 1  
     7    5    6 2  
     8    5    8 1  
     9    6    7 1  
    10    8    9 ar 
    11    8   13 ar 
    12    9   10 ar 
    13   10   11 ar 
    14   11   12 ar 
    15   11   14 1  
    16   12   13 ar 
    17   14   15 1  
    18   16   17 1  
    19   16   20 2  
    20   17   18 1  
    21   17   22 1  
    22   18   19 2  
    23   18   21 1  
    24   19   20 1  
    25   22   23 ar 
    26   22   27 ar 
    27   23   24 ar 
    28   24   25 ar 
    29   25   26 ar 
    30   25   28 1  
    31   26   27 ar 
    32   28   29 1  
    33    2   30 1  
    34    2   31 1  
    35    9   32 1  
    36   10   33 1  
    37   12   34 1  
    38   13   35 1  
    39   15   36 1  
    40   15   37 1  
    41   15   38 1  
    42   21   39 1  
    43   21   40 1  
    44   21   41 1  
    45   23   42 1  
    46   24   43 1  
    47   26   44 1  
    48   27   45 1  
    49   29   46 1  
    50   29   47 1  
    51   29   48 1  
@<TRIPOS>SUBSTRUCTURE
     1 34M         1

