### 
### Created by X-TOOL on Mon Sep 10 21:13:10 2018
### 

@<TRIPOS>MOLECULE
3udh_ligand
   27    29     1     0     0
SMALL
GAST_HUCK


@<TRIPOS>ATOM
      1 C1         23.0870   36.3340   41.4120 C.3       1 091         0.0781
      2 C2         24.4800   36.8450   41.2850 C.ar      1 091        -0.0219
      3 C3         22.9810   36.1650   42.9120 C.2       1 091         0.2144
      4 C4         22.0820   37.3700   40.9790 C.3       1 091        -0.0294
      5 C5         22.7770   35.0610   40.6520 C.3       1 091        -0.0531
      6 C6         25.0570   36.9900   42.5110 C.ar      1 091         0.0939
      7 C7         25.1800   37.1610   40.1580 C.ar      1 091        -0.0552
      8 N1         24.1670   36.5930   43.5030 N.am      1 091        -0.2200
      9 O1         21.9260   35.8730   43.4650 O.2       1 091        -0.3196
     10 C8         20.9440   36.6090   40.3350 C.3       1 091        -0.0449
     11 N2         21.5990   35.3980   39.7910 N.4       1 091         0.2177
     12 C9         26.3310   37.4800   42.6680 C.ar      1 091        -0.0098
     13 C10        26.4660   37.6510   40.2870 C.ar      1 091        -0.0486
     14 C11        27.0370   37.7960   41.5320 C.ar      1 091        -0.0475
     15 H1         22.5358   38.0626   40.2549 H         1 091         0.0183
     16 H2         21.7182   37.9359   41.8493 H         1 091         0.0183
     17 H3         22.5263   34.2470   41.3480 H         1 091         0.0667
     18 H4         23.6354   34.7624   40.0323 H         1 091         0.0667
     19 H5         24.7355   37.0301   39.1780 H         1 091         0.0771
     20 H6         24.3499   36.6119   44.4860 H         1 091         0.2404
     21 H7         20.4816   37.2002   39.5309 H         1 091         0.0802
     22 H8         20.1796   36.3413   41.0793 H         1 091         0.0802
     23 H9         20.9465   34.6297   39.7931 H         1 091         0.2001
     24 H10        21.9077   35.5742   38.8478 H         1 091         0.2001
     25 H11        26.7639   37.6126   43.6529 H         1 091         0.0591
     26 H12        27.0293   37.9232   39.4018 H         1 091         0.0588
     27 H13        28.0535   38.1630   41.6167 H         1 091         0.0799
@<TRIPOS>BOND
     1    1    2 1  
     2    1    3 1  
     3    1    4 1  
     4    1    5 1  
     5    2    6 ar 
     6    2    7 ar 
     7    3    8 am 
     8    3    9 2  
     9    4   10 1  
    10    5   11 1  
    11    6    8 1  
    12    6   12 ar 
    13    7   13 ar 
    14   10   11 1  
    15   12   14 ar 
    16   13   14 ar 
    17    4   15 1  
    18    4   16 1  
    19    5   17 1  
    20    5   18 1  
    21    7   19 1  
    22    8   20 1  
    23   10   21 1  
    24   10   22 1  
    25   11   23 1  
    26   11   24 1  
    27   12   25 1  
    28   13   26 1  
    29   14   27 1  
@<TRIPOS>SUBSTRUCTURE
     1 091         1

