### 
### Created by X-TOOL on Mon Sep 10 21:13:11 2018
### 

@<TRIPOS>MOLECULE
3udj_ligand
   33    35     1     0     0
SMALL
GAST_HUCK


@<TRIPOS>ATOM
      1 C5         26.5680   37.9470   40.7340 C.ar      1 092        -0.0486
      2 C8         27.1800   38.0940   41.9620 C.ar      1 092        -0.0475
      3 C3         25.2530   37.5350   40.6460 C.ar      1 092        -0.0552
      4 C6         26.4810   37.8640   43.1210 C.ar      1 092        -0.0098
      5 C1         24.5560   37.3140   41.8080 C.ar      1 092        -0.0218
      6 C17        25.1750   37.4580   43.0100 C.ar      1 092         0.0939
      7 C14        23.0870   36.6850   43.5070 C.2       1 092         0.2146
      8 C9         19.8920   36.6300   41.9450 C.2       1 092         0.2813
      9 C4         22.0930   37.8460   41.5830 C.3       1 092        -0.0074
     10 C13        22.9010   35.5610   41.2460 C.3       1 092        -0.0508
     11 C7         20.9790   37.0180   40.9760 C.3       1 092         0.0669
     12 C2         23.1530   36.8500   42.0050 C.3       1 092         0.0806
     13 C18        18.4560   37.1840   43.5940 C.3       1 092         0.0660
     14 N16        24.2900   37.1190   44.0420 N.am      1 092        -0.2200
     15 N10        21.6360   35.7770   40.4760 N.4       1 092         0.2381
     16 O15        22.0830   36.3650   44.1350 O.2       1 092        -0.3196
     17 O12        19.4620   35.4960   42.0550 O.2       1 092        -0.3641
     18 O11        19.3960   37.6790   42.6440 O.3       1 092        -0.2760
     19 H          27.1287   38.1584   39.8235 H         1 092         0.0588
     20 H          28.2264   38.3950   42.0122 H         1 092         0.0799
     21 H          24.7789   37.3885   39.6755 H         1 092         0.0771
     22 H          26.9478   37.9994   44.0966 H         1 092         0.0591
     23 H          21.7380   38.4343   42.4292 H         1 092         0.0212
     24 H          22.4866   38.5703   40.8698 H         1 092         0.0212
     25 H          22.8099   34.7137   41.9257 H         1 092         0.0667
     26 H          23.7323   35.3247   40.5818 H         1 092         0.0667
     27 H          20.4842   37.6093   40.2055 H         1 092         0.1103
     28 H          17.6498   36.6694   43.0713 H         1 092         0.0577
     29 H          18.9552   36.4887   44.2688 H         1 092         0.0577
     30 H          18.0466   38.0167   44.1659 H         1 092         0.0577
     31 H          24.4996   37.1821   45.0382 H         1 092         0.2404
     32 H          21.0127   34.9796   40.6025 H         1 092         0.2023
     33 H          21.8468   35.8724   39.4826 H         1 092         0.2023
@<TRIPOS>BOND
     1    1    2 ar 
     2    3    1 ar 
     3    4    2 ar 
     4    5    3 ar 
     5    6    4 ar 
     6    5    6 ar 
     7   12    5 1  
     8   14    6 1  
     9   12    7 1  
    10    7   14 am 
    11    7   16 2  
    12   11    8 1  
    13    8   17 2  
    14    8   18 1  
    15    9   11 1  
    16    9   12 1  
    17   12   10 1  
    18   10   15 1  
    19   11   15 1  
    20   18   13 1  
    21    1   19 1  
    22    2   20 1  
    23    3   21 1  
    24    4   22 1  
    25    9   23 1  
    26    9   24 1  
    27   10   25 1  
    28   10   26 1  
    29   11   27 1  
    30   13   28 1  
    31   13   29 1  
    32   13   30 1  
    33   14   31 1  
    34   15   32 1  
    35   15   33 1  
@<TRIPOS>SUBSTRUCTURE
     1 092         1

