### 
### Created by X-TOOL on Mon Sep 10 21:13:11 2018
### 

@<TRIPOS>MOLECULE
3udk_ligand
   44    47     1     0     0
SMALL
GAST_HUCK


@<TRIPOS>ATOM
      1 C5         26.8760   37.9950   40.9650 C.ar      1 095        -0.0486
      2 C8         27.4780   38.0510   42.2090 C.ar      1 095        -0.0475
      3 C3         25.5360   37.6950   40.8370 C.ar      1 095        -0.0552
      4 C6         26.7630   37.7800   43.3560 C.ar      1 095        -0.0098
      5 C1         24.8250   37.4520   41.9860 C.ar      1 095        -0.0218
      6 C17        25.4340   37.4770   43.2070 C.ar      1 095         0.0939
      7 C14        23.2860   36.9370   43.6350 C.2       1 095         0.2146
      8 C9         20.3220   37.0550   42.3300 C.2       1 095         0.2818
      9 C19        19.8720   34.0330   44.1600 C.3       1 095         0.0015
     10 C23        17.9890   35.5760   43.3720 C.3       1 095         0.0015
     11 C4         22.4300   38.1000   41.6450 C.3       1 095        -0.0074
     12 C13        23.0970   35.7660   41.4430 C.3       1 095        -0.0508
     13 C20        18.7550   33.1650   44.7010 C.3       1 095         0.0503
     14 C22        17.1130   34.6190   44.1460 C.3       1 095         0.0503
     15 C7         21.2490   37.3000   41.1690 C.3       1 095         0.0669
     16 C18        19.4500   35.4400   43.7570 C.3       1 095         0.0920
     17 C2         23.4080   37.0720   42.1390 C.3       1 095         0.0806
     18 N16        24.5160   37.1880   44.2130 N.am      1 095        -0.2200
     19 N10        21.8420   36.0220   40.6960 N.4       1 095         0.2381
     20 O15        22.2450   36.6700   44.2160 O.2       1 095        -0.3196
     21 O12        19.7650   37.9340   42.9680 O.2       1 095        -0.3641
     22 O21        17.5910   33.3060   43.9050 O.3       1 095        -0.3796
     23 O11        20.2140   35.7220   42.5890 O.3       1 095        -0.2692
     24 H          27.4697   38.1910   40.0722 H         1 095         0.0588
     25 H          28.5333   38.3133   42.2835 H         1 095         0.0799
     26 H          25.0583   37.6523   39.8582 H         1 095         0.0771
     27 H          27.2337   37.8055   44.3388 H         1 095         0.0591
     28 H          20.2445   33.5444   43.2597 H         1 095         0.0316
     29 H          20.6053   34.1394   44.9594 H         1 095         0.0316
     30 H          17.6685   36.5930   43.5982 H         1 095         0.0316
     31 H          17.8918   35.3472   42.3107 H         1 095         0.0316
     32 H          22.1545   38.8093   42.4254 H         1 095         0.0212
     33 H          22.8520   38.7164   40.8512 H         1 095         0.0212
     34 H          22.9862   34.9456   42.1520 H         1 095         0.0667
     35 H          23.9062   35.4569   40.7814 H         1 095         0.0667
     36 H          18.5273   33.4739   45.7212 H         1 095         0.0561
     37 H          19.0741   32.1229   44.6824 H         1 095         0.0561
     38 H          16.0755   34.7099   43.8245 H         1 095         0.0561
     39 H          17.1510   34.8469   45.2112 H         1 095         0.0561
     40 H          20.6724   37.7974   40.3891 H         1 095         0.1103
     41 H          19.6066   36.1064   44.6052 H         1 095         0.0651
     42 H          24.7181   37.1653   45.2125 H         1 095         0.2404
     43 H          21.1850   35.2583   40.8556 H         1 095         0.2023
     44 H          22.0427   36.0847   39.6979 H         1 095         0.2023
@<TRIPOS>BOND
     1    1    2 ar 
     2    3    1 ar 
     3    4    2 ar 
     4    5    3 ar 
     5    6    4 ar 
     6    5    6 ar 
     7   17    5 1  
     8   18    6 1  
     9   17    7 1  
    10    7   18 am 
    11    7   20 2  
    12    8   15 1  
    13    8   21 2  
    14   23    8 1  
    15    9   13 1  
    16   16    9 1  
    17   10   14 1  
    18   16   10 1  
    19   15   11 1  
    20   11   17 1  
    21   12   17 1  
    22   19   12 1  
    23   13   22 1  
    24   14   22 1  
    25   15   19 1  
    26   16   23 1  
    27    1   24 1  
    28    2   25 1  
    29    3   26 1  
    30    4   27 1  
    31    9   28 1  
    32    9   29 1  
    33   10   30 1  
    34   10   31 1  
    35   11   32 1  
    36   11   33 1  
    37   12   34 1  
    38   12   35 1  
    39   13   36 1  
    40   13   37 1  
    41   14   38 1  
    42   14   39 1  
    43   15   40 1  
    44   16   41 1  
    45   18   42 1  
    46   19   43 1  
    47   19   44 1  
@<TRIPOS>SUBSTRUCTURE
     1 095         1

