### 
### Created by X-TOOL on Mon Sep 10 21:13:09 2018
### 

@<TRIPOS>MOLECULE
3udm_ligand
   43    46     1     0     0
SMALL
GAST_HUCK


@<TRIPOS>ATOM
      1 C22        16.8290   41.7660   43.1790 C.ar      1 09A        -0.0687
      2 C5         26.5550   37.4100   40.1960 C.ar      1 09A        -0.0486
      3 C21        17.3590   41.0580   44.2530 C.ar      1 09A        -0.0685
      4 C23        16.6240   41.1110   41.9540 C.ar      1 09A        -0.0685
      5 C8         27.0940   37.5700   41.4730 C.ar      1 09A        -0.0475
      6 C3         25.2340   36.9890   40.0620 C.ar      1 09A        -0.0552
      7 C20        17.7450   39.7210   44.0880 C.ar      1 09A        -0.0578
      8 C24        16.9880   39.7670   41.7980 C.ar      1 09A        -0.0578
      9 C6         26.3380   37.3120   42.5990 C.ar      1 09A        -0.0098
     10 C1         24.4650   36.7690   41.1950 C.ar      1 09A        -0.0218
     11 C19        17.5490   39.0570   42.8720 C.ar      1 09A        -0.0128
     12 C17        25.0190   36.9060   42.4660 C.ar      1 09A         0.0939
     13 C14        23.0040   36.1210   42.7310 C.2       1 09A         0.2146
     14 C9         19.8050   36.4910   41.2360 C.2       1 09A         0.2836
     15 C4         22.0600   37.4630   40.9000 C.3       1 09A        -0.0074
     16 C13        22.7270   35.1310   40.4290 C.3       1 09A        -0.0508
     17 C7         20.9150   36.7330   40.2390 C.3       1 09A         0.0671
     18 C2         23.0460   36.3690   41.2550 C.3       1 09A         0.0806
     19 C18        18.0070   37.6090   42.6950 C.3       1 09A         0.1110
     20 N16        24.0630   36.6240   43.3840 N.am      1 09A        -0.2200
     21 N10        21.5010   35.4910   39.7780 N.4       1 09A         0.2381
     22 O15        21.8840   36.1080   43.3340 O.2       1 09A        -0.3196
     23 O12        19.3780   35.3660   41.4160 O.2       1 09A        -0.3639
     24 O11        19.1120   37.6330   41.7830 O.3       1 09A        -0.2594
     25 H1         16.5764   42.8146   43.2870 H         1 09A         0.0559
     26 H2         27.1577   37.6111   39.3177 H         1 09A         0.0588
     27 H3         17.4733   41.5404   45.2170 H         1 09A         0.0599
     28 H4         16.1812   41.6487   41.1235 H         1 09A         0.0599
     29 H5         28.1203   37.9014   41.5825 H         1 09A         0.0799
     30 H6         24.8091   36.8341   39.0769 H         1 09A         0.0771
     31 H7         18.2030   39.1924   44.9162 H         1 09A         0.0557
     32 H8         16.8360   39.2735   40.8449 H         1 09A         0.0557
     33 H9         26.7745   37.4266   43.5846 H         1 09A         0.0591
     34 H10        21.7176   37.9874   41.8043 H         1 09A         0.0212
     35 H11        22.5135   38.1862   40.2062 H         1 09A         0.0212
     36 H12        22.5898   34.2496   41.0727 H         1 09A         0.0667
     37 H13        23.5209   34.9290   39.6949 H         1 09A         0.0667
     38 H14        20.5217   37.3112   39.3899 H         1 09A         0.1103
     39 H15        17.1887   37.0007   42.2824 H         1 09A         0.0778
     40 H16        18.3232   37.1909   43.6620 H         1 09A         0.0778
     41 H17        24.1339   36.7654   44.3714 H         1 09A         0.2404
     42 H18        20.8336   34.7518   39.9336 H         1 09A         0.2023
     43 H19        21.6830   35.5769   38.7903 H         1 09A         0.2023
@<TRIPOS>BOND
     1    3    1 ar 
     2    4    1 ar 
     3    2    5 ar 
     4    6    2 ar 
     5    7    3 ar 
     6    8    4 ar 
     7    9    5 ar 
     8   10    6 ar 
     9   11    7 ar 
    10   11    8 ar 
    11   12    9 ar 
    12   10   12 ar 
    13   18   10 1  
    14   19   11 1  
    15   20   12 1  
    16   18   13 1  
    17   13   20 am 
    18   13   22 2  
    19   14   17 1  
    20   14   23 2  
    21   24   14 1  
    22   17   15 1  
    23   15   18 1  
    24   16   18 1  
    25   21   16 1  
    26   17   21 1  
    27   19   24 1  
    28    1   25 1  
    29    2   26 1  
    30    3   27 1  
    31    4   28 1  
    32    5   29 1  
    33    6   30 1  
    34    7   31 1  
    35    8   32 1  
    36    9   33 1  
    37   15   34 1  
    38   15   35 1  
    39   16   36 1  
    40   16   37 1  
    41   17   38 1  
    42   19   39 1  
    43   19   40 1  
    44   20   41 1  
    45   21   42 1  
    46   21   43 1  
@<TRIPOS>SUBSTRUCTURE
     1 09A         1

