### 
### Created by X-TOOL on Mon Sep 10 21:13:10 2018
### 

@<TRIPOS>MOLECULE
3udn_ligand
   44    47     1     0     0
SMALL
GAST_HUCK


@<TRIPOS>ATOM
      1 C4         16.8260   42.3710   44.1840 C.1       1 09B         0.0934
      2 C13        26.3510   37.1110   39.9060 C.ar      1 09B        -0.0486
      3 C14        26.9520   37.2090   41.1520 C.ar      1 09B        -0.0475
      4 C2         17.0520   40.8010   42.3300 C.ar      1 09B        -0.0333
      5 C3         17.3730   40.1040   44.6080 C.ar      1 09B        -0.0333
      6 C12        25.0090   36.8120   39.7890 C.ar      1 09B        -0.0552
      7 C5         17.3300   39.5070   41.9110 C.ar      1 09B        -0.0461
      8 C6         17.6430   38.8220   44.1930 C.ar      1 09B        -0.0461
      9 C15        26.2310   36.9790   42.3050 C.ar      1 09B        -0.0098
     10 C1         17.0890   41.0830   43.6860 C.ar      1 09B         0.0883
     11 C11        24.3050   36.5920   40.9540 C.ar      1 09B        -0.0218
     12 C8         17.6190   38.5250   42.8500 C.ar      1 09B        -0.0034
     13 C10        24.9000   36.6690   42.1740 C.ar      1 09B         0.0939
     14 C18        22.7700   36.0650   42.6110 C.2       1 09B         0.2146
     15 C24        19.6010   36.2810   41.0590 C.2       1 09B         0.2838
     16 C21        21.9480   37.3250   40.6960 C.3       1 09B        -0.0074
     17 C20        22.5530   34.9610   40.3800 C.3       1 09B        -0.0508
     18 C22        20.7550   36.5770   40.1320 C.3       1 09B         0.0671
     19 C16        22.8910   36.2340   41.1150 C.3       1 09B         0.0806
     20 C9         17.9330   37.1350   42.4230 C.3       1 09B         0.1152
     21 N7         16.5770   43.4230   44.5940 N.1       1 09B        -0.3338
     22 N17        23.9750   36.3850   43.1770 N.am      1 09B        -0.2200
     23 N19        21.2730   35.2620   39.6860 N.4       1 09B         0.2381
     24 O23        21.7500   35.7170   43.1920 O.2       1 09B        -0.3196
     25 O25        19.1750   35.1550   41.2350 O.2       1 09B        -0.3639
     26 O26        19.0900   37.3760   41.6270 O.3       1 09B        -0.2576
     27 H1         26.9432   37.2714   39.0123 H         1 09B         0.0588
     28 H2         28.0019   37.4697   41.2206 H         1 09B         0.0799
     29 H3         16.8108   41.5752   41.6107 H         1 09B         0.0701
     30 H4         17.3840   40.3437   45.6651 H         1 09B         0.0701
     31 H5         24.5273   36.7524   38.8197 H         1 09B         0.0771
     32 H6         17.3216   39.2638   40.8547 H         1 09B         0.0584
     33 H7         17.8732   38.0504   44.9187 H         1 09B         0.0584
     34 H8         26.6990   37.0408   43.2808 H         1 09B         0.0591
     35 H9         21.6525   37.9400   41.5588 H         1 09B         0.0212
     36 H10        22.4068   37.9660   39.9288 H         1 09B         0.0212
     37 H11        22.4262   34.1265   41.0853 H         1 09B         0.0667
     38 H12        23.3399   34.7106   39.6534 H         1 09B         0.0667
     39 H13        20.3668   37.1488   39.2763 H         1 09B         0.1103
     40 H14        17.1159   36.6949   41.8326 H         1 09B         0.0799
     41 H15        18.1565   36.4848   43.2817 H         1 09B         0.0799
     42 H16        24.1625   36.4109   44.1589 H         1 09B         0.2404
     43 H17        20.5981   34.5456   39.9037 H         1 09B         0.2023
     44 H18        21.4297   35.2846   38.6905 H         1 09B         0.2023
@<TRIPOS>BOND
     1   10    1 1  
     2    1   21 3  
     3    2    3 ar 
     4    6    2 ar 
     5    9    3 ar 
     6    7    4 ar 
     7    4   10 ar 
     8    8    5 ar 
     9    5   10 ar 
    10   11    6 ar 
    11   12    7 ar 
    12   12    8 ar 
    13   13    9 ar 
    14   11   13 ar 
    15   19   11 1  
    16   20   12 1  
    17   22   13 1  
    18   19   14 1  
    19   14   22 am 
    20   14   24 2  
    21   15   18 1  
    22   15   25 2  
    23   26   15 1  
    24   18   16 1  
    25   16   19 1  
    26   17   19 1  
    27   23   17 1  
    28   18   23 1  
    29   20   26 1  
    30    2   27 1  
    31    3   28 1  
    32    4   29 1  
    33    5   30 1  
    34    6   31 1  
    35    7   32 1  
    36    8   33 1  
    37    9   34 1  
    38   16   35 1  
    39   16   36 1  
    40   17   37 1  
    41   17   38 1  
    42   18   39 1  
    43   20   40 1  
    44   20   41 1  
    45   22   42 1  
    46   23   43 1  
    47   23   44 1  
@<TRIPOS>SUBSTRUCTURE
     1 09B         1

