### 
### Created by X-TOOL on Mon Sep 10 21:13:10 2018
### 

@<TRIPOS>MOLECULE
3udp_ligand
   48    52     1     0     0
SMALL
GAST_HUCK


@<TRIPOS>ATOM
      1 C1         26.3070   37.6460   40.0520 C.ar      1 09D        -0.0486
      2 C2         26.8700   37.7740   41.3100 C.ar      1 09D        -0.0475
      3 C3         25.0310   37.1400   39.9050 C.ar      1 09D        -0.0552
      4 C4         26.1700   37.3990   42.4430 C.ar      1 09D        -0.0098
      5 C5         17.0550   39.3990   45.0130 C.ar      1 09D        -0.0534
      6 C6         16.7770   40.3370   44.0390 C.ar      1 09D        -0.0651
      7 C7         17.5240   38.7800   42.3940 C.ar      1 09D        -0.0537
      8 C8         24.3350   36.7850   41.0390 C.ar      1 09D        -0.0218
      9 C9         17.7910   37.8370   43.3600 C.ar      1 09D         0.0055
     10 C10        24.8940   36.9250   42.2720 C.ar      1 09D         0.0939
     11 C11        17.5600   38.1490   44.6920 C.ar      1 09D         0.0228
     12 C12        17.0120   40.0110   42.7220 C.ar      1 09D        -0.0009
     13 C13        22.8520   36.0300   42.6510 C.2       1 09D         0.2146
     14 C14        19.7640   35.9780   41.0520 C.2       1 09D         0.2837
     15 C15        18.9590   35.7260   43.9620 C.3       1 09D        -0.0020
     16 C16        21.8790   37.2890   40.8660 C.3       1 09D        -0.0074
     17 C17        22.6990   35.0290   40.3870 C.3       1 09D        -0.0508
     18 C18        17.9220   35.4870   45.0380 C.3       1 09D         0.0107
     19 C19        18.3570   36.5430   42.8420 C.3       1 09D         0.1216
     20 C20        20.8170   36.5110   40.1290 C.3       1 09D         0.0671
     21 C21        22.9530   36.2800   41.1750 C.3       1 09D         0.0806
     22 N22        24.0060   36.4810   43.2470 N.am      1 09D        -0.2200
     23 N23        21.5520   35.3660   39.5350 N.4       1 09D         0.2381
     24 O24        21.8650   35.5650   43.1960 O.2       1 09D        -0.3196
     25 O25        19.3100   34.8470   40.9720 O.2       1 09D        -0.3639
     26 O26        19.4130   36.9230   41.9530 O.3       1 09D        -0.2573
     27 S27        17.8530   36.9970   46.0290 S.3       1 09D        -0.1038
     28 BR2        16.6780   41.2460   41.3160 Br        1 09D        -0.0579
     29 H1         26.8718   37.9451   39.1764 H         1 09D         0.0588
     30 H2         27.8729   38.1734   41.4089 H         1 09D         0.0799
     31 H3         24.5883   37.0251   38.9222 H         1 09D         0.0771
     32 H4         26.6133   37.4768   43.4291 H         1 09D         0.0591
     33 H5         16.8741   39.6459   46.0529 H         1 09D         0.0553
     34 H6         16.3817   41.3105   44.3056 H         1 09D         0.0568
     35 H7         17.7217   38.5464   41.3541 H         1 09D         0.0564
     36 H8         19.3024   34.7594   43.5648 H         1 09D         0.0324
     37 H9         19.8128   36.2699   44.3923 H         1 09D         0.0324
     38 H10        21.4716   37.7171   41.7938 H         1 09D         0.0212
     39 H11        22.2767   38.0962   40.2334 H         1 09D         0.0212
     40 H12        22.4552   34.1899   41.0552 H         1 09D         0.0667
     41 H13        23.5756   34.7683   39.7757 H         1 09D         0.0667
     42 H14        18.2161   34.6333   45.6663 H         1 09D         0.0403
     43 H15        16.9411   35.2863   44.5825 H         1 09D         0.0403
     44 H16        17.5836   35.9604   42.3201 H         1 09D         0.0800
     45 H17        20.3496   37.1335   39.3519 H         1 09D         0.1103
     46 H18        24.1807   36.4888   44.2316 H         1 09D         0.2404
     47 H19        20.9373   34.5700   39.4680 H         1 09D         0.2023
     48 H20        21.8785   35.6168   38.6149 H         1 09D         0.2023
@<TRIPOS>BOND
     1    1    2 ar 
     2    3    1 ar 
     3    4    2 ar 
     4    8    3 ar 
     5   10    4 ar 
     6    5    6 ar 
     7   11    5 ar 
     8   12    6 ar 
     9    9    7 ar 
    10    7   12 ar 
    11    8   10 ar 
    12   21    8 1  
    13    9   11 ar 
    14   19    9 1  
    15   22   10 1  
    16   11   27 1  
    17   12   28 1  
    18   21   13 1  
    19   13   22 am 
    20   13   24 2  
    21   14   20 1  
    22   14   25 2  
    23   26   14 1  
    24   15   18 1  
    25   19   15 1  
    26   20   16 1  
    27   16   21 1  
    28   21   17 1  
    29   17   23 1  
    30   18   27 1  
    31   19   26 1  
    32   20   23 1  
    33    1   29 1  
    34    2   30 1  
    35    3   31 1  
    36    4   32 1  
    37    5   33 1  
    38    6   34 1  
    39    7   35 1  
    40   15   36 1  
    41   15   37 1  
    42   16   38 1  
    43   16   39 1  
    44   17   40 1  
    45   17   41 1  
    46   18   42 1  
    47   18   43 1  
    48   19   44 1  
    49   20   45 1  
    50   22   46 1  
    51   23   47 1  
    52   23   48 1  
@<TRIPOS>SUBSTRUCTURE
     1 09D         1

