### 
### Created by X-TOOL on Mon Sep 10 21:13:08 2018
### 

@<TRIPOS>MOLECULE
3udq_ligand
   50    54     1     0     0
SMALL
GAST_HUCK


@<TRIPOS>ATOM
      1 C1         24.3670   37.4750   41.4680 C.ar      1 09E        -0.0218
      2 C2         22.9980   36.9410   41.8140 C.3       1 09E         0.0806
      3 C3         24.9240   37.8430   40.2350 C.ar      1 09E        -0.0552
      4 C4         21.8760   37.9320   41.4500 C.3       1 09E        -0.0074
      5 C5         26.2620   38.2890   40.2370 C.ar      1 09E        -0.0486
      6 C6         26.4660   38.0000   42.6660 C.ar      1 09E        -0.0098
      7 C7         20.8790   37.0920   40.6400 C.3       1 09E         0.0671
      8 C8         27.0260   38.3350   41.4180 C.ar      1 09E        -0.0475
      9 C9         19.7090   36.5690   41.5090 C.2       1 09E         0.2838
     10 N1         21.6010   35.8980   40.1160 N.4       1 09E         0.2381
     11 O1         19.1400   35.4790   41.4360 O.2       1 09E        -0.3639
     12 C10        22.6360   35.5840   41.1250 C.3       1 09E        -0.0508
     13 C11        23.0890   36.7320   43.3520 C.2       1 09E         0.2146
     14 O2         22.2250   36.3400   44.1200 O.2       1 09E        -0.3196
     15 N2         24.3660   37.1350   43.7750 N.am      1 09E        -0.2200
     16 C12        25.1380   37.5710   42.6740 C.ar      1 09E         0.0939
     17 C13        18.2430   37.2200   43.2990 C.3       1 09E         0.1255
     18 C14        18.8670   36.3770   44.4610 C.3       1 09E         0.0078
     19 O3         19.3020   37.5150   42.4110 O.3       1 09E        -0.2559
     20 C15        17.8140   36.1880   45.5430 C.3       1 09E         0.0747
     21 S1         17.5350   37.6430   46.3770 S.o2      1 09E        -0.0039
     22 C16        17.3980   38.8030   45.1300 C.ar      1 09E         0.0950
     23 C17        17.6980   38.5690   43.7420 C.ar      1 09E         0.0178
     24 C18        17.4980   39.5700   42.7630 C.ar      1 09E        -0.0461
     25 C19        17.0010   40.7980   43.1610 C.ar      1 09E         0.0065
     26 C20        16.6950   41.0910   44.5120 C.ar      1 09E        -0.0573
     27 C21        16.8740   40.0980   45.4850 C.ar      1 09E        -0.0408
     28 BR1        16.7100   42.1160   41.8080 Br        1 09E        -0.0517
     29 O4         16.2540   37.5430   46.9760 O.2       1 09E        -0.1700
     30 O5         18.6700   37.8890   47.1990 O.2       1 09E        -0.1700
     31 H          24.3464   37.7867   39.3124 H         1 09E         0.0771
     32 H          22.2491   38.7857   40.8843 H         1 09E         0.0212
     33 H          21.4171   38.3760   42.3334 H         1 09E         0.0212
     34 H          26.7166   38.6066   39.2986 H         1 09E         0.0588
     35 H          27.0452   38.0727   43.5865 H         1 09E         0.0591
     36 H          20.4740   37.7252   39.8507 H         1 09E         0.1103
     37 H          28.0723   38.6360   41.3657 H         1 09E         0.0799
     38 H          22.0152   36.0840   39.2026 H         1 09E         0.2023
     39 H          20.9672   35.1114   39.9750 H         1 09E         0.2023
     40 H          22.2696   34.8592   41.8520 H         1 09E         0.0667
     41 H          23.5129   35.1319   40.6615 H         1 09E         0.0667
     42 H          24.6911   37.1158   44.7416 H         1 09E         0.2404
     43 H          17.4217   36.6405   42.8775 H         1 09E         0.0816
     44 H          19.7329   36.8957   44.8723 H         1 09E         0.0332
     45 H          19.1899   35.4067   44.0837 H         1 09E         0.0332
     46 H          18.1693   35.4399   46.2516 H         1 09E         0.0506
     47 H          16.8832   35.8679   45.0747 H         1 09E         0.0506
     48 H          17.7309   39.3776   41.7157 H         1 09E         0.0585
     49 H          16.3246   42.0771   44.7921 H         1 09E         0.0586
     50 H          16.6138   40.3076   46.5225 H         1 09E         0.0625
@<TRIPOS>BOND
     1    2    1 1  
     2    1    3 ar 
     3    1   16 ar 
     4    4    2 1  
     5   12    2 1  
     6    2   13 1  
     7    3    5 ar 
     8    7    4 1  
     9    5    8 ar 
    10    6    8 ar 
    11   16    6 ar 
    12    9    7 1  
    13    7   10 1  
    14    9   11 2  
    15   19    9 1  
    16   10   12 1  
    17   13   14 2  
    18   13   15 am 
    19   15   16 1  
    20   17   18 1  
    21   17   19 1  
    22   17   23 1  
    23   18   20 1  
    24   20   21 1  
    25   21   22 1  
    26   21   29 2  
    27   21   30 2  
    28   22   23 ar 
    29   22   27 ar 
    30   23   24 ar 
    31   24   25 ar 
    32   25   26 ar 
    33   25   28 1  
    34   26   27 ar 
    35    3   31 1  
    36    4   32 1  
    37    4   33 1  
    38    5   34 1  
    39    6   35 1  
    40    7   36 1  
    41    8   37 1  
    42   10   38 1  
    43   10   39 1  
    44   12   40 1  
    45   12   41 1  
    46   15   42 1  
    47   17   43 1  
    48   18   44 1  
    49   18   45 1  
    50   20   46 1  
    51   20   47 1  
    52   24   48 1  
    53   26   49 1  
    54   27   50 1  
@<TRIPOS>SUBSTRUCTURE
     1 09E         1

