### 
### Created by X-TOOL on Mon Sep 10 21:13:09 2018
### 

@<TRIPOS>MOLECULE
3udr_ligand
   47    50     1     0     0
SMALL
GAST_HUCK


@<TRIPOS>ATOM
      1 C24        18.9520   35.7220   44.0700 C.1       1 09F         0.1304
      2 C5         26.4590   37.3340   40.2500 C.ar      1 09F        -0.0486
      3 C8         27.0140   37.4920   41.5090 C.ar      1 09F        -0.0475
      4 C3         25.1400   36.9470   40.1040 C.ar      1 09F        -0.0552
      5 C6         26.2860   37.2380   42.6470 C.ar      1 09F        -0.0098
      6 C1         24.4040   36.7220   41.2430 C.ar      1 09F        -0.0218
      7 C17        24.9800   36.8650   42.4760 C.ar      1 09F         0.0939
      8 C14        22.8550   36.2630   42.8980 C.2       1 09F         0.2146
      9 C9         19.8280   36.5230   41.5710 C.2       1 09F         0.2841
     10 C21        16.6880   32.9840   43.8880 C.3       1 09F        -0.0527
     11 C20        18.1270   32.8880   44.3350 C.3       1 09F        -0.0480
     12 C22        16.3240   34.3930   43.5000 C.3       1 09F        -0.0480
     13 C19        19.0430   33.4470   43.2650 C.3       1 09F         0.0054
     14 C23        17.2640   34.9710   42.4650 C.3       1 09F         0.0054
     15 C4         22.0230   37.4260   40.9120 C.3       1 09F        -0.0074
     16 C13        22.5960   35.0740   40.6400 C.3       1 09F        -0.0508
     17 C7         20.7970   36.6940   40.4220 C.3       1 09F         0.0670
     18 C18        18.7100   34.8800   42.9040 C.3       1 09F         0.2181
     19 C2         22.9760   36.3520   41.3810 C.3       1 09F         0.0806
     20 N25        19.1480   36.3740   45.0110 N.1       1 09F        -0.3001
     21 N16        24.0700   36.5880   43.4650 N.am      1 09F        -0.2200
     22 N10        21.3330   35.3910   39.9090 N.4       1 09F         0.2381
     23 O15        21.8390   35.9830   43.5300 O.2       1 09F        -0.3196
     24 O12        19.2240   37.4530   42.1000 O.2       1 09F        -0.3640
     25 O11        19.5900   35.2060   41.7890 O.3       1 09F        -0.2377
     26 H          27.0686   37.5167   39.3651 H         1 09F         0.0588
     27 H          28.0482   37.8242   41.5993 H         1 09F         0.0799
     28 H          24.6970   36.8240   39.1157 H         1 09F         0.0771
     29 H          26.7280   37.3293   43.6392 H         1 09F         0.0591
     30 H          16.0480   32.6772   44.7153 H         1 09F         0.0265
     31 H          16.5526   32.3404   43.0188 H         1 09F         0.0265
     32 H          18.3782   31.8419   44.5102 H         1 09F         0.0267
     33 H          18.2558   33.4627   45.2522 H         1 09F         0.0267
     34 H          16.3853   35.0141   44.3937 H         1 09F         0.0267
     35 H          15.3220   34.3752   43.0712 H         1 09F         0.0267
     36 H          18.9225   32.8385   42.3687 H         1 09F         0.0318
     37 H          20.0620   33.4264   43.6514 H         1 09F         0.0318
     38 H          17.0143   36.0228   42.3254 H         1 09F         0.0318
     39 H          17.1498   34.4012   41.5429 H         1 09F         0.0318
     40 H          21.7781   38.1205   41.7157 H         1 09F         0.0212
     41 H          22.4654   38.0351   40.1237 H         1 09F         0.0212
     42 H          22.4580   34.2410   41.3293 H         1 09F         0.0667
     43 H          23.3844   34.7624   39.9548 H         1 09F         0.0667
     44 H          20.2415   37.2160   39.6429 H         1 09F         0.1103
     45 H          24.2624   36.6178   44.4662 H         1 09F         0.2404
     46 H          20.6486   34.6501   40.0610 H         1 09F         0.2023
     47 H          21.5193   35.4620   38.9087 H         1 09F         0.2023
@<TRIPOS>BOND
     1   18    1 1  
     2    1   20 3  
     3    2    3 ar 
     4    4    2 ar 
     5    5    3 ar 
     6    6    4 ar 
     7    7    5 ar 
     8    6    7 ar 
     9   19    6 1  
    10   21    7 1  
    11   19    8 1  
    12    8   21 am 
    13    8   23 2  
    14    9   17 1  
    15    9   24 2  
    16   25    9 1  
    17   11   10 1  
    18   12   10 1  
    19   13   11 1  
    20   14   12 1  
    21   18   13 1  
    22   18   14 1  
    23   17   15 1  
    24   15   19 1  
    25   16   19 1  
    26   22   16 1  
    27   17   22 1  
    28   18   25 1  
    29    2   26 1  
    30    3   27 1  
    31    4   28 1  
    32    5   29 1  
    33   10   30 1  
    34   10   31 1  
    35   11   32 1  
    36   11   33 1  
    37   12   34 1  
    38   12   35 1  
    39   13   36 1  
    40   13   37 1  
    41   14   38 1  
    42   14   39 1  
    43   15   40 1  
    44   15   41 1  
    45   16   42 1  
    46   16   43 1  
    47   17   44 1  
    48   21   45 1  
    49   22   46 1  
    50   22   47 1  
@<TRIPOS>SUBSTRUCTURE
     1 09F         1

