### 
### Created by X-TOOL on Mon Sep 10 21:13:11 2018
### 

@<TRIPOS>MOLECULE
3udy_ligand
   44    47     1     0     0
SMALL
GAST_HUCK


@<TRIPOS>ATOM
      1 C25        16.6720   41.8470   44.8480 C.1       1 09G         0.0953
      2 C5         26.2630   37.4590   40.0800 C.ar      1 09G        -0.0486
      3 C8         26.9080   37.6060   41.2970 C.ar      1 09G        -0.0475
      4 C23        17.3060   39.5440   45.3080 C.ar      1 09G        -0.0310
      5 C3         24.9570   37.0200   40.0250 C.ar      1 09G        -0.0552
      6 C24        17.6800   38.3010   44.8400 C.ar      1 09G        -0.0435
      7 C6         26.2750   37.2990   42.4820 C.ar      1 09G        -0.0098
      8 C20        17.3900   39.0300   42.6020 C.ar      1 09G        -0.0366
      9 C22        16.9620   40.5310   44.4130 C.ar      1 09G         0.0975
     10 C1         24.3290   36.7320   41.2160 C.ar      1 09G        -0.0218
     11 C19        17.7100   38.0370   43.4900 C.ar      1 09G        -0.0007
     12 C17        24.9740   36.8680   42.4090 C.ar      1 09G         0.0939
     13 C21        17.0210   40.2650   43.0690 C.ar      1 09G         0.0414
     14 C14        22.9380   36.0550   42.9320 C.2       1 09G         0.2146
     15 C9         19.7990   36.0520   41.4060 C.2       1 09G         0.2838
     16 C4         21.9020   37.2820   41.1000 C.3       1 09G        -0.0074
     17 C13        22.6180   34.9930   40.6820 C.3       1 09G        -0.0508
     18 C7         20.8200   36.5010   40.4060 C.3       1 09G         0.0671
     19 C2         22.9520   36.2580   41.4390 C.3       1 09G         0.0806
     20 C18        18.1650   36.7360   42.9210 C.3       1 09G         0.1158
     21 N26        16.4020   42.9270   45.1840 N.1       1 09G        -0.3320
     22 N16        24.1440   36.4910   43.4520 N.am      1 09G        -0.2200
     23 N10        21.4370   35.2820   39.8790 N.4       1 09G         0.2381
     24 O15        21.9670   35.6240   43.5380 O.2       1 09G        -0.3196
     25 O12        19.5610   34.8800   41.6450 O.2       1 09G        -0.3639
     26 O11        19.1380   37.1120   41.9390 O.3       1 09G        -0.2576
     27 BR2        16.6260   41.6010   41.7980 Br        1 09G        -0.0409
     28 H          26.7931   37.6927   39.1567 H         1 09G         0.0588
     29 H          27.9348   37.9711   41.3178 H         1 09G         0.0799
     30 H          17.2832   39.7428   46.3795 H         1 09G         0.0708
     31 H          24.4400   36.9050   39.0723 H         1 09G         0.0771
     32 H          17.9549   37.5192   45.5480 H         1 09G         0.0606
     33 H          26.7873   37.3947   43.4393 H         1 09G         0.0591
     34 H          17.4286   38.8391   41.5295 H         1 09G         0.0612
     35 H          21.5299   37.7932   41.9878 H         1 09G         0.0212
     36 H          22.2979   38.0782   40.4696 H         1 09G         0.0212
     37 H          22.4269   34.1691   41.3695 H         1 09G         0.0667
     38 H          23.4517   34.6885   40.0493 H         1 09G         0.0667
     39 H          20.3589   37.1166   39.6336 H         1 09G         0.1103
     40 H          17.3439   36.1617   42.4920 H         1 09G         0.0799
     41 H          18.5784   36.0732   43.6812 H         1 09G         0.0799
     42 H          24.3831   36.5287   44.4429 H         1 09G         0.2404
     43 H          20.7788   34.5043   39.9270 H         1 09G         0.2023
     44 H          21.6983   35.4129   38.9018 H         1 09G         0.2023
@<TRIPOS>BOND
     1    9    1 1  
     2    1   21 3  
     3    2    3 ar 
     4    5    2 ar 
     5    7    3 ar 
     6    6    4 ar 
     7    4    9 ar 
     8   10    5 ar 
     9   11    6 ar 
    10   12    7 ar 
    11   11    8 ar 
    12    8   13 ar 
    13   13    9 ar 
    14   10   12 ar 
    15   19   10 1  
    16   20   11 1  
    17   22   12 1  
    18   13   27 1  
    19   19   14 1  
    20   14   22 am 
    21   14   24 2  
    22   15   18 1  
    23   15   25 2  
    24   26   15 1  
    25   18   16 1  
    26   16   19 1  
    27   17   19 1  
    28   23   17 1  
    29   18   23 1  
    30   20   26 1  
    31    2   28 1  
    32    3   29 1  
    33    4   30 1  
    34    5   31 1  
    35    6   32 1  
    36    7   33 1  
    37    8   34 1  
    38   16   35 1  
    39   16   36 1  
    40   17   37 1  
    41   17   38 1  
    42   18   39 1  
    43   20   40 1  
    44   20   41 1  
    45   22   42 1  
    46   23   43 1  
    47   23   44 1  
@<TRIPOS>SUBSTRUCTURE
     1 09G         1

