### 
### Created by X-TOOL on Mon Sep 10 21:13:10 2018
### 

@<TRIPOS>MOLECULE
3ue4_ligand
   67    70     1     0     0
SMALL
GAST_HUCK


@<TRIPOS>ATOM
      1 CAA        -2.4390   15.8230  -52.6150 C.3       1 DB8         0.0581
      2 O02        -0.7230   17.7490  -43.8250 O.3       1 DB8        -0.3228
      3 CAC        -0.2760   10.9670  -54.9260 C.3       1 DB8        -0.0290
      4 NAD        -2.8950   14.2390  -44.0700 N.1       1 DB8        -0.3470
      5 CL1        -3.2890   18.8070  -42.4990 Cl        1 DB8        -0.0883
      6 CL2        -5.8900   16.3750  -46.8020 Cl        1 DB8        -0.0884
      7 CAG        -2.5320   13.8910  -45.0810 C.1       1 DB8         0.0848
      8 CAH        -1.3020   12.1440  -46.5160 C.ar      1 DB8         0.0167
      9 CAI        -4.4780   17.5620  -44.6880 C.ar      1 DB8        -0.0510
     10 CAJ        -1.8260   16.6460  -45.7600 C.ar      1 DB8        -0.0078
     11 CAK        -0.5380   11.8080  -50.3050 C.ar      1 DB8        -0.0186
     12 CAL        -2.0290   14.4420  -50.2560 C.ar      1 DB8        -0.0192
     13 CAM         0.7430   10.3250  -53.9950 C.3       1 DB8         0.0154
     14 CAN         0.7360   11.0740  -52.6630 C.3       1 DB8         0.0758
     15 CAO        -0.7980    7.5090  -59.0390 C.3       1 DB8        -0.0427
     16 CAP        -1.3080   10.3190  -57.2360 C.3       1 DB8         0.0094
     17 CAQ         0.3100    8.9150  -56.1780 C.3       1 DB8         0.0094
     18 CAR        -0.7130    9.9490  -58.6050 C.3       1 DB8         0.0092
     19 CAS         0.9210    8.5590  -57.4940 C.3       1 DB8         0.0092
     20 NAT        -0.8210   11.6400  -47.7690 N.ar      1 DB8        -0.3220
     21 NAU        -3.0370   15.5280  -47.7040 N.pl3     1 DB8        -0.2555
     22 OAV        -1.7680   14.6040  -52.6880 O.3       1 DB8        -0.3205
     23 OAW        -0.2860   12.0260  -52.7280 O.3       1 DB8        -0.3133
     24 CAX        -1.8860   17.4360  -44.4920 C.ar      1 DB8         0.0967
     25 CAY        -3.2170   17.8930  -43.9630 C.ar      1 DB8         0.0570
     26 CAZ        -4.4280   16.7700  -45.9530 C.ar      1 DB8         0.0530
     27 CBA        -2.0470   13.4380  -46.4190 C.ar      1 DB8         0.1345
     28 CBB        -3.0980   16.3140  -46.4880 C.ar      1 DB8         0.0731
     29 CBC        -1.5230   13.8770  -51.5450 C.ar      1 DB8         0.1307
     30 CBD        -0.7800   12.5830  -51.5560 C.ar      1 DB8         0.1315
     31 CBE        -2.3230   14.2440  -47.6770 C.ar      1 DB8         0.1193
     32 CBF        -1.0450   12.3590  -48.9920 C.ar      1 DB8         0.0210
     33 CBG        -1.7920   13.6770  -48.9890 C.ar      1 DB8         0.0290
     34 NBH        -0.2430   10.2440  -56.2370 N.4       1 DB8         0.2428
     35 NBI        -0.0790    8.6600  -58.5140 N.4       1 DB8         0.2405
     36 C01         0.3580   16.8780  -43.8610 C.3       1 DB8         0.0595
     37 H1         -2.5377   16.2482  -53.6247 H         1 DB8         0.0575
     38 H2         -1.8703   16.5171  -51.9788 H         1 DB8         0.0575
     39 H3         -3.4388   15.6660  -52.1840 H         1 DB8         0.0575
     40 H4         -0.0225   12.0262  -55.0799 H         1 DB8         0.0815
     41 H5         -1.2810   10.8908  -54.4854 H         1 DB8         0.0815
     42 H6         -1.1209   11.5715  -45.6135 H         1 DB8         0.0842
     43 H7         -5.4317   17.8968  -44.2961 H         1 DB8         0.0576
     44 H8         -0.8710   16.3148  -46.1517 H         1 DB8         0.0462
     45 H9         -0.0065   10.8638  -50.3369 H         1 DB8         0.0495
     46 H10        -2.5578   15.3881  -50.2383 H         1 DB8         0.0544
     47 H11         1.7443   10.3837  -54.4465 H         1 DB8         0.0343
     48 H12         0.4775    9.2708  -53.8273 H         1 DB8         0.0343
     49 H13         1.7044   11.5713  -52.5054 H         1 DB8         0.0617
     50 H14         0.5453   10.3725  -51.8374 H         1 DB8         0.0617
     51 H15        -1.5096    7.8413  -59.8092 H         1 DB8         0.0778
     52 H16        -1.3454    7.0150  -58.2227 H         1 DB8         0.0778
     53 H17        -0.0826    6.8006  -59.4820 H         1 DB8         0.0778
     54 H18        -2.1114    9.6138  -56.9767 H         1 DB8         0.0868
     55 H19        -1.7140   11.3407  -57.2708 H         1 DB8         0.0868
     56 H20         1.0817    8.8757  -55.3951 H         1 DB8         0.0868
     57 H21        -0.4895    8.1976  -55.9412 H         1 DB8         0.0868
     58 H22         0.0305   10.7044  -58.8991 H         1 DB8         0.0868
     59 H23        -1.5152    9.9119  -59.3567 H         1 DB8         0.0868
     60 H24         1.3060    7.5293  -57.4555 H         1 DB8         0.0868
     61 H25         1.7464    9.2511  -57.7168 H         1 DB8         0.0868
     62 H26        -3.4848   15.8624  -48.5692 H         1 DB8         0.2218
     63 H27         0.4856   10.7621  -56.7026 H         1 DB8         0.2038
     64 H28         0.5525    8.7603  -59.2932 H         1 DB8         0.2035
     65 H29         1.1875   17.2987  -43.2738 H         1 DB8         0.0578
     66 H30         0.6809   16.7372  -44.9031 H         1 DB8         0.0578
     67 H31         0.0619   15.9082  -43.4346 H         1 DB8         0.0578
@<TRIPOS>BOND
     1   22    1 1  
     2   24    2 1  
     3    2   36 1  
     4   13    3 1  
     5    3   34 1  
     6    7    4 3  
     7   25    5 1  
     8   26    6 1  
     9   27    7 1  
    10   20    8 ar 
    11    8   27 ar 
    12    9   25 ar 
    13   26    9 ar 
    14   10   24 ar 
    15   28   10 ar 
    16   30   11 ar 
    17   11   32 ar 
    18   29   12 ar 
    19   12   33 ar 
    20   14   13 1  
    21   23   14 1  
    22   35   15 1  
    23   16   18 1  
    24   34   16 1  
    25   17   19 1  
    26   34   17 1  
    27   18   35 1  
    28   19   35 1  
    29   32   20 ar 
    30   21   28 1  
    31   31   21 1  
    32   29   22 1  
    33   30   23 1  
    34   24   25 ar 
    35   28   26 ar 
    36   27   31 ar 
    37   29   30 ar 
    38   31   33 ar 
    39   32   33 ar 
    40    1   37 1  
    41    1   38 1  
    42    1   39 1  
    43    3   40 1  
    44    3   41 1  
    45    8   42 1  
    46    9   43 1  
    47   10   44 1  
    48   11   45 1  
    49   12   46 1  
    50   13   47 1  
    51   13   48 1  
    52   14   49 1  
    53   14   50 1  
    54   15   51 1  
    55   15   52 1  
    56   15   53 1  
    57   16   54 1  
    58   16   55 1  
    59   17   56 1  
    60   17   57 1  
    61   18   58 1  
    62   18   59 1  
    63   19   60 1  
    64   19   61 1  
    65   21   62 1  
    66   34   63 1  
    67   35   64 1  
    68   36   65 1  
    69   36   66 1  
    70   36   67 1  
@<TRIPOS>SUBSTRUCTURE
     1 DB8         1

