### 
### Created by X-TOOL on Mon Sep 10 21:13:10 2018
### 

@<TRIPOS>MOLECULE
3uef_ligand
   83    82     1     0     0
SMALL
GAST_HUCK


@<TRIPOS>ATOM
      1 N         -61.5350  -75.4700   29.8300 N.4       1 ALA         0.2377
      2 CA        -60.6410  -74.7520   30.7720 C.3       1 ALA         0.0621
      3 C         -61.4520  -73.8370   31.6800 C.2       1 ALA         0.2264
      4 O         -62.6860  -73.6720   31.5110 O.2       1 ALA        -0.3907
      5 CB        -59.6060  -73.9410   30.0180 C.3       1 ALA        -0.0040
      6 N         -60.7500  -73.2440   32.6460 N.am      1 ARG        -0.2610
      7 CA        -61.4000  -72.3930   33.6230 C.3       1 ARG         0.1312
      8 C         -60.4540  -71.2910   34.0510 C.2       1 ARG         0.2040
      9 O         -59.2340  -71.4020   33.9430 O.2       1 ARG        -0.3944
     10 CB        -61.8260  -73.1950   34.8730 C.3       1 ARG        -0.0092
     11 CG        -60.7100  -74.0970   35.4000 C.3       1 ARG        -0.0156
     12 CD        -60.9180  -74.6090   36.8190 C.3       1 ARG         0.0627
     13 NE        -59.9090  -75.6290   37.1490 N.pl3     1 ARG        -0.2723
     14 CZ        -58.6290  -75.3730   37.4200 C.cat     1 ARG         0.2882
     15 NH1       -58.1790  -74.1230   37.4030 N.pl3     1 ARG        -0.2849
     16 NH2       -57.7850  -76.3680   37.6960 N.pl3     1 ARG        -0.2849
     17 N         -61.0540  -70.2620   34.6270 N.am      1 THR        -0.2613
     18 CA        -60.3400  -69.1090   35.1640 C.3       1 THR         0.1565
     19 C         -59.3370  -69.4280   36.3140 C.2       1 THR         0.2065
     20 O         -59.3600  -70.5210   36.8960 O.2       1 THR        -0.3943
     21 CB        -61.3710  -68.0440   35.5680 C.3       1 THR         0.0924
     22 OG1       -60.6970  -66.7980   35.6340 O.3       1 THR        -0.3874
     23 CG2       -62.1200  -68.4070   36.9210 C.3       1 THR        -0.0346
     24 N         -58.4560  -68.4760   36.6140 N.am      1 LYS        -0.2637
     25 CA        -57.3100  -68.6960   37.5340 C.3       1 LYS         0.1309
     26 C         -57.6060  -68.8310   39.0680 C.2       1 LYS         0.2033
     27 O         -58.4510  -68.1210   39.6120 O.2       1 LYS        -0.3944
     28 CB        -56.2810  -67.5650   37.3240 C.3       1 LYS        -0.0122
     29 CG        -54.8830  -67.9790   37.7260 C.3       1 LYS        -0.0440
     30 CD        -53.9360  -66.8350   37.9690 C.3       1 LYS        -0.0124
     31 CE        -52.6210  -67.4190   38.4760 C.3       1 LYS        -0.0354
     32 NZ        -51.5110  -66.4610   38.2430 N.4       1 LYS         0.2185
     33 N         -56.8740  -69.7330   39.7450 N.am      1 GLN        -0.2698
     34 CA        -56.8630  -69.8730   41.2290 C.3       1 GLN         0.0916
     35 C         -55.5780  -69.2950   41.8430 C.2       1 GLN         0.0598
     36 O         -55.4850  -68.1030   42.1550 O.co2     1 GLN        -0.5666
     37 CB        -56.9800  -71.3490   41.6480 C.3       1 GLN        -0.0300
     38 OXT       -54.5830  -69.9980   42.0510 O.co2     1 GLN        -0.5666
     39 H1        -60.9847  -76.0708   29.2365 H         1 ALA         0.2015
     40 H2        -62.0321  -74.8013   29.2628 H         1 ALA         0.2015
     41 H3        -62.1953  -76.0257   30.3508 H         1 ALA         0.2015
     42 H4        -60.1202  -75.4948   31.3941 H         1 ALA         0.1095
     43 H5        -58.9559  -73.4186   30.7353 H         1 ALA         0.0310
     44 H6        -60.1129  -73.2037   29.3781 H         1 ALA         0.0310
     45 H7        -58.9980  -74.6121   29.3935 H         1 ALA         0.0310
     46 H8        -59.7618  -73.3882   32.6972 H         1 ARG         0.1884
     47 H9        -62.2940  -71.9461   33.1637 H         1 ARG         0.0800
     48 H10       -62.6917  -73.8214   34.6118 H         1 ARG         0.0313
     49 H11       -62.1111  -72.4875   35.6655 H         1 ARG         0.0313
     50 H12       -59.7696  -73.5269   35.3766 H         1 ARG         0.0301
     51 H13       -60.6284  -74.9665   34.7312 H         1 ARG         0.0301
     52 H14       -61.9215  -75.0519   36.9012 H         1 ARG         0.0689
     53 H15       -60.8288  -73.7694   37.5241 H         1 ARG         0.0689
     54 H16       -60.2143  -76.6124   37.1722 H         1 ARG         0.2642
     55 H17       -57.1895  -73.9290   37.6129 H         1 ARG         0.2615
     56 H18       -58.8197  -73.3480   37.1799 H         1 ARG         0.2615
     57 H19       -58.1232  -77.3408   37.7118 H         1 ARG         0.2615
     58 H20       -56.7949  -76.1637   37.8933 H         1 ARG         0.2615
     59 H21       -62.0514  -70.2755   34.6981 H         1 THR         0.1884
     60 H22       -59.7402  -68.6926   34.3413 H         1 THR         0.0826
     61 H23       -62.1333  -67.9828   34.7774 H         1 THR         0.0639
     62 H24       -61.3130  -66.1188   35.8827 H         1 THR         0.2101
     63 H25       -62.8438  -67.6149   37.1633 H         1 THR         0.0257
     64 H26       -61.3853  -68.4937   37.7350 H         1 THR         0.0257
     65 H27       -62.6497  -69.3637   36.8017 H         1 THR         0.0257
     66 H28       -58.5706  -67.5722   36.2017 H         1 LYS         0.1883
     67 H29       -56.8450  -69.6440   37.2256 H         1 LYS         0.0800
     68 H30       -56.5808  -66.6971   37.9296 H         1 LYS         0.0312
     69 H31       -56.2749  -67.2853   36.2602 H         1 LYS         0.0312
     70 H32       -54.4662  -68.6046   36.9230 H         1 LYS         0.0269
     71 H33       -54.9528  -68.5690   38.6517 H         1 LYS         0.0269
     72 H34       -54.3579  -66.1533   38.7222 H         1 LYS         0.0317
     73 H35       -53.7647  -66.2852   37.0318 H         1 LYS         0.0317
     74 H36       -52.4098  -68.3568   37.9413 H         1 LYS         0.0813
     75 H37       -52.7052  -67.6223   39.5538 H         1 LYS         0.0813
     76 H38       -50.6484  -66.8575   38.5817 H         1 LYS         0.1994
     77 H39       -51.7008  -65.6010   38.7334 H         1 LYS         0.1994
     78 H40       -51.4301  -66.2741   37.2558 H         1 LYS         0.1994
     79 H41       -56.2960  -70.3539   39.2155 H         1 GLN         0.1875
     80 H42       -57.7252  -69.3211   41.6316 H         1 GLN         0.0723
     81 H43       -56.9692  -71.4205   42.7456 H         1 GLN         0.0270
     82 H44       -56.1323  -71.9156   41.2353 H         1 GLN         0.0270
     83 H45       -57.9221  -71.7660   41.2627 H         1 GLN         0.0270
@<TRIPOS>BOND
     1    1    2 1  
     2    2    3 1  
     3    2    5 1  
     4    3    4 2  
     5    3    6 am 
     6    6    7 1  
     7    7    8 1  
     8    7   10 1  
     9    8    9 2  
    10    8   17 am 
    11   10   11 1  
    12   11   12 1  
    13   12   13 1  
    14   13   14 ar 
    15   14   15 ar 
    16   14   16 ar 
    17   17   18 1  
    18   18   19 1  
    19   18   21 1  
    20   19   20 2  
    21   19   24 am 
    22   21   22 1  
    23   21   23 1  
    24   24   25 1  
    25   25   26 1  
    26   25   28 1  
    27   26   27 2  
    28   26   33 am 
    29   28   29 1  
    30   29   30 1  
    31   30   31 1  
    32   31   32 1  
    33   33   34 1  
    34   34   35 1  
    35   34   37 1  
    36   35   36 ar 
    37   35   38 ar 
    38    1   39 1  
    39    1   40 1  
    40    1   41 1  
    41    2   42 1  
    42    5   43 1  
    43    5   44 1  
    44    5   45 1  
    45    6   46 1  
    46    7   47 1  
    47   10   48 1  
    48   10   49 1  
    49   11   50 1  
    50   11   51 1  
    51   12   52 1  
    52   12   53 1  
    53   13   54 1  
    54   15   55 1  
    55   15   56 1  
    56   16   57 1  
    57   16   58 1  
    58   17   59 1  
    59   18   60 1  
    60   21   61 1  
    61   22   62 1  
    62   23   63 1  
    63   23   64 1  
    64   23   65 1  
    65   24   66 1  
    66   25   67 1  
    67   28   68 1  
    68   28   69 1  
    69   29   70 1  
    70   29   71 1  
    71   30   72 1  
    72   30   73 1  
    73   31   74 1  
    74   31   75 1  
    75   32   76 1  
    76   32   77 1  
    77   32   78 1  
    78   33   79 1  
    79   34   80 1  
    80   37   81 1  
    81   37   82 1  
    82   37   83 1  
@<TRIPOS>SUBSTRUCTURE
     1 ALA         1

