### 
### Created by X-TOOL on Mon Sep 10 21:13:08 2018
### 

@<TRIPOS>MOLECULE
3uex_ligand
   55    54     1     0     0
SMALL
GAST_HUCK


@<TRIPOS>ATOM
      1 C1         -0.7930    2.2250   21.0740 C.2       1 STE         0.0348
      2 O1         -1.9940    1.8610   21.1150 O.co2     1 STE        -0.5690
      3 O2          0.1080    1.7000   21.7640 O.co2     1 STE        -0.5690
      4 C2         -0.4340    3.3740   20.1690 C.3       1 STE         0.0002
      5 C3         -0.8990    4.6780   20.8120 C.3       1 STE        -0.0414
      6 C4         -2.0370    5.3190   20.0220 C.3       1 STE        -0.0516
      7 C5         -3.0720    5.9520   20.9370 C.3       1 STE        -0.0530
      8 C6         -4.0720    6.8100   20.1700 C.3       1 STE        -0.0531
      9 C7         -3.3440    7.8860   19.3750 C.3       1 STE        -0.0531
     10 C8         -4.1370    9.1690   19.3320 C.3       1 STE        -0.0531
     11 C9         -3.1970   10.2980   18.9430 C.3       1 STE        -0.0531
     12 C10        -4.0170   11.5370   18.6110 C.3       1 STE        -0.0531
     13 C11        -3.0960   12.7230   18.8150 C.3       1 STE        -0.0531
     14 C12        -3.8460   13.9770   18.4280 C.3       1 STE        -0.0531
     15 C13        -2.8480   15.0820   18.2380 C.3       1 STE        -0.0531
     16 C14        -3.5330   16.4330   18.1320 C.3       1 STE        -0.0531
     17 C15        -3.7780   16.8230   16.6750 C.3       1 STE        -0.0531
     18 C16        -4.5050   18.1520   16.6760 C.3       1 STE        -0.0533
     19 C17        -4.6580   18.7330   15.2940 C.3       1 STE        -0.0559
     20 C18        -4.8030   17.6680   14.2280 C.3       1 STE        -0.0653
     21 H1         -0.9300    3.2456   19.1956 H         1 STE         0.0430
     22 H2          0.6560    3.4026   20.0242 H         1 STE         0.0430
     23 H3         -0.0521    5.3789   20.8506 H         1 STE         0.0283
     24 H4         -1.2479    4.4677   21.8338 H         1 STE         0.0283
     25 H5         -2.5266    4.5458   19.4117 H         1 STE         0.0266
     26 H6         -1.6204    6.0961   19.3643 H         1 STE         0.0266
     27 H7         -2.5543    6.5844   21.6732 H         1 STE         0.0265
     28 H8         -3.6185    5.1531   21.4596 H         1 STE         0.0265
     29 H9         -4.7610    7.2883   20.8817 H         1 STE         0.0265
     30 H10        -4.6429    6.1721   19.4792 H         1 STE         0.0265
     31 H11        -3.1874    7.5273   18.3470 H         1 STE         0.0265
     32 H12        -2.3701    8.0827   19.8471 H         1 STE         0.0265
     33 H13        -4.5714    9.3712   20.3222 H         1 STE         0.0265
     34 H14        -4.9431    9.0833   18.5885 H         1 STE         0.0265
     35 H15        -2.6075   10.0000   18.0634 H         1 STE         0.0265
     36 H16        -2.5194   10.5185   19.7810 H         1 STE         0.0265
     37 H17        -4.8860   11.6097   19.2815 H         1 STE         0.0265
     38 H18        -4.3616   11.4974   17.5671 H         1 STE         0.0265
     39 H19        -2.2027   12.6136   18.1826 H         1 STE         0.0265
     40 H20        -2.7929   12.7816   19.8708 H         1 STE         0.0265
     41 H21        -4.5541   14.2481   19.2249 H         1 STE         0.0265
     42 H22        -4.3962   13.8073   17.4907 H         1 STE         0.0265
     43 H23        -2.2787   14.8958   17.3154 H         1 STE         0.0265
     44 H24        -2.1606   15.0954   19.0967 H         1 STE         0.0265
     45 H25        -2.8955   17.1952   18.6038 H         1 STE         0.0265
     46 H26        -4.4986   16.3865   18.6569 H         1 STE         0.0265
     47 H27        -4.3943   16.0581   16.1799 H         1 STE         0.0265
     48 H28        -2.8187   16.9201   16.1457 H         1 STE         0.0265
     49 H29        -3.9382   18.8626   17.2955 H         1 STE         0.0265
     50 H30        -5.5056   18.0053   17.1086 H         1 STE         0.0265
     51 H31        -3.7695   19.3403   15.0667 H         1 STE         0.0263
     52 H32        -5.5531   19.3721   15.2775 H         1 STE         0.0263
     53 H33        -4.9108   18.1469   13.2436 H         1 STE         0.0230
     54 H34        -5.6936   17.0576   14.4383 H         1 STE         0.0230
     55 H35        -3.9100   17.0258   14.2274 H         1 STE         0.0230
@<TRIPOS>BOND
     1    1    2 ar 
     2    1    3 ar 
     3    1    4 1  
     4    4    5 1  
     5    5    6 1  
     6    6    7 1  
     7    7    8 1  
     8    8    9 1  
     9    9   10 1  
    10   10   11 1  
    11   11   12 1  
    12   12   13 1  
    13   13   14 1  
    14   14   15 1  
    15   15   16 1  
    16   16   17 1  
    17   17   18 1  
    18   18   19 1  
    19   19   20 1  
    20    4   21 1  
    21    4   22 1  
    22    5   23 1  
    23    5   24 1  
    24    6   25 1  
    25    6   26 1  
    26    7   27 1  
    27    7   28 1  
    28    8   29 1  
    29    8   30 1  
    30    9   31 1  
    31    9   32 1  
    32   10   33 1  
    33   10   34 1  
    34   11   35 1  
    35   11   36 1  
    36   12   37 1  
    37   12   38 1  
    38   13   39 1  
    39   13   40 1  
    40   14   41 1  
    41   14   42 1  
    42   15   43 1  
    43   15   44 1  
    44   16   45 1  
    45   16   46 1  
    46   17   47 1  
    47   17   48 1  
    48   18   49 1  
    49   18   50 1  
    50   19   51 1  
    51   19   52 1  
    52   20   53 1  
    53   20   54 1  
    54   20   55 1  
@<TRIPOS>SUBSTRUCTURE
     1 STE         1

