### 
### Created by X-TOOL on Mon Sep 10 21:13:11 2018
### 

@<TRIPOS>MOLECULE
3uf9_ligand
   36    36     1     0     0
SMALL
GAST_HUCK


@<TRIPOS>ATOM
      1 C1        -18.3200   17.9700  -20.7360 C.3       1 FST         0.0100
      2 S2        -17.6280   16.8530  -21.7610 S.3       1 FST        -0.0379
      3 O3        -18.6440   16.5500  -23.0210 O.3       1 FST        -0.3246
      4 C4        -16.2010   17.3940  -22.2530 C.ar      1 FST         0.0308
      5 C5        -15.0300   16.8190  -21.7650 C.ar      1 FST        -0.0453
      6 C6        -13.7830   17.2810  -22.1830 C.ar      1 FST        -0.0184
      7 C7        -13.7000   18.3310  -23.0900 C.ar      1 FST         0.1614
      8 C8        -14.8690   18.9040  -23.5790 C.ar      1 FST        -0.0184
      9 C9        -16.1150   18.4430  -23.1610 C.ar      1 FST        -0.0453
     10 O10       -12.4840   18.7980  -23.5250 O.3       1 FST        -0.1149
     11 P11       -11.2830   19.2100  -22.5330 P.3       1 FST         0.5169
     12 S12       -10.1630   20.6180  -23.2840 S.2       1 FST         0.1115
     13 O13       -11.9660   19.6200  -21.1340 O.3       1 FST        -0.1799
     14 C14       -12.8650   20.7220  -21.0570 C.3       1 FST         0.1016
     15 C15       -12.6250   21.6490  -22.2280 C.3       1 FST        -0.0332
     16 O16       -10.4590   17.8580  -22.2420 O.3       1 FST        -0.1799
     17 C17        -9.7980   17.6580  -20.9930 C.3       1 FST         0.1016
     18 C18       -10.0990   16.2680  -20.4750 C.3       1 FST        -0.0332
     19 H1        -17.6379   18.1690  -19.8963 H         1 FST         0.0382
     20 H2        -19.2708   17.5738  -20.3500 H         1 FST         0.0382
     21 H3        -18.5080   18.9044  -21.2850 H         1 FST         0.0382
     22 H4        -18.2450   15.9130  -23.6020 H         1 FST         0.2310
     23 H5        -15.0890   16.0039  -21.0529 H         1 FST         0.0574
     24 H6        -12.8785   16.8217  -21.8009 H         1 FST         0.0600
     25 H7        -14.8098   19.7177  -24.2928 H         1 FST         0.0600
     26 H8        -17.0188   18.9028  -23.5442 H         1 FST         0.0574
     27 H9        -12.6971   21.2676  -20.1167 H         1 FST         0.0656
     28 H10       -13.9009   20.3533  -21.0872 H         1 FST         0.0656
     29 H11       -13.3188   22.5006  -22.1696 H         1 FST         0.0258
     30 H12       -12.7928   21.1032  -23.1682 H         1 FST         0.0258
     31 H13       -11.5890   22.0174  -22.1977 H         1 FST         0.0258
     32 H14       -10.1538   18.4040  -20.2671 H         1 FST         0.0656
     33 H15        -8.7125   17.7697  -21.1314 H         1 FST         0.0656
     34 H16        -9.5883   16.1169  -19.5125 H         1 FST         0.0258
     35 H17        -9.7430   15.5214  -21.2001 H         1 FST         0.0258
     36 H18       -11.1843   16.1556  -20.3358 H         1 FST         0.0258
@<TRIPOS>BOND
     1    1    2 1  
     2    2    3 1  
     3    2    4 1  
     4    4    5 ar 
     5    4    9 ar 
     6    5    6 ar 
     7    6    7 ar 
     8    7    8 ar 
     9    7   10 1  
    10    8    9 ar 
    11   10   11 1  
    12   11   12 2  
    13   11   13 1  
    14   11   16 1  
    15   13   14 1  
    16   14   15 1  
    17   16   17 1  
    18   17   18 1  
    19    1   19 1  
    20    1   20 1  
    21    1   21 1  
    22    3   22 1  
    23    5   23 1  
    24    6   24 1  
    25    8   25 1  
    26    9   26 1  
    27   14   27 1  
    28   14   28 1  
    29   15   29 1  
    30   15   30 1  
    31   15   31 1  
    32   17   32 1  
    33   17   33 1  
    34   18   34 1  
    35   18   35 1  
    36   18   36 1  
@<TRIPOS>SUBSTRUCTURE
     1 FST         1

