### 
### Created by X-TOOL on Mon Sep 10 21:13:11 2018
### 

@<TRIPOS>MOLECULE
3ufl_ligand
   69    74     1     0     0
SMALL
GAST_HUCK


@<TRIPOS>ATOM
      1 C          30.8330   38.7490    2.3120 C.3       1 508         0.0221
      2 C1         30.6730   39.1810    3.7760 C.3       1 508        -0.0509
      3 N          30.1720   38.0200    4.5650 N.4       1 508         0.2220
      4 C2         30.1630   36.8240    3.6840 C.3       1 508        -0.0224
      5 C3         31.0160   37.2280    2.4800 C.3       1 508         0.0730
      6 C4         30.6680   36.3700    1.2810 C.2       1 508         0.1803
      7 O          29.4880   36.2200    0.9890 O.2       1 508        -0.3972
      8 N5         31.6700   35.8030    0.5710 N.am      1 508        -0.2589
      9 C6         33.1090   35.9080    0.8770 C.3       1 508         0.0384
     10 C7         33.7710   36.7900   -0.1880 C.3       1 508        -0.0195
     11 C8         32.8790   36.8450   -1.4350 C.3       1 508        -0.0017
     12 C9         32.2710   35.4670   -1.7630 C.3       1 508        -0.0071
     13 C10        31.3720   34.9710   -0.6110 C.3       1 508         0.0804
     14 C11        33.5450   37.5440   -2.6020 C.ar      1 508        -0.0397
     15 C12        33.1950   38.8730   -2.8840 C.ar      1 508        -0.0601
     16 C13        33.7740   39.5690   -3.9500 C.ar      1 508        -0.0686
     17 C14        34.7220   38.9270   -4.7490 C.ar      1 508        -0.0687
     18 C15        35.0820   37.6050   -4.4710 C.ar      1 508        -0.0686
     19 C16        34.5020   36.9180   -3.4070 C.ar      1 508        -0.0601
     20 C17        29.5200   39.1210    1.5790 C.3       1 508        -0.0646
     21 C18        29.4720   40.4950    0.8990 C.3       1 508        -0.0456
     22 C19        30.5950   40.5570   -0.1380 C.3       1 508        -0.0045
     23 C20        31.9310   40.3460    0.5290 C.ar      1 508        -0.0164
     24 C21        32.0570   39.4610    1.7340 C.ar      1 508        -0.0381
     25 C22        32.9780   40.9790    0.0140 C.ar      1 508        -0.0295
     26 C23        34.3310   40.8290    0.6190 C.ar      1 508        -0.0406
     27 C24        34.4620   40.0510    1.6840 C.ar      1 508        -0.0395
     28 C25        33.2770   39.3470    2.2560 C.ar      1 508        -0.0455
     29 C26        31.2010   33.4810   -0.3330 C.ar      1 508        -0.0176
     30 C27        30.7800   33.0840    0.9470 C.ar      1 508        -0.0581
     31 C28        30.5970   31.7430    1.2880 C.ar      1 508        -0.0685
     32 C29        30.8380   30.7560    0.3350 C.ar      1 508        -0.0687
     33 C30        31.2550   31.1190   -0.9470 C.ar      1 508        -0.0685
     34 C31        31.4280   32.4700   -1.2760 C.ar      1 508        -0.0581
     35 H          29.9652   40.0072    3.8429 H         1 508         0.0706
     36 H          31.6336   39.5107    4.1718 H         1 508         0.0706
     37 H          29.2295   38.2099    4.9057 H         1 508         0.2006
     38 H          30.7778   37.8568    5.3692 H         1 508         0.2006
     39 H          29.1522   36.5400    3.3914 H         1 508         0.0833
     40 H          30.5595   35.9426    4.1880 H         1 508         0.0833
     41 H          32.0820   37.0439    2.6135 H         1 508         0.0491
     42 H          33.5630   34.9170    0.8735 H         1 508         0.0526
     43 H          33.2478   36.3495    1.8639 H         1 508         0.0526
     44 H          34.7414   36.3710   -0.4542 H         1 508         0.0309
     45 H          33.9050   37.7970    0.2070 H         1 508         0.0309
     46 H          32.0259   37.4825   -1.2029 H         1 508         0.0464
     47 H          33.0814   34.7524   -1.9067 H         1 508         0.0334
     48 H          31.6657   35.5575   -2.6649 H         1 508         0.0334
     49 H          30.3522   35.1100   -0.9699 H         1 508         0.0723
     50 H          32.4559   39.3739   -2.2588 H         1 508         0.0557
     51 H          33.4884   40.6008   -4.1547 H         1 508         0.0599
     52 H          35.1796   39.4543   -5.5861 H         1 508         0.0559
     53 H          35.8247   37.1063   -5.0937 H         1 508         0.0599
     54 H          34.7952   35.8886   -3.2011 H         1 508         0.0557
     55 H          28.7448   39.1393    2.3450 H         1 508         0.0170
     56 H          29.4054   38.3880    0.7804 H         1 508         0.0170
     57 H          29.6032   41.2837    1.6399 H         1 508         0.0289
     58 H          28.5066   40.6386    0.4138 H         1 508         0.0289
     59 H          30.5855   41.5363   -0.6165 H         1 508         0.0504
     60 H          30.4390   39.7744   -0.8805 H         1 508         0.0504
     61 H          32.8463   41.6154   -0.8610 H         1 508         0.0636
     62 H          35.1922   41.3464    0.1962 H         1 508         0.0834
     63 H          35.4416   39.9246    2.1450 H         1 508         0.0648
     64 H          33.4151   38.7159    3.1339 H         1 508         0.0817
     65 H          30.5898   33.8493    1.6995 H         1 508         0.0557
     66 H          30.2685   31.4705    2.2910 H         1 508         0.0599
     67 H          30.7016   29.7048    0.5891 H         1 508         0.0559
     68 H          31.4466   30.3490   -1.6943 H         1 508         0.0599
     69 H          31.7448   32.7392   -2.2836 H         1 508         0.0557
@<TRIPOS>BOND
     1    1    2 1  
     2    1    5 1  
     3    1   20 1  
     4    1   24 1  
     5    2    3 1  
     6    3    4 1  
     7    4    5 1  
     8    5    6 1  
     9    6    7 2  
    10    6    8 am 
    11    8    9 1  
    12    8   13 1  
    13    9   10 1  
    14   10   11 1  
    15   11   12 1  
    16   11   14 1  
    17   12   13 1  
    18   13   29 1  
    19   14   15 ar 
    20   14   19 ar 
    21   15   16 ar 
    22   16   17 ar 
    23   17   18 ar 
    24   18   19 ar 
    25   20   21 1  
    26   21   22 1  
    27   22   23 1  
    28   23   24 ar 
    29   23   25 ar 
    30   24   28 ar 
    31   25   26 ar 
    32   26   27 ar 
    33   27   28 ar 
    34   29   30 ar 
    35   29   34 ar 
    36   30   31 ar 
    37   31   32 ar 
    38   32   33 ar 
    39   33   34 ar 
    40    2   35 1  
    41    2   36 1  
    42    3   37 1  
    43    3   38 1  
    44    4   39 1  
    45    4   40 1  
    46    5   41 1  
    47    9   42 1  
    48    9   43 1  
    49   10   44 1  
    50   10   45 1  
    51   11   46 1  
    52   12   47 1  
    53   12   48 1  
    54   13   49 1  
    55   15   50 1  
    56   16   51 1  
    57   17   52 1  
    58   18   53 1  
    59   19   54 1  
    60   20   55 1  
    61   20   56 1  
    62   21   57 1  
    63   21   58 1  
    64   22   59 1  
    65   22   60 1  
    66   25   61 1  
    67   26   62 1  
    68   27   63 1  
    69   28   64 1  
    70   30   65 1  
    71   31   66 1  
    72   32   67 1  
    73   33   68 1  
    74   34   69 1  
@<TRIPOS>SUBSTRUCTURE
     1 508         1

