### 
### Created by X-TOOL on Mon Sep 10 21:13:09 2018
### 

@<TRIPOS>MOLECULE
3ug2_ligand
   56    59     1     0     0
SMALL
GAST_HUCK


@<TRIPOS>ATOM
      1 CAO         3.4040   46.1170   14.5070 C.3       1 IRE        -0.0078
      2 CAL         4.3860   44.9380   14.3750 C.3       1 IRE         0.0878
      3 OAU         3.6900   43.6880   14.5540 O.3       1 IRE        -0.3693
      4 CAM         3.0800   43.4440   15.8490 C.3       1 IRE         0.0878
      5 CAP         2.7940   44.7300   16.6440 C.3       1 IRE        -0.0078
      6 NBE         2.5950   45.8870   15.7230 N.4       1 IRE         0.2385
      7 CAN         1.5560   46.8550   16.0410 C.3       1 IRE        -0.0293
      8 CAJ         1.9860   47.4510   17.3890 C.3       1 IRE         0.0151
      9 CAK         0.7930   47.7880   18.2910 C.3       1 IRE         0.0741
     10 OAV        -0.0010   48.8270   17.6860 O.3       1 IRE        -0.3164
     11 CBA        -0.5460   49.8840   18.3700 C.ar      1 IRE         0.1323
     12 CAZ        -1.1750   50.8290   17.5810 C.ar      1 IRE         0.1323
     13 CAH        -1.7490   51.9430   18.1780 C.ar      1 IRE        -0.0168
     14 OAT        -1.2170   50.6790   16.2200 O.3       1 IRE        -0.3162
     15 CAA        -2.3380   51.2600   15.5080 C.3       1 IRE         0.0601
     16 CAI        -0.5160   50.0310   19.7780 C.ar      1 IRE        -0.0172
     17 C5         -1.1300   51.1410   20.3560 C.ar      1 IRE         0.0392
     18 C4         -1.7470   52.0880   19.5480 C.ar      1 IRE         0.0265
     19 N3         -2.3440   53.1660   20.0860 N.ar      1 IRE        -0.3053
     20 C2         -2.3130   53.3880   21.3930 C.ar      1 IRE         0.0526
     21 N1         -1.7230   52.5050   22.1960 N.ar      1 IRE        -0.2609
     22 C6         -1.1370   51.3830   21.7250 C.ar      1 IRE         0.1500
     23 NAS        -0.5500   50.5160   22.5680 N.pl3     1 IRE        -0.2507
     24 CAY        -0.7890   50.3540   23.9050 C.ar      1 IRE         0.0646
     25 CAG        -2.0680   50.5030   24.4450 C.ar      1 IRE        -0.0246
     26 CAX        -2.2860   50.3360   25.8070 C.ar      1 IRE         0.0649
     27 CL         -3.8770   50.5280   26.6050 Cl        1 IRE        -0.0749
     28 CAW        -1.2480   49.9960   26.6110 C.ar      1 IRE         0.1348
     29 FAB        -1.5490   49.8410   27.9240 F         1 IRE        -0.1917
     30 CAD         0.0430   49.8020   26.0870 C.ar      1 IRE        -0.0363
     31 CAE         0.2670   49.9660   24.7340 C.ar      1 IRE        -0.0383
     32 H1          2.7500   46.1619   13.6237 H         1 IRE         0.0837
     33 H2          3.9608   47.0611   14.5993 H         1 IRE         0.0837
     34 H3          5.1698   45.0304   15.1412 H         1 IRE         0.0613
     35 H4          4.8457   44.9581   13.3759 H         1 IRE         0.0613
     36 H5          3.7592   42.8126   16.4406 H         1 IRE         0.0613
     37 H6          2.1295   42.9131   15.6919 H         1 IRE         0.0613
     38 H7          3.6448   44.9401   17.3088 H         1 IRE         0.0837
     39 H8          1.8845   44.5874   17.2461 H         1 IRE         0.0837
     40 H9          1.9433   45.3395   15.1831 H         1 IRE         0.2035
     41 H10         0.5774   46.3604   16.1290 H         1 IRE         0.0815
     42 H11         1.5036   47.6369   15.2691 H         1 IRE         0.0815
     43 H12         2.5570   48.3722   17.2010 H         1 IRE         0.0343
     44 H13         2.6259   46.7225   17.9085 H         1 IRE         0.0343
     45 H14         1.1608   48.1326   19.2687 H         1 IRE         0.0613
     46 H15         0.1740   46.8891   18.4282 H         1 IRE         0.0613
     47 H16        -2.2041   52.7077   17.5590 H         1 IRE         0.0496
     48 H17        -2.2330   51.0584   14.4317 H         1 IRE         0.0579
     49 H18        -2.3565   52.3467   15.6774 H         1 IRE         0.0579
     50 H19        -3.2752   50.8157   15.8745 H         1 IRE         0.0579
     51 H20        -0.0226   49.2909   20.3976 H         1 IRE         0.0546
     52 H21        -2.7652   54.2829   21.8051 H         1 IRE         0.1017
     53 H22         0.1659   49.8995   22.1578 H         1 IRE         0.2204
     54 H23        -2.8992   50.7515   23.7951 H         1 IRE         0.0538
     55 H24         0.8599   49.5245   26.7434 H         1 IRE         0.0577
     56 H25         1.2536   49.7952   24.3187 H         1 IRE         0.0535
@<TRIPOS>BOND
     1    1    2 1  
     2    1    6 1  
     3    2    3 1  
     4    3    4 1  
     5    4    5 1  
     6    5    6 1  
     7    6    7 1  
     8    7    8 1  
     9    8    9 1  
    10    9   10 1  
    11   10   11 1  
    12   11   12 ar 
    13   11   16 ar 
    14   12   13 ar 
    15   12   14 1  
    16   13   18 ar 
    17   14   15 1  
    18   16   17 ar 
    19   17   18 ar 
    20   17   22 ar 
    21   18   19 ar 
    22   19   20 ar 
    23   20   21 ar 
    24   21   22 ar 
    25   22   23 1  
    26   23   24 1  
    27   24   25 ar 
    28   24   31 ar 
    29   25   26 ar 
    30   26   27 1  
    31   26   28 ar 
    32   28   29 1  
    33   28   30 ar 
    34   30   31 ar 
    35    1   32 1  
    36    1   33 1  
    37    2   34 1  
    38    2   35 1  
    39    4   36 1  
    40    4   37 1  
    41    5   38 1  
    42    5   39 1  
    43    6   40 1  
    44    7   41 1  
    45    7   42 1  
    46    8   43 1  
    47    8   44 1  
    48    9   45 1  
    49    9   46 1  
    50   13   47 1  
    51   15   48 1  
    52   15   49 1  
    53   15   50 1  
    54   16   51 1  
    55   20   52 1  
    56   23   53 1  
    57   25   54 1  
    58   30   55 1  
    59   31   56 1  
@<TRIPOS>SUBSTRUCTURE
     1 IRE         1

