### 
### Created by X-TOOL on Mon Sep 10 21:13:09 2018
### 

@<TRIPOS>MOLECULE
3ugc_ligand
   71    75     1     0     0
SMALL
GAST_HUCK


@<TRIPOS>ATOM
      1 F1         23.2040  -17.8200  -13.1770 F         1 046        -0.2292
      2 C2         23.3030  -18.9780  -13.8660 C.3       1 046         0.3645
      3 F3         24.2100  -19.7150  -13.2050 F         1 046        -0.2292
      4 F4         22.1430  -19.6200  -13.7860 F         1 046        -0.2292
      5 C5         23.7170  -18.6820  -15.2910 C.ar      1 046         0.0385
      6 C6         25.0240  -18.2990  -15.5910 C.ar      1 046         0.0246
      7 C7         25.3390  -18.0200  -16.9280 C.ar      1 046        -0.0317
      8 C9         24.3850  -18.1430  -17.9460 C.ar      1 046        -0.0149
      9 C11        23.0970  -18.5460  -17.6170 C.ar      1 046         0.0904
     10 C12        22.7720  -18.8480  -16.2960 C.ar      1 046        -0.0203
     11 N14        22.1800  -18.6790  -18.6960 N.am      1 046        -0.2023
     12 C16        20.8360  -18.5630  -18.5920 C.2       1 046         0.3608
     13 O17        20.2380  -18.3620  -17.5360 O.2       1 046        -0.3600
     14 N18        20.1120  -18.7560  -19.7090 N.am      1 046        -0.1615
     15 C19        20.6690  -19.3950  -20.9030 C.2       1 046         0.0511
     16 C22        19.4810  -19.5010  -21.8820 C.2       1 046        -0.0690
     17 C25        18.3120  -18.8910  -21.1370 C.ar      1 046        -0.0362
     18 C26        18.7410  -18.5030  -19.8780 C.ar      1 046         0.0889
     19 C27        17.8830  -17.8800  -18.9580 C.ar      1 046        -0.0433
     20 C29        16.5570  -17.6820  -19.3710 C.ar      1 046        -0.0408
     21 C31        16.1410  -18.0930  -20.6360 C.ar      1 046         0.1027
     22 C32        17.0150  -18.6910  -21.5370 C.ar      1 046        -0.0458
     23 O34        14.8270  -17.8770  -21.0130 O.3       1 046        -0.2454
     24 C35        13.8310  -18.6020  -20.4360 C.ar      1 046         0.1860
     25 N36        14.0700  -19.7500  -19.8030 N.ar      1 046        -0.2586
     26 C37        13.0870  -20.4760  -19.2610 C.ar      1 046         0.0580
     27 N39        11.8220  -20.0160  -19.3410 N.ar      1 046        -0.2657
     28 C40        11.5470  -18.8470  -19.9210 C.ar      1 046         0.1450
     29 C41        12.5410  -18.0710  -20.4990 C.ar      1 046         0.0399
     30 N43        10.1730  -18.4790  -19.8140 N.am      1 046        -0.2139
     31 C45         9.6470  -17.3300  -20.2790 C.2       1 046         0.2077
     32 O46        10.2470  -16.4800  -20.8640 O.2       1 046        -0.3815
     33 C47         8.1610  -17.1710  -20.0410 C.3       1 046         0.0331
     34 C51        26.0940  -18.0920  -14.4980 C.3       1 046         0.0130
     35 N54        27.1310  -17.1670  -14.9590 N.4       1 046         0.2588
     36 C55        28.3190  -17.2630  -14.1020 C.3       1 046         0.0114
     37 C58        29.4080  -16.2990  -14.6270 C.3       1 046         0.0092
     38 N61        28.8900  -14.9250  -14.6780 N.4       1 046         0.2405
     39 C62        27.6980  -14.8360  -15.5590 C.3       1 046         0.0092
     40 C65        26.6370  -15.7910  -14.9940 C.3       1 046         0.0114
     41 C68        29.9200  -13.9700  -15.1630 C.3       1 046        -0.0427
     42 H          26.3441  -17.7017  -17.1799 H         1 046         0.0616
     43 H          24.6478  -17.9269  -18.9752 H         1 046         0.0762
     44 H          21.7808  -19.2129  -16.0522 H         1 046         0.0653
     45 H          22.5577  -18.8732  -19.6013 H         1 046         0.2265
     46 H          21.6948  -19.7229  -21.0644 H         1 046         0.0945
     47 H          19.4828  -19.9215  -22.8866 H         1 046         0.0229
     48 H          18.2274  -17.5679  -17.9787 H         1 046         0.0531
     49 H          15.8505  -17.2056  -18.7010 H         1 046         0.0483
     50 H          16.6821  -18.9898  -22.5244 H         1 046         0.0437
     51 H          13.3027  -21.4163  -18.7667 H         1 046         0.1043
     52 H          12.3305  -17.1166  -20.9680 H         1 046         0.0573
     53 H           9.5552  -19.1213  -19.3605 H         1 046         0.2350
     54 H           7.8247  -16.2081  -20.4530 H         1 046         0.0474
     55 H           7.9577  -17.1984  -18.9603 H         1 046         0.0474
     56 H           7.6205  -17.9908  -20.5367 H         1 046         0.0474
     57 H          26.5556  -19.0607  -14.2562 H         1 046         0.1043
     58 H          25.6157  -17.6788  -13.5978 H         1 046         0.1043
     59 H          27.3935  -17.4305  -15.8959 H         1 046         0.2058
     60 H          28.7020  -18.2940  -14.1191 H         1 046         0.0868
     61 H          28.0514  -16.9883  -13.0710 H         1 046         0.0868
     62 H          29.7118  -16.6101  -15.6374 H         1 046         0.0868
     63 H          30.2784  -16.3341  -13.9553 H         1 046         0.0868
     64 H          28.6204  -14.6576  -13.7443 H         1 046         0.2035
     65 H          27.9647  -15.1342  -16.5837 H         1 046         0.0868
     66 H          27.3114  -13.8062  -15.5657 H         1 046         0.0868
     67 H          26.3783  -15.4762  -13.9723 H         1 046         0.0868
     68 H          25.7401  -15.7475  -15.6293 H         1 046         0.0868
     69 H          30.8078  -14.0285  -14.5162 H         1 046         0.0778
     70 H          29.5139  -12.9481  -15.1366 H         1 046         0.0778
     71 H          30.2008  -14.2265  -16.1951 H         1 046         0.0778
@<TRIPOS>BOND
     1    1    2 1  
     2    2    3 1  
     3    2    4 1  
     4    2    5 1  
     5    5    6 ar 
     6    5   10 ar 
     7    6    7 ar 
     8    6   34 1  
     9    7    8 ar 
    10    8    9 ar 
    11    9   10 ar 
    12    9   11 1  
    13   11   12 am 
    14   12   13 2  
    15   12   14 am 
    16   14   15 1  
    17   14   18 1  
    18   15   16 2  
    19   16   17 1  
    20   17   18 ar 
    21   17   22 ar 
    22   18   19 ar 
    23   19   20 ar 
    24   20   21 ar 
    25   21   22 ar 
    26   21   23 1  
    27   23   24 1  
    28   24   25 ar 
    29   24   29 ar 
    30   25   26 ar 
    31   26   27 ar 
    32   27   28 ar 
    33   28   29 ar 
    34   28   30 1  
    35   30   31 am 
    36   31   32 2  
    37   31   33 1  
    38   34   35 1  
    39   35   36 1  
    40   35   40 1  
    41   36   37 1  
    42   37   38 1  
    43   38   39 1  
    44   38   41 1  
    45   39   40 1  
    46    7   42 1  
    47    8   43 1  
    48   10   44 1  
    49   11   45 1  
    50   15   46 1  
    51   16   47 1  
    52   19   48 1  
    53   20   49 1  
    54   22   50 1  
    55   26   51 1  
    56   29   52 1  
    57   30   53 1  
    58   33   54 1  
    59   33   55 1  
    60   33   56 1  
    61   34   57 1  
    62   34   58 1  
    63   35   59 1  
    64   36   60 1  
    65   36   61 1  
    66   37   62 1  
    67   37   63 1  
    68   38   64 1  
    69   39   65 1  
    70   39   66 1  
    71   40   67 1  
    72   40   68 1  
    73   41   69 1  
    74   41   70 1  
    75   41   71 1  
@<TRIPOS>SUBSTRUCTURE
     1 046         1

