### 
### Created by X-TOOL on Mon Sep 10 21:13:09 2018
### 

@<TRIPOS>MOLECULE
3uh4_ligand
   32    34     1     0     0
SMALL
GAST_HUCK


@<TRIPOS>ATOM
      1 N1        -23.3660   -8.5370    8.2000 N.am      1 XAV        -0.2017
      2 C2        -24.5070   -7.9250    7.8160 C.2       1 XAV         0.1830
      3 N3        -25.6060   -8.5920    7.4440 N.2       1 XAV        -0.2708
      4 C4        -25.6390   -9.9290    7.5170 C.2       1 XAV         0.0230
      5 C5        -24.5330  -10.6420    8.0540 C.2       1 XAV         0.0495
      6 C6        -23.3850   -9.8810    8.3130 C.2       1 XAV         0.2160
      7 O6        -22.2730  -10.5080    8.7590 O.2       1 XAV        -0.4088
      8 FAB       -23.9010   -1.4400    7.5820 F         1 XAV        -0.2315
      9 FAC       -23.7810   -2.0830    5.5550 F         1 XAV        -0.2315
     10 FAD       -25.7290   -1.7220    6.3650 F         1 XAV        -0.2315
     11 CAE       -25.4900   -5.8760    6.7380 C.ar      1 XAV        -0.0171
     12 CAF       -23.5470   -5.5850    8.2160 C.ar      1 XAV        -0.0171
     13 CAG       -25.4840   -4.5050    6.4530 C.ar      1 XAV        -0.0317
     14 CAH       -23.5510   -4.2000    7.9410 C.ar      1 XAV        -0.0317
     15 CAI       -26.8790  -12.0970    6.9370 C.3       1 XAV         0.0066
     16 CAJ       -26.9700  -10.5630    7.0920 C.3       1 XAV         0.0006
     17 CAK       -24.4850  -12.1530    8.2730 C.3       1 XAV         0.0290
     18 SAN       -26.1490  -12.8390    8.4240 S.3       1 XAV        -0.1472
     19 CAP       -24.4990   -6.4520    7.5820 C.ar      1 XAV         0.0673
     20 CAQ       -24.5330   -3.6520    7.0720 C.ar      1 XAV         0.0401
     21 CAU       -24.5080   -2.1850    6.6660 C.3       1 XAV         0.3666
     22 H         -22.5368   -8.0126    8.3936 H         1 XAV         0.2504
     23 H         -26.2601   -6.5075    6.3099 H         1 XAV         0.0738
     24 H         -22.8216   -5.9953    8.9091 H         1 XAV         0.0738
     25 H         -26.2073   -4.0941    5.7580 H         1 XAV         0.0836
     26 H         -22.8056   -3.5552    8.3924 H         1 XAV         0.0836
     27 H         -26.2512  -12.3370    6.0663 H         1 XAV         0.0402
     28 H         -27.8885  -12.5068    6.7853 H         1 XAV         0.0402
     29 H         -27.2738  -10.1297    6.1277 H         1 XAV         0.0454
     30 H         -27.7290  -10.3311    7.8537 H         1 XAV         0.0454
     31 H         -23.9236  -12.3651    9.1949 H         1 XAV         0.0511
     32 H         -23.9780  -12.6244    7.4182 H         1 XAV         0.0511
@<TRIPOS>BOND
     1    2    1 am 
     2    1    6 am 
     3    2    3 2  
     4   19    2 1  
     5    3    4 1  
     6    4    5 2  
     7    4   16 1  
     8    6    5 1  
     9    5   17 1  
    10    6    7 2  
    11   21    8 1  
    12   21    9 1  
    13   21   10 1  
    14   13   11 ar 
    15   11   19 ar 
    16   14   12 ar 
    17   12   19 ar 
    18   20   13 ar 
    19   20   14 ar 
    20   16   15 1  
    21   15   18 1  
    22   17   18 1  
    23   20   21 1  
    24    1   22 1  
    25   11   23 1  
    26   12   24 1  
    27   13   25 1  
    28   14   26 1  
    29   15   27 1  
    30   15   28 1  
    31   16   29 1  
    32   16   30 1  
    33   17   31 1  
    34   17   32 1  
@<TRIPOS>SUBSTRUCTURE
     1 XAV         1

