### 
### Created by X-TOOL on Mon Sep 10 21:13:09 2018
### 

@<TRIPOS>MOLECULE
3uhm_ligand
   47    48     1     0     0
SMALL
GAST_HUCK


@<TRIPOS>ATOM
      1 N1          2.0260  -10.1300   -1.6500 N.am      1 RFN        -0.2618
      2 C4          1.0360  -13.4800   -5.3800 C.ar      1 RFN        -0.0599
      3 C5          0.3830  -13.1080   -4.2110 C.ar      1 RFN        -0.0304
      4 C6         -0.8810  -13.6280   -3.9510 C.ar      1 RFN        -0.0599
      5 C7          0.9660  -12.0960   -3.2940 C.2       1 RFN        -0.0296
      6 C8          0.1360  -11.1090   -2.6590 C.2       1 RFN        -0.0568
      7 C10         2.9070  -11.0510   -2.1960 C.2       1 RFN         0.1884
      8 C13         2.7500   -7.8330   -1.8140 C.3       1 RFN        -0.0004
      9 C15         2.6030   -6.0720   -0.0040 C.2       1 RFN         0.2448
     10 C17         4.8490   -6.7760   -0.8760 C.3       1 RFN        -0.0329
     11 C1         -1.4660  -14.5430   -4.8240 C.ar      1 RFN        -0.0657
     12 C2         -0.7770  -14.9140   -5.9580 C.ar      1 RFN        -0.0658
     13 C3          0.4710  -14.4030   -6.2620 C.ar      1 RFN        -0.0657
     14 C9          0.6730  -10.1710   -1.8810 C.3       1 RFN         0.0575
     15 C11         2.3000  -12.0760   -3.0740 C.3       1 RFN         0.0618
     16 O1          4.1210  -11.0280   -2.0030 O.2       1 RFN        -0.3945
     17 C12         2.5570   -9.0170   -0.8790 C.3       1 RFN         0.0374
     18 C14         3.3830   -6.5600   -1.2220 C.3       1 RFN         0.1669
     19 S1          3.4960   -5.3330   -2.5230 S.o2      1 RFN        -0.0213
     20 C16         1.8320   -5.0940   -3.0960 C.3       1 RFN         0.0541
     21 O2          4.2980   -5.8800   -3.5980 O.2       1 RFN        -0.1753
     22 O3          3.9510   -4.0670   -1.9670 O.2       1 RFN        -0.1753
     23 O4          1.4240   -5.7620   -0.0630 O.2       1 RFN        -0.3445
     24 N2          3.3170   -6.0650    1.1710 N.am      1 RFN        -0.1610
     25 O5          2.5020   -5.6080    2.2600 O.3       1 RFN        -0.2706
     26 H1          2.0018  -13.0455   -5.6113 H         1 RFN         0.0587
     27 H2         -1.4160  -13.3183   -3.0605 H         1 RFN         0.0587
     28 H3         -0.9415  -11.1285   -2.8155 H         1 RFN         0.0577
     29 H4          1.7601   -7.5576   -2.2067 H         1 RFN         0.0293
     30 H5          3.3929   -8.1672   -2.6417 H         1 RFN         0.0293
     31 H6          4.9299   -7.5228   -0.0724 H         1 RFN         0.0238
     32 H7          5.2902   -5.8262   -0.5396 H         1 RFN         0.0238
     33 H8          5.3867   -7.1353   -1.7658 H         1 RFN         0.0238
     34 H9         -2.4462  -14.9558   -4.6146 H         1 RFN         0.0606
     35 H10        -1.2286  -15.6306   -6.6345 H         1 RFN         0.0584
     36 H11         0.9958  -14.7101   -7.1594 H         1 RFN         0.0606
     37 H12         0.4030   -9.2027   -2.3277 H         1 RFN         0.0681
     38 H13         0.1910  -10.2680   -0.8970 H         1 RFN         0.0681
     39 H14         2.7790  -11.9694   -4.0585 H         1 RFN         0.0617
     40 H15         2.5617  -13.0535   -2.6428 H         1 RFN         0.0617
     41 H16         3.5224   -9.3003   -0.4344 H         1 RFN         0.0523
     42 H17         1.8503   -8.7479   -0.0802 H         1 RFN         0.0523
     43 H18         1.8259   -4.3464   -3.9029 H         1 RFN         0.0462
     44 H19         1.2049   -4.7408   -2.2642 H         1 RFN         0.0462
     45 H20         1.4346   -6.0467   -3.4759 H         1 RFN         0.0462
     46 H21         4.2745   -6.3410    1.2552 H         1 RFN         0.2233
     47 H22         3.0140   -5.6111    3.0602 H         1 RFN         0.2497
@<TRIPOS>BOND
     1    1    7 am 
     2   14    1 1  
     3    1   17 1  
     4    3    2 ar 
     5    2   13 ar 
     6    3    4 ar 
     7    5    3 1  
     8    4   11 ar 
     9    6    5 2  
    10    5   15 1  
    11    6   14 1  
    12    7   15 1  
    13    7   16 2  
    14   17    8 1  
    15    8   18 1  
    16   18    9 1  
    17    9   23 2  
    18    9   24 am 
    19   18   10 1  
    20   11   12 ar 
    21   12   13 ar 
    22   18   19 1  
    23   19   20 1  
    24   19   21 2  
    25   19   22 2  
    26   24   25 1  
    27    2   26 1  
    28    4   27 1  
    29    6   28 1  
    30    8   29 1  
    31    8   30 1  
    32   10   31 1  
    33   10   32 1  
    34   10   33 1  
    35   11   34 1  
    36   12   35 1  
    37   13   36 1  
    38   14   37 1  
    39   14   38 1  
    40   15   39 1  
    41   15   40 1  
    42   17   41 1  
    43   17   42 1  
    44   20   43 1  
    45   20   44 1  
    46   20   45 1  
    47   24   46 1  
    48   25   47 1  
@<TRIPOS>SUBSTRUCTURE
     1 RFN         1

