### 
### Created by X-TOOL on Mon Sep 10 21:13:06 2018
### 

@<TRIPOS>MOLECULE
3ui7_ligand
   47    50     1     0     0
SMALL
GAST_HUCK


@<TRIPOS>ATOM
      1 C5          4.7120   11.6700   41.9390 C.ar      1 C1L        -0.0303
      2 C14         4.2680   13.1580   40.0810 C.ar      1 C1L        -0.0245
      3 C2          4.3290   12.6840   42.8390 C.ar      1 C1L         0.0024
      4 C3          3.9330   13.4970   45.0860 C.ar      1 C1L         0.0779
      5 C9          3.8750   14.2240   40.9500 C.ar      1 C1L        -0.0266
      6 C1          4.3360   12.4260   44.2450 C.ar      1 C1L         0.0424
      7 C4          3.8950   13.9890   42.3430 C.ar      1 C1L         0.0368
      8 C10         4.7180   11.8920   40.5600 C.ar      1 C1L         0.0864
      9 C7          3.7670   13.7350   46.4610 C.2       1 C1L         0.1388
     10 C6          3.5790   14.7200   44.4830 C.ar      1 C1L         0.0204
     11 C20         6.9260    9.6660   44.6200 C.3       1 C1L        -0.0061
     12 C24         7.2050   12.0610   45.1010 C.3       1 C1L        -0.0061
     13 C21         8.3270    9.6300   44.0100 C.3       1 C1L         0.0878
     14 C23         8.5980   11.9670   44.4980 C.3       1 C1L         0.0878
     15 C17         3.4510   15.5810   40.3610 C.3       1 C1L        -0.0290
     16 C13         4.0890   12.8090   47.5840 C.3       1 C1L         0.0334
     17 C16         6.2930   10.1990   39.9390 C.3       1 C1L         0.0596
     18 C18         4.8860   11.1080   44.7910 C.3       1 C1L         0.0114
     19 N8          3.5030   14.9990   43.1550 N.ar      1 C1L        -0.3153
     20 N11         3.2560   15.5600   45.4880 N.2       1 C1L        -0.3829
     21 N12         3.3640   15.0060   46.6920 N.pl3     1 C1L        -0.2565
     22 N19         6.3640   11.0150   44.5020 N.4       1 C1L         0.2530
     23 O22         9.1580   10.6270   44.5950 O.3       1 C1L        -0.3693
     24 O15         5.1110   10.9470   39.6320 O.3       1 C1L        -0.3222
     25 H1          5.0072   10.7004   42.3235 H         1 C1L         0.0457
     26 H2          4.2218   13.3195   39.0101 H         1 C1L         0.0528
     27 H3          6.9836    9.3868   45.6824 H         1 C1L         0.0837
     28 H4          6.2784    8.9535   44.0882 H         1 C1L         0.0837
     29 H5          6.7745   13.0504   44.8872 H         1 C1L         0.0837
     30 H6          7.2615   11.9131   46.1895 H         1 C1L         0.0837
     31 H7          8.2539    9.8110   42.9275 H         1 C1L         0.0613
     32 H8          8.7723    8.6399   44.1870 H         1 C1L         0.0613
     33 H9          9.2606   12.6656   45.0300 H         1 C1L         0.0613
     34 H10         8.5428   12.2502   43.4365 H         1 C1L         0.0613
     35 H11         3.5103   15.5389   39.2634 H         1 C1L         0.0402
     36 H12         4.1219   16.3686   40.7345 H         1 C1L         0.0402
     37 H13         2.4177   15.8055   40.6640 H         1 C1L         0.0402
     38 H14         3.8433   13.2934   48.5406 H         1 C1L         0.0590
     39 H15         5.1612   12.5644   47.5617 H         1 C1L         0.0590
     40 H16         3.5000   11.8860   47.4785 H         1 C1L         0.0590
     41 H17         6.4966    9.4855   39.1269 H         1 C1L         0.0578
     42 H18         6.1454    9.6502   40.8808 H         1 C1L         0.0578
     43 H19         7.1450   10.8867   40.0450 H         1 C1L         0.0578
     44 H20         4.3657   10.2671   44.3092 H         1 C1L         0.1019
     45 H21         4.7227   11.0660   45.8780 H         1 C1L         0.1019
     46 H22         3.1805   15.4488   47.6037 H         1 C1L         0.2720
     47 H23         6.4181   11.2095   43.5144 H         1 C1L         0.2053
@<TRIPOS>BOND
     1    3    1 ar 
     2    1    8 ar 
     3    5    2 ar 
     4    8    2 ar 
     5    6    3 ar 
     6    3    7 ar 
     7    6    4 ar 
     8    4    9 2  
     9    4   10 ar 
    10    7    5 ar 
    11    5   15 1  
    12   18    6 1  
    13    7   19 ar 
    14    8   24 1  
    15    9   16 1  
    16    9   21 1  
    17   10   19 ar 
    18   10   20 2  
    19   11   13 1  
    20   22   11 1  
    21   12   14 1  
    22   22   12 1  
    23   13   23 1  
    24   14   23 1  
    25   24   17 1  
    26   18   22 1  
    27   20   21 1  
    28    1   25 1  
    29    2   26 1  
    30   11   27 1  
    31   11   28 1  
    32   12   29 1  
    33   12   30 1  
    34   13   31 1  
    35   13   32 1  
    36   14   33 1  
    37   14   34 1  
    38   15   35 1  
    39   15   36 1  
    40   15   37 1  
    41   16   38 1  
    42   16   39 1  
    43   16   40 1  
    44   17   41 1  
    45   17   42 1  
    46   17   43 1  
    47   18   44 1  
    48   18   45 1  
    49   21   46 1  
    50   22   47 1  
@<TRIPOS>SUBSTRUCTURE
     1 C1L         1

