### 
### Created by X-TOOL on Mon Sep 10 21:13:11 2018
### 

@<TRIPOS>MOLECULE
3uib_ligand
   44    47     1     0     0
SMALL
GAST_HUCK


@<TRIPOS>ATOM
      1 O2          1.3670   34.6210   43.5590 O.3       1 SB2        -0.3209
      2 C1         -0.6580   32.6530   42.6730 C.3       1 SB2         0.0131
      3 S1          0.4750   33.9690   42.1390 S.3       1 SB2        -0.0259
      4 CA1         3.1340   31.0370   41.3110 C.ar      1 SB2        -0.0329
      5 CA2         2.1080   31.7740   41.9020 C.ar      1 SB2        -0.0286
      6 CA3         1.7720   33.0310   41.3960 C.ar      1 SB2         0.0496
      7 CA4         2.4680   33.5480   40.2970 C.ar      1 SB2        -0.0286
      8 CA5         3.4960   32.8100   39.7050 C.ar      1 SB2        -0.0329
      9 CA6         3.8340   31.5520   40.2160 C.ar      1 SB2         0.0584
     10 NB1         8.8020   30.9710   34.7200 N.ar      1 SB2        -0.2792
     11 CB2         8.3880   29.7240   35.0050 C.ar      1 SB2         0.0292
     12 CB3         7.6170   29.4700   36.1420 C.ar      1 SB2        -0.0006
     13 CB4         7.2760   30.5230   36.9910 C.ar      1 SB2         0.0827
     14 CB5         7.7180   31.8100   36.6740 C.ar      1 SB2        -0.0006
     15 CB6         8.4870   32.0070   35.5210 C.ar      1 SB2         0.0292
     16 NC1         5.5350   31.1900   38.5230 N.pl3     1 SB2        -0.1955
     17 CC2         4.9200   30.7160   39.6250 C.2       1 SB2         0.1862
     18 NC3         5.3860   29.5130   40.0310 N.2       1 SB2        -0.2421
     19 CC4         6.3680   29.1490   39.1880 C.2       1 SB2         0.1259
     20 CC5         6.4470   30.2600   38.2060 C.2       1 SB2         0.1830
     21 CD1         8.5170   27.8320   39.0090 C.ar      1 SB2        -0.0333
     22 CD2         9.1870   26.6050   39.0850 C.ar      1 SB2        -0.0090
     23 CD3         8.4830   25.4370   39.4090 C.ar      1 SB2         0.1532
     24 CD4         7.1140   25.4900   39.6680 C.ar      1 SB2        -0.0090
     25 CD5         6.4470   26.7110   39.5900 C.ar      1 SB2        -0.0333
     26 CD6         7.1420   27.8780   39.2600 C.ar      1 SB2         0.0305
     27 FD3         9.1160   24.2560   39.4810 F         1 SB2        -0.1664
     28 H           0.7405   34.9790   44.1922 H         1 SB2         0.2320
     29 H          -0.9817   32.0795   41.8045 H         1 SB2         0.0387
     30 H          -0.1440   31.9949   43.3736 H         1 SB2         0.0387
     31 H          -1.5257   33.0979   43.1602 H         1 SB2         0.0387
     32 H           3.3915   30.0539   41.7051 H         1 SB2         0.0734
     33 H           1.5689   31.3689   42.7583 H         1 SB2         0.0624
     34 H           2.2070   34.5297   39.9018 H         1 SB2         0.0624
     35 H           4.0336   33.2133   38.8469 H         1 SB2         0.0734
     36 H           8.6569   28.9020   34.3415 H         1 SB2         0.0865
     37 H           7.2842   28.4561   36.3642 H         1 SB2         0.0855
     38 H           7.4665   32.6525   37.3183 H         1 SB2         0.0855
     39 H           8.8344   33.0089   35.2689 H         1 SB2         0.0865
     40 H           5.3471   32.0663   38.0360 H         1 SB2         0.2557
     41 H           9.0614   28.7420   38.7568 H         1 SB2         0.0730
     42 H          10.2587   26.5579   38.8917 H         1 SB2         0.0661
     43 H           6.5694   24.5828   39.9296 H         1 SB2         0.0661
     44 H           5.3760   26.7564   39.7877 H         1 SB2         0.0730
@<TRIPOS>BOND
     1    3    1 1  
     2    3    2 1  
     3    6    3 1  
     4    4    5 ar 
     5    9    4 ar 
     6    5    6 ar 
     7    7    6 ar 
     8    8    7 ar 
     9    9    8 ar 
    10   17    9 1  
    11   11   10 ar 
    12   15   10 ar 
    13   12   11 ar 
    14   13   12 ar 
    15   13   14 ar 
    16   20   13 1  
    17   14   15 ar 
    18   16   17 1  
    19   20   16 1  
    20   18   17 2  
    21   19   18 1  
    22   19   20 2  
    23   26   19 1  
    24   21   22 ar 
    25   21   26 ar 
    26   22   23 ar 
    27   23   24 ar 
    28   23   27 1  
    29   24   25 ar 
    30   25   26 ar 
    31    1   28 1  
    32    2   29 1  
    33    2   30 1  
    34    2   31 1  
    35    4   32 1  
    36    5   33 1  
    37    7   34 1  
    38    8   35 1  
    39   11   36 1  
    40   12   37 1  
    41   14   38 1  
    42   15   39 1  
    43   16   40 1  
    44   21   41 1  
    45   22   42 1  
    46   24   43 1  
    47   25   44 1  
@<TRIPOS>SUBSTRUCTURE
     1 SB2         1

