### 
### Created by X-TOOL on Mon Sep 10 21:13:11 2018
### 

@<TRIPOS>MOLECULE
3uih_ligand
   62    62     1     0     0
SMALL
GAST_HUCK


@<TRIPOS>ATOM
      1 N         -35.2590  -14.1610   -1.7040 N.4       1 ALA         0.2377
      2 CA        -34.6140  -13.8480   -0.4430 C.3       1 ALA         0.0621
      3 C         -35.3390  -12.7240    0.2490 C.2       1 ALA         0.2264
      4 O         -36.4560  -12.3890   -0.1070 O.2       1 ALA        -0.3907
      5 CB        -33.1850  -13.4810   -0.6610 C.3       1 ALA        -0.0040
      6 N         -34.6960  -12.1380    1.2450 N.am      1 VAL        -0.2608
      7 CA        -35.3220  -11.0840    2.0160 C.3       1 VAL         0.1336
      8 C         -34.3210  -10.0620    2.4790 C.2       1 VAL         0.2067
      9 O         -33.1270  -10.2510    2.3560 O.2       1 VAL        -0.3942
     10 CB        -36.0130  -11.6470    3.2590 C.3       1 VAL        -0.0062
     11 CG1       -37.3510  -12.2480    2.8940 C.3       1 VAL        -0.0584
     12 CG2       -35.1240  -12.6660    3.9430 C.3       1 VAL        -0.0584
     13 N         -34.8310   -8.9800    3.0380 N.am      1 PRO        -0.2498
     14 CA        -34.0020   -7.8750    3.5000 C.3       1 PRO         0.1337
     15 C         -33.0490   -8.2530    4.6140 C.2       1 PRO         0.2036
     16 O         -33.4290   -8.9140    5.5650 O.2       1 PRO        -0.3944
     17 CB        -35.0310   -6.8820    4.0090 C.3       1 PRO        -0.0104
     18 CG        -36.1850   -7.0990    3.1400 C.3       1 PRO        -0.0281
     19 CD        -36.2210   -8.5610    2.8260 C.3       1 PRO         0.0369
     20 N         -31.8080   -7.8160    4.4890 N.am      1 ILE        -0.2692
     21 CA        -30.7960   -8.0630    5.4930 C.3       1 ILE         0.0969
     22 C         -31.3600   -7.8710    6.8840 C.2       1 ILE         0.0604
     23 O         -30.6170   -7.5920    7.8210 O.co2     1 ILE        -0.5666
     24 CB        -29.6440   -7.0920    5.3260 C.3       1 ILE        -0.0092
     25 CG1       -28.5820   -7.3500    6.3830 C.3       1 ILE        -0.0497
     26 CG2       -30.1450   -5.6790    5.4410 C.3       1 ILE        -0.0588
     27 CD1       -27.2930   -6.6380    6.1070 C.3       1 ILE        -0.0649
     28 OXT       -32.5650   -7.9930    7.0860 O.co2     1 ILE        -0.5666
     29 H1        -34.7646  -14.9139   -2.1565 H         1 ALA         0.2015
     30 H2        -35.2480  -13.3469   -2.2982 H         1 ALA         0.2015
     31 H3        -36.2126  -14.4398   -1.5336 H         1 ALA         0.2015
     32 H4        -34.6523  -14.7395    0.2002 H         1 ALA         0.1095
     33 H5        -32.7148  -13.2477    0.3057 H         1 ALA         0.0310
     34 H6        -33.1286  -12.6006   -1.3181 H         1 ALA         0.0310
     35 H7        -32.6575  -14.3240   -1.1313 H         1 ALA         0.0310
     36 H8        -33.7650  -12.4266    1.4688 H         1 VAL         0.1885
     37 H9        -36.0709  -10.5893    1.3801 H         1 VAL         0.0803
     38 H10       -36.1891  -10.8190    3.9614 H         1 VAL         0.0343
     39 H11       -37.8327  -12.6472    3.7988 H         1 VAL         0.0234
     40 H12       -37.2020  -13.0614    2.1687 H         1 VAL         0.0234
     41 H13       -37.9921  -11.4728    2.4490 H         1 VAL         0.0234
     42 H14       -34.1600  -12.2005    4.1959 H         1 VAL         0.0234
     43 H15       -34.9541  -13.5169    3.2669 H         1 VAL         0.0234
     44 H16       -35.6125  -13.0202    4.8627 H         1 VAL         0.0234
     45 H17       -33.4242   -7.4541    2.6640 H         1 PRO         0.0802
     46 H18       -34.6595   -5.8508    3.9166 H         1 PRO         0.0313
     47 H19       -35.2872   -7.0868    5.0589 H         1 PRO         0.0313
     48 H20       -36.0767   -6.5154    2.2139 H         1 PRO         0.0287
     49 H21       -37.1092   -6.7997    3.6560 H         1 PRO         0.0287
     50 H22       -36.9024   -9.0943    3.5052 H         1 PRO         0.0524
     51 H23       -36.5314   -8.7339    1.7850 H         1 PRO         0.0524
     52 H24       -31.5597   -7.2962    3.6716 H         1 ILE         0.1875
     53 H25       -30.4286   -9.0941    5.3848 H         1 ILE         0.0729
     54 H26       -29.1988   -7.2343    4.3302 H         1 ILE         0.0338
     55 H27       -28.3831   -8.4311    6.4229 H         1 ILE         0.0267
     56 H28       -28.9673   -7.0118    7.3562 H         1 ILE         0.0267
     57 H29       -30.9126   -5.4986    4.6741 H         1 ILE         0.0234
     58 H30       -29.3084   -4.9802    5.2938 H         1 ILE         0.0234
     59 H31       -30.5806   -5.5245    6.4392 H         1 ILE         0.0234
     60 H32       -26.5705   -6.8652    6.9047 H         1 ILE         0.0230
     61 H33       -27.4731   -5.5534    6.0735 H         1 ILE         0.0230
     62 H34       -26.8889   -6.9727    5.1402 H         1 ILE         0.0230
@<TRIPOS>BOND
     1    1    2 1  
     2    2    3 1  
     3    2    5 1  
     4    3    4 2  
     5    3    6 am 
     6    6    7 1  
     7    7    8 1  
     8    7   10 1  
     9    8    9 2  
    10    8   13 am 
    11   10   11 1  
    12   10   12 1  
    13   13   14 1  
    14   13   19 1  
    15   14   15 1  
    16   14   17 1  
    17   15   16 2  
    18   15   20 am 
    19   17   18 1  
    20   18   19 1  
    21   20   21 1  
    22   21   22 1  
    23   21   24 1  
    24   22   23 ar 
    25   22   28 ar 
    26   24   25 1  
    27   24   26 1  
    28   25   27 1  
    29    1   29 1  
    30    1   30 1  
    31    1   31 1  
    32    2   32 1  
    33    5   33 1  
    34    5   34 1  
    35    5   35 1  
    36    6   36 1  
    37    7   37 1  
    38   10   38 1  
    39   11   39 1  
    40   11   40 1  
    41   11   41 1  
    42   12   42 1  
    43   12   43 1  
    44   12   44 1  
    45   14   45 1  
    46   17   46 1  
    47   17   47 1  
    48   18   48 1  
    49   18   49 1  
    50   19   50 1  
    51   19   51 1  
    52   20   52 1  
    53   21   53 1  
    54   24   54 1  
    55   25   55 1  
    56   25   56 1  
    57   26   57 1  
    58   26   58 1  
    59   26   59 1  
    60   27   60 1  
    61   27   61 1  
    62   27   62 1  
@<TRIPOS>SUBSTRUCTURE
     1 ALA         1

