### 
### Created by X-TOOL on Mon Sep 10 21:13:11 2018
### 

@<TRIPOS>MOLECULE
3uii_ligand
   73    72     1     0     0
SMALL
GAST_HUCK


@<TRIPOS>ATOM
      1 N          35.5090  -14.0850    1.3210 N.4       1 ALA         0.2377
      2 CA         34.5820  -13.1260    0.6340 C.3       1 ALA         0.0621
      3 C          35.2990  -12.2210   -0.3730 C.2       1 ALA         0.2264
      4 O          36.5110  -12.0080   -0.2820 O.2       1 ALA        -0.3907
      5 CB         33.8260  -12.2920    1.6520 C.3       1 ALA        -0.0040
      6 N          34.5380  -11.6940   -1.3300 N.am      1 ARG        -0.2610
      7 CA         35.0800  -10.8300   -2.3800 C.3       1 ARG         0.1312
      8 C          34.1640   -9.6170   -2.5950 C.2       1 ARG         0.2040
      9 O          32.9710   -9.6790   -2.2880 O.2       1 ARG        -0.3944
     10 CB         35.2890  -11.6290   -3.6920 C.3       1 ARG        -0.0092
     11 CG         34.0360  -11.7970   -4.5780 C.3       1 ARG        -0.0156
     12 CD         34.2570  -12.7470   -5.7610 C.3       1 ARG         0.0627
     13 NE         33.6230  -14.0550   -5.5630 N.pl3     1 ARG        -0.2723
     14 CZ         32.4170  -14.3940   -6.0260 C.cat     1 ARG         0.2882
     15 NH1        31.9270  -15.6090   -5.7950 N.pl3     1 ARG        -0.2849
     16 NH2        31.6930  -13.5220   -6.7230 N.pl3     1 ARG        -0.2849
     17 N          34.7160   -8.5280   -3.1330 N.am      1 THR        -0.2613
     18 CA         33.9330   -7.3250   -3.4460 C.3       1 THR         0.1564
     19 C          32.8540   -7.6020   -4.5080 C.2       1 THR         0.2059
     20 O          32.9460   -8.5730   -5.2650 O.2       1 THR        -0.3943
     21 CB         34.8370   -6.1510   -3.9190 C.3       1 THR         0.0924
     22 OG1        36.1550   -6.2840   -3.3670 O.3       1 THR        -0.3874
     23 CG2        34.2470   -4.8040   -3.4930 C.3       1 THR        -0.0346
     24 N          31.8320   -6.7530   -4.5480 N.am      1 LYS        -0.2694
     25 CA         30.7670   -6.8620   -5.5340 C.3       1 LYS         0.0944
     26 C          31.2760   -6.4110   -6.9040 C.2       1 LYS         0.0601
     27 O          31.0560   -7.0800   -7.9160 O.co2     1 LYS        -0.5666
     28 CB         29.5760   -6.0030   -5.0950 C.3       1 LYS        -0.0177
     29 CG         28.3140   -6.1640   -5.9230 C.3       1 LYS        -0.0446
     30 CD         27.3360   -5.0510   -5.6170 C.3       1 LYS        -0.0125
     31 CE         26.3830   -4.8160   -6.7840 C.3       1 LYS        -0.0354
     32 NZ         25.5240   -3.6140   -6.5500 N.4       1 LYS         0.2185
     33 OXT        31.9190   -5.3670   -7.0310 O.co2     1 LYS        -0.5666
     34 H1         34.9855  -14.6524    1.9691 H         1 ALA         0.2015
     35 H2         36.2159  -13.5691    1.8212 H         1 ALA         0.2015
     36 H3         35.9484  -14.6778    0.6343 H         1 ALA         0.2015
     37 H4         33.8470  -13.7233    0.0745 H         1 ALA         0.1095
     38 H5         33.1530  -11.5966    1.1291 H         1 ALA         0.0310
     39 H6         34.5413  -11.7209    2.2621 H         1 ALA         0.0310
     40 H7         33.2357  -12.9540    2.3026 H         1 ALA         0.0310
     41 H8         33.5586  -11.8962   -1.3315 H         1 ARG         0.1884
     42 H9         36.0616  -10.4605   -2.0486 H         1 ARG         0.0800
     43 H10        35.6502  -12.6326   -3.4231 H         1 ARG         0.0313
     44 H11        36.0560  -11.1101   -4.2857 H         1 ARG         0.0313
     45 H12        33.7503  -10.8100   -4.9707 H         1 ARG         0.0301
     46 H13        33.2196  -12.1951   -3.9575 H         1 ARG         0.0301
     47 H14        35.3385  -12.8969   -5.8947 H         1 ARG         0.0689
     48 H15        33.8361  -12.2854   -6.6664 H         1 ARG         0.0689
     49 H16        34.1458  -14.7632   -5.0282 H         1 ARG         0.2642
     50 H17        30.9964  -15.8658   -6.1541 H         1 ARG         0.2615
     51 H18        32.4782  -16.2929   -5.2570 H         1 ARG         0.2615
     52 H19        32.0616  -12.5783   -6.9083 H         1 ARG         0.2615
     53 H20        30.7639  -13.7907   -7.0772 H         1 ARG         0.2615
     54 H21        35.6964   -8.5307   -3.3300 H         1 THR         0.1884
     55 H22        33.4261   -7.0112   -2.5216 H         1 THR         0.0826
     56 H23        34.9043   -6.1788   -5.0166 H         1 THR         0.0639
     57 H24        36.6957   -5.5614   -3.6636 H         1 THR         0.2101
     58 H25        34.9026   -3.9910   -3.8382 H         1 THR         0.0257
     59 H26        34.1662   -4.7694   -2.3965 H         1 THR         0.0257
     60 H27        33.2484   -4.6838   -3.9383 H         1 THR         0.0257
     61 H28        31.7935   -6.0129   -3.8766 H         1 LYS         0.1875
     62 H29        30.4454   -7.9117   -5.6017 H         1 LYS         0.0726
     63 H30        29.8822   -4.9477   -5.1457 H         1 LYS         0.0305
     64 H31        29.3343   -6.2651   -4.0544 H         1 LYS         0.0305
     65 H32        27.8470   -7.1316   -5.6873 H         1 LYS         0.0269
     66 H33        28.5751   -6.1334   -6.9911 H         1 LYS         0.0269
     67 H34        27.8965   -4.1253   -5.4199 H         1 LYS         0.0317
     68 H35        26.7513   -5.3225   -4.7257 H         1 LYS         0.0317
     69 H36        25.7384   -5.6993   -6.9039 H         1 LYS         0.0813
     70 H37        26.9705   -4.6635   -7.7014 H         1 LYS         0.0813
     71 H38        24.9063   -3.4844   -7.3359 H         1 LYS         0.1994
     72 H39        26.1079   -2.7993   -6.4437 H         1 LYS         0.1994
     73 H40        24.9789   -3.7484   -5.7128 H         1 LYS         0.1994
@<TRIPOS>BOND
     1    1    2 1  
     2    2    3 1  
     3    2    5 1  
     4    3    4 2  
     5    3    6 am 
     6    6    7 1  
     7    7    8 1  
     8    7   10 1  
     9    8    9 2  
    10    8   17 am 
    11   10   11 1  
    12   11   12 1  
    13   12   13 1  
    14   13   14 ar 
    15   14   15 ar 
    16   14   16 ar 
    17   17   18 1  
    18   18   19 1  
    19   18   21 1  
    20   19   20 2  
    21   19   24 am 
    22   21   22 1  
    23   21   23 1  
    24   24   25 1  
    25   25   26 1  
    26   25   28 1  
    27   26   27 ar 
    28   26   33 ar 
    29   28   29 1  
    30   29   30 1  
    31   30   31 1  
    32   31   32 1  
    33    1   34 1  
    34    1   35 1  
    35    1   36 1  
    36    2   37 1  
    37    5   38 1  
    38    5   39 1  
    39    5   40 1  
    40    6   41 1  
    41    7   42 1  
    42   10   43 1  
    43   10   44 1  
    44   11   45 1  
    45   11   46 1  
    46   12   47 1  
    47   12   48 1  
    48   13   49 1  
    49   15   50 1  
    50   15   51 1  
    51   16   52 1  
    52   16   53 1  
    53   17   54 1  
    54   18   55 1  
    55   21   56 1  
    56   22   57 1  
    57   23   58 1  
    58   23   59 1  
    59   23   60 1  
    60   24   61 1  
    61   25   62 1  
    62   28   63 1  
    63   28   64 1  
    64   29   65 1  
    65   29   66 1  
    66   30   67 1  
    67   30   68 1  
    68   31   69 1  
    69   31   70 1  
    70   32   71 1  
    71   32   72 1  
    72   32   73 1  
@<TRIPOS>SUBSTRUCTURE
     1 ALA         1

