### 
### Created by X-TOOL on Mon Sep 10 21:13:10 2018
### 

@<TRIPOS>MOLECULE
3uij_ligand
   62    62     1     0     0
SMALL
GAST_HUCK


@<TRIPOS>ATOM
      1 N         -35.0030  -14.6120   -1.5230 N.4       1 ALA         0.2377
      2 CA        -34.1180  -13.8580   -0.6440 C.3       1 ALA         0.0621
      3 C         -34.9170  -13.0060    0.3330 C.2       1 ALA         0.2264
      4 O         -36.1370  -12.8890    0.2130 O.2       1 ALA        -0.3907
      5 CB        -33.1800  -12.9880   -1.4580 C.3       1 ALA        -0.0040
      6 N         -34.2200  -12.4120    1.2980 N.am      1 VAL        -0.2608
      7 CA        -34.8570  -11.5660    2.3050 C.3       1 VAL         0.1336
      8 C         -33.9580  -10.3900    2.6920 C.2       1 VAL         0.2067
      9 O         -32.7360  -10.4760    2.5880 O.2       1 VAL        -0.3942
     10 CB        -35.2240  -12.3690    3.5800 C.3       1 VAL        -0.0062
     11 CG1       -36.2650  -13.4360    3.2660 C.3       1 VAL        -0.0584
     12 CG2       -33.9800  -12.9920    4.2050 C.3       1 VAL        -0.0584
     13 N         -34.5660   -9.2810    3.1360 N.am      1 PRO        -0.2498
     14 CA        -33.7970   -8.1190    3.5970 C.3       1 PRO         0.1337
     15 C         -32.9210   -8.4780    4.7920 C.2       1 PRO         0.2036
     16 O         -33.1380   -9.5120    5.4240 O.2       1 PRO        -0.3944
     17 CB        -34.8800   -7.1290    4.0350 C.3       1 PRO        -0.0104
     18 CG        -36.1140   -7.5600    3.3240 C.3       1 PRO        -0.0281
     19 CD        -36.0180   -9.0450    3.1880 C.3       1 PRO         0.0369
     20 N         -31.9470   -7.6280    5.0970 N.am      1 ILE        -0.2692
     21 CA        -31.0790   -7.8350    6.2520 C.3       1 ILE         0.0969
     22 C         -31.4670   -6.9200    7.4130 C.2       1 ILE         0.0604
     23 O         -31.4790   -7.3360    8.5740 O.co2     1 ILE        -0.5666
     24 CB        -29.6020   -7.6000    5.8880 C.3       1 ILE        -0.0092
     25 CG1       -28.8100   -7.1650    7.1220 C.3       1 ILE        -0.0497
     26 CG2       -29.4870   -6.5490    4.7990 C.3       1 ILE        -0.0588
     27 CD1       -27.4180   -6.6600    6.8040 C.3       1 ILE        -0.0649
     28 OXT       -31.7780   -5.7420    7.2180 O.co2     1 ILE        -0.5666
     29 H1        -34.4519  -15.1669   -2.1590 H         1 ALA         0.2015
     30 H2        -35.5797  -13.9731   -2.0476 H         1 ALA         0.2015
     31 H3        -35.5894  -15.2176   -0.9703 H         1 ALA         0.2015
     32 H4        -33.5146  -14.5730   -0.0655 H         1 ALA         0.1095
     33 H5        -32.5200  -12.4266   -0.7804 H         1 ALA         0.0310
     34 H6        -33.7674  -12.2833   -2.0648 H         1 ALA         0.0310
     35 H7        -32.5721  -13.6230   -2.1192 H         1 ALA         0.0310
     36 H8        -33.2301  -12.5486    1.3354 H         1 VAL         0.1885
     37 H9        -35.7847  -11.1648    1.8710 H         1 VAL         0.0803
     38 H10       -35.6597  -11.6709    4.3099 H         1 VAL         0.0343
     39 H11       -36.5090  -13.9914    4.1836 H         1 VAL         0.0234
     40 H12       -35.8631  -14.1301    2.5132 H         1 VAL         0.0234
     41 H13       -37.1746  -12.9570    2.8746 H         1 VAL         0.0234
     42 H14       -33.2446  -12.2033    4.4222 H         1 VAL         0.0234
     43 H15       -33.5423  -13.7185    3.5046 H         1 VAL         0.0234
     44 H16       -34.2558  -13.5034    5.1390 H         1 VAL         0.0234
     45 H17       -33.1770   -7.7064    2.7875 H         1 PRO         0.0802
     46 H18       -34.6058   -6.1041    3.7447 H         1 PRO         0.0313
     47 H19       -35.0266   -7.1748    5.1242 H         1 PRO         0.0313
     48 H20       -36.1669   -7.0886    2.3315 H         1 PRO         0.0287
     49 H21       -37.0056   -7.2872    3.9076 H         1 PRO         0.0287
     50 H22       -36.4698   -9.5510    4.0539 H         1 PRO         0.0524
     51 H23       -36.5076   -9.3897    2.2653 H         1 PRO         0.0524
     52 H24       -31.8045   -6.8242    4.5194 H         1 ILE         0.1875
     53 H25       -31.1936   -8.8786    6.5803 H         1 ILE         0.0729
     54 H26       -29.1788   -8.5435    5.5129 H         1 ILE         0.0338
     55 H27       -28.7205   -8.0272    7.7992 H         1 ILE         0.0267
     56 H28       -29.3652   -6.3597    7.6251 H         1 ILE         0.0267
     57 H29       -30.0595   -6.8711    3.9167 H         1 ILE         0.0234
     58 H30       -28.4299   -6.4208    4.5233 H         1 ILE         0.0234
     59 H31       -29.8883   -5.5935    5.1677 H         1 ILE         0.0234
     60 H32       -26.9124   -6.3672    7.7360 H         1 ILE         0.0230
     61 H33       -27.4876   -5.7892    6.1355 H         1 ILE         0.0230
     62 H34       -26.8429   -7.4568    6.3096 H         1 ILE         0.0230
@<TRIPOS>BOND
     1    1    2 1  
     2    2    3 1  
     3    2    5 1  
     4    3    4 2  
     5    3    6 am 
     6    6    7 1  
     7    7    8 1  
     8    7   10 1  
     9    8    9 2  
    10    8   13 am 
    11   10   11 1  
    12   10   12 1  
    13   13   14 1  
    14   13   19 1  
    15   14   15 1  
    16   14   17 1  
    17   15   16 2  
    18   15   20 am 
    19   17   18 1  
    20   18   19 1  
    21   20   21 1  
    22   21   22 1  
    23   21   24 1  
    24   22   23 ar 
    25   22   28 ar 
    26   24   25 1  
    27   24   26 1  
    28   25   27 1  
    29    1   29 1  
    30    1   30 1  
    31    1   31 1  
    32    2   32 1  
    33    5   33 1  
    34    5   34 1  
    35    5   35 1  
    36    6   36 1  
    37    7   37 1  
    38   10   38 1  
    39   11   39 1  
    40   11   40 1  
    41   11   41 1  
    42   12   42 1  
    43   12   43 1  
    44   12   44 1  
    45   14   45 1  
    46   17   46 1  
    47   17   47 1  
    48   18   48 1  
    49   18   49 1  
    50   19   50 1  
    51   19   51 1  
    52   20   52 1  
    53   21   53 1  
    54   24   54 1  
    55   25   55 1  
    56   25   56 1  
    57   26   57 1  
    58   26   58 1  
    59   26   59 1  
    60   27   60 1  
    61   27   61 1  
    62   27   62 1  
@<TRIPOS>SUBSTRUCTURE
     1 ALA         1

