### 
### Created by X-TOOL on Mon Sep 10 21:13:11 2018
### 

@<TRIPOS>MOLECULE
3uik_ligand
   73    72     1     0     0
SMALL
GAST_HUCK


@<TRIPOS>ATOM
      1 N          35.6740  -14.2190    0.8460 N.4       1 ALA         0.2377
      2 CA         34.7670  -13.2020    0.3200 C.3       1 ALA         0.0621
      3 C          35.5110  -12.1740   -0.5160 C.2       1 ALA         0.2264
      4 O          36.7030  -11.9480   -0.3020 O.2       1 ALA        -0.3907
      5 CB         34.0440  -12.5210    1.4480 C.3       1 ALA        -0.0040
      6 N          34.7970  -11.5400   -1.4490 N.am      1 ARG        -0.2610
      7 CA         35.3870  -10.5590   -2.3660 C.3       1 ARG         0.1312
      8 C          34.4990   -9.3200   -2.4960 C.2       1 ARG         0.2040
      9 O          33.2860   -9.4090   -2.3380 O.2       1 ARG        -0.3944
     10 CB         35.5890  -11.1820   -3.7580 C.3       1 ARG        -0.0092
     11 CG         34.3310  -11.1810   -4.6340 C.3       1 ARG        -0.0156
     12 CD         34.4650  -12.0440   -5.8810 C.3       1 ARG         0.0627
     13 NE         33.8970  -13.3780   -5.6870 N.pl3     1 ARG        -0.2723
     14 CZ         32.6520  -13.7160   -6.0080 C.cat     1 ARG         0.2882
     15 NH1        32.2230  -14.9560   -5.7960 N.pl3     1 ARG        -0.2849
     16 NH2        31.8390  -12.8110   -6.5430 N.pl3     1 ARG        -0.2849
     17 N          35.0950   -8.1720   -2.8130 N.am      1 THR        -0.2613
     18 CA         34.3220   -6.9650   -3.1110 C.3       1 THR         0.1564
     19 C          33.3500   -7.2490   -4.2530 C.2       1 THR         0.2059
     20 O          33.6260   -8.0850   -5.1000 O.2       1 THR        -0.3943
     21 CB         35.2360   -5.8240   -3.5850 C.3       1 THR         0.0924
     22 OG1        35.0870   -5.6600   -5.0010 O.3       1 THR        -0.3874
     23 CG2        36.6860   -6.1220   -3.2660 C.3       1 THR        -0.0346
     24 N          32.2140   -6.5610   -4.2750 N.am      1 LYS        -0.2694
     25 CA         31.2110   -6.7770   -5.3170 C.3       1 LYS         0.0944
     26 C          31.8330   -6.7990   -6.6920 C.2       1 LYS         0.0601
     27 O          31.1300   -6.7010   -7.6910 O.co2     1 LYS        -0.5666
     28 CB         30.1350   -5.6990   -5.2590 C.3       1 LYS        -0.0177
     29 CG         28.9090   -5.9430   -6.1420 C.3       1 LYS        -0.0446
     30 CD         27.8730   -4.8510   -5.8750 C.3       1 LYS        -0.0125
     31 CE         26.6020   -5.0270   -6.6890 C.3       1 LYS        -0.0354
     32 NZ         25.5560   -4.0180   -6.3330 N.4       1 LYS         0.2185
     33 OXT        33.0460   -6.9150   -6.8210 O.co2     1 LYS        -0.5666
     34 H1         35.1514  -14.8840    1.3944 H         1 ALA         0.2015
     35 H2         36.3715  -13.7796    1.4261 H         1 ALA         0.2015
     36 H3         36.1250  -14.6953    0.0806 H         1 ALA         0.2015
     37 H4         34.0254  -13.6993   -0.3224 H         1 ALA         0.1095
     38 H5         33.3645  -11.7580    1.0404 H         1 ALA         0.0310
     39 H6         34.7750  -12.0418    2.1158 H         1 ALA         0.0310
     40 H7         33.4632  -13.2647    2.0133 H         1 ALA         0.0310
     41 H8         33.8206  -11.7421   -1.5258 H         1 ARG         0.1884
     42 H9         36.3653  -10.2526   -1.9672 H         1 ARG         0.0800
     43 H10        35.9167  -12.2237   -3.6258 H         1 ARG         0.0313
     44 H11        36.3734  -10.6142   -4.2798 H         1 ARG         0.0313
     45 H12        34.1235  -10.1468   -4.9458 H         1 ARG         0.0301
     46 H13        33.4889  -11.5597   -4.0362 H         1 ARG         0.0301
     47 H14        35.5316  -12.1449   -6.1303 H         1 ARG         0.0689
     48 H15        33.9391  -11.5514   -6.7121 H         1 ARG         0.0689
     49 H16        34.5013  -14.1030   -5.2746 H         1 ARG         0.2642
     50 H17        31.2582  -15.2168   -6.0451 H         1 ARG         0.2615
     51 H18        32.8554  -15.6561   -5.3826 H         1 ARG         0.2615
     52 H19        32.1736  -11.8507   -6.7064 H         1 ARG         0.2615
     53 H20        30.8743  -13.0699   -6.7943 H         1 ARG         0.2615
     54 H21        36.0936   -8.1336   -2.8483 H         1 THR         0.1884
     55 H22        33.7711   -6.6542   -2.2111 H         1 THR         0.0826
     56 H23        34.9414   -4.8939   -3.0769 H         1 THR         0.0639
     57 H24        35.3295   -6.4671   -5.4394 H         1 THR         0.2101
     58 H25        37.3165   -5.2910   -3.6153 H         1 THR         0.0257
     59 H26        36.9895   -7.0503   -3.7721 H         1 THR         0.0257
     60 H27        36.8054   -6.2410   -2.1790 H         1 THR         0.0257
     61 H28        32.0408   -5.8803   -3.5632 H         1 LYS         0.1875
     62 H29        30.7366   -7.7530   -5.1372 H         1 LYS         0.0726
     63 H30        30.5916   -4.7474   -5.5688 H         1 LYS         0.0305
     64 H31        29.7915   -5.6188   -4.2171 H         1 LYS         0.0305
     65 H32        28.4760   -6.9265   -5.9070 H         1 LYS         0.0269
     66 H33        29.2067   -5.9169   -7.2006 H         1 LYS         0.0269
     67 H34        28.3179   -3.8768   -6.1259 H         1 LYS         0.0317
     68 H35        27.6107   -4.8702   -4.8069 H         1 LYS         0.0317
     69 H36        26.1998   -6.0339   -6.5038 H         1 LYS         0.0813
     70 H37        26.8475   -4.9207   -7.7559 H         1 LYS         0.0813
     71 H38        24.7343   -4.1730   -6.8959 H         1 LYS         0.1994
     72 H39        25.9113   -3.0906   -6.5054 H         1 LYS         0.1994
     73 H40        25.3177   -4.1107   -5.3580 H         1 LYS         0.1994
@<TRIPOS>BOND
     1    1    2 1  
     2    2    3 1  
     3    2    5 1  
     4    3    4 2  
     5    3    6 am 
     6    6    7 1  
     7    7    8 1  
     8    7   10 1  
     9    8    9 2  
    10    8   17 am 
    11   10   11 1  
    12   11   12 1  
    13   12   13 1  
    14   13   14 ar 
    15   14   15 ar 
    16   14   16 ar 
    17   17   18 1  
    18   18   19 1  
    19   18   21 1  
    20   19   20 2  
    21   19   24 am 
    22   21   22 1  
    23   21   23 1  
    24   24   25 1  
    25   25   26 1  
    26   25   28 1  
    27   26   27 ar 
    28   26   33 ar 
    29   28   29 1  
    30   29   30 1  
    31   30   31 1  
    32   31   32 1  
    33    1   34 1  
    34    1   35 1  
    35    1   36 1  
    36    2   37 1  
    37    5   38 1  
    38    5   39 1  
    39    5   40 1  
    40    6   41 1  
    41    7   42 1  
    42   10   43 1  
    43   10   44 1  
    44   11   45 1  
    45   11   46 1  
    46   12   47 1  
    47   12   48 1  
    48   13   49 1  
    49   15   50 1  
    50   15   51 1  
    51   16   52 1  
    52   16   53 1  
    53   17   54 1  
    54   18   55 1  
    55   21   56 1  
    56   22   57 1  
    57   23   58 1  
    58   23   59 1  
    59   23   60 1  
    60   24   61 1  
    61   25   62 1  
    62   28   63 1  
    63   28   64 1  
    64   29   65 1  
    65   29   66 1  
    66   30   67 1  
    67   30   68 1  
    68   31   69 1  
    69   31   70 1  
    70   32   71 1  
    71   32   72 1  
    72   32   73 1  
@<TRIPOS>SUBSTRUCTURE
     1 ALA         1

