### 
### Created by X-TOOL on Mon Sep 10 21:13:11 2018
### 

@<TRIPOS>MOLECULE
3uil_ligand
   37    36     1     0     0
SMALL
GAST_HUCK


@<TRIPOS>ATOM
      1 O1        -33.8270  -19.5430  -40.1730 O.co2     1 DAO        -0.5690
      2 O2        -34.1350  -17.5080  -40.9480 O.co2     1 DAO        -0.5690
      3 C1        -34.5280  -18.6870  -40.7760 C.2       1 DAO         0.0348
      4 C2        -35.9040  -19.0320  -41.3410 C.3       1 DAO         0.0002
      5 C3        -36.4340  -20.3920  -41.0010 C.3       1 DAO        -0.0414
      6 C4        -36.3980  -21.2200  -42.2800 C.3       1 DAO        -0.0516
      7 C5        -35.2000  -22.1680  -42.2610 C.3       1 DAO        -0.0530
      8 C6        -35.5330  -23.5690  -42.7590 C.3       1 DAO        -0.0531
      9 C7        -35.9690  -24.4390  -41.5880 C.3       1 DAO        -0.0531
     10 C8        -37.3870  -24.9620  -41.7970 C.3       1 DAO        -0.0531
     11 C9        -38.4550  -24.0550  -41.1900 C.3       1 DAO        -0.0531
     12 C10       -39.8490  -24.3920  -41.7380 C.3       1 DAO        -0.0533
     13 C11       -40.9670  -23.3740  -41.4660 C.3       1 DAO        -0.0559
     14 C12       -40.7550  -22.4570  -40.2690 C.3       1 DAO        -0.0653
     15 H1        -35.8455  -18.9585  -42.4370 H         1 DAO         0.0430
     16 H2        -36.6195  -18.2879  -40.9612 H         1 DAO         0.0430
     17 H3        -37.4672  -20.3128  -40.6319 H         1 DAO         0.0283
     18 H4        -35.8042  -20.8606  -40.2305 H         1 DAO         0.0283
     19 H5        -36.3152  -20.5472  -43.1463 H         1 DAO         0.0266
     20 H6        -37.3248  -21.8072  -42.3590 H         1 DAO         0.0266
     21 H7        -34.8305  -22.2433  -41.2277 H         1 DAO         0.0265
     22 H8        -34.4116  -21.7475  -42.9026 H         1 DAO         0.0265
     23 H9        -34.6430  -24.0105  -43.2312 H         1 DAO         0.0265
     24 H10       -36.3482  -23.5114  -43.4952 H         1 DAO         0.0265
     25 H11       -35.9377  -23.8421  -40.6645 H         1 DAO         0.0265
     26 H12       -35.2803  -25.2919  -41.4969 H         1 DAO         0.0265
     27 H13       -37.4659  -25.9557  -41.3318 H         1 DAO         0.0265
     28 H14       -37.5731  -25.0473  -42.8778 H         1 DAO         0.0265
     29 H15       -38.2175  -23.0089  -41.4334 H         1 DAO         0.0265
     30 H16       -38.4580  -24.1859  -40.0978 H         1 DAO         0.0265
     31 H17       -40.1574  -25.3506  -41.2953 H         1 DAO         0.0265
     32 H18       -39.7594  -24.5037  -42.8286 H         1 DAO         0.0265
     33 H19       -41.8995  -23.9336  -41.3007 H         1 DAO         0.0263
     34 H20       -41.0722  -22.7420  -42.3601 H         1 DAO         0.0263
     35 H21       -41.6131  -21.7756  -40.1726 H         1 DAO         0.0230
     36 H22       -39.8358  -21.8706  -40.4145 H         1 DAO         0.0230
     37 H23       -40.6631  -23.0623  -39.3551 H         1 DAO         0.0230
@<TRIPOS>BOND
     1    1    3 ar 
     2    3    2 ar 
     3    3    4 1  
     4    4    5 1  
     5    5    6 1  
     6    6    7 1  
     7    7    8 1  
     8    8    9 1  
     9    9   10 1  
    10   10   11 1  
    11   11   12 1  
    12   12   13 1  
    13   13   14 1  
    14    4   15 1  
    15    4   16 1  
    16    5   17 1  
    17    5   18 1  
    18    6   19 1  
    19    6   20 1  
    20    7   21 1  
    21    7   22 1  
    22    8   23 1  
    23    8   24 1  
    24    9   25 1  
    25    9   26 1  
    26   10   27 1  
    27   10   28 1  
    28   11   29 1  
    29   11   30 1  
    30   12   31 1  
    31   12   32 1  
    32   13   33 1  
    33   13   34 1  
    34   14   35 1  
    35   14   36 1  
    36   14   37 1  
@<TRIPOS>SUBSTRUCTURE
     1 DAO         1

