### 
### Created by X-TOOL on Mon Sep 10 21:13:09 2018
### 

@<TRIPOS>MOLECULE
3uix_ligand
   41    43     1     0     0
SMALL
GAST_HUCK


@<TRIPOS>ATOM
      1 C1        -37.4550   -3.1150   -1.3480 C.ar      1 Q17        -0.0269
      2 C2        -36.5150   -3.2090   -0.3120 C.ar      1 Q17        -0.0662
      3 C3        -36.8740   -2.9870    1.0160 C.ar      1 Q17        -0.0674
      4 C4        -38.1790   -2.6320    1.3710 C.ar      1 Q17        -0.0540
      5 C5        -39.1330   -2.5080    0.3790 C.ar      1 Q17         0.0454
      6 C6        -38.7640   -2.7790   -1.0450 C.ar      1 Q17         0.1065
      7 O7        -39.6830   -2.7010   -2.0510 O.3       1 Q17        -0.3271
      8 C8        -40.5100   -2.1630    0.7890 C.ar      1 Q17         0.0930
      9 N9        -40.7860   -1.9700    2.1120 N.ar      1 Q17        -0.2550
     10 C10       -42.0400   -1.6660    2.5060 C.ar      1 Q17         0.1404
     11 C11       -43.0530   -1.5460    1.5450 C.ar      1 Q17         0.0525
     12 C12       -42.7440   -1.7500    0.2090 C.ar      1 Q17         0.0393
     13 N13       -41.4710   -2.0500   -0.1390 N.ar      1 Q17        -0.2964
     14 C14       -43.7180   -1.6550   -0.7890 C.ar      1 Q17        -0.0419
     15 C15       -45.0330   -1.3350   -0.4340 C.ar      1 Q17        -0.0565
     16 C16       -45.3430   -1.1430    0.9070 C.ar      1 Q17        -0.0554
     17 C17       -44.3680   -1.2390    1.9050 C.ar      1 Q17        -0.0411
     18 N18       -42.2930   -1.5040    3.8230 N.pl3     1 Q17        -0.2928
     19 C19       -41.2300   -1.3240    4.8130 C.3       1 Q17         0.0378
     20 C20       -40.2580   -2.5000    5.0540 C.3       1 Q17         0.0085
     21 C21       -40.8770   -3.8170    5.4820 C.3       1 Q17        -0.0334
     22 N22       -39.9600   -4.5710    6.3510 N.4       1 Q17         0.2186
     23 H1        -37.1607   -3.3031   -2.3742 H         1 Q17         0.0554
     24 H2        -35.4874   -3.4596   -0.5491 H         1 Q17         0.0624
     25 H3        -36.1242   -3.0919    1.7918 H         1 Q17         0.0538
     26 H4        -38.4385   -2.4567    2.4088 H         1 Q17         0.0632
     27 H5        -39.2633   -2.9054   -2.8784 H         1 Q17         0.2514
     28 H6        -43.4573   -1.8274   -1.8270 H         1 Q17         0.0619
     29 H7        -45.7994   -1.2382   -1.1945 H         1 Q17         0.0672
     30 H8        -46.3650   -0.9133    1.1861 H         1 Q17         0.0619
     31 H9        -44.6290   -1.0773    2.9446 H         1 Q17         0.0685
     32 H10       -43.2720   -1.5073    4.1430 H         1 Q17         0.1912
     33 H11       -41.7134   -1.0967    5.7746 H         1 Q17         0.0535
     34 H12       -40.6271   -0.4615    4.4927 H         1 Q17         0.0535
     35 H13       -39.5511   -2.1930    5.8389 H         1 Q17         0.0338
     36 H14       -39.7106   -2.6778    4.1166 H         1 Q17         0.0338
     37 H15       -41.1006   -4.4172    4.5877 H         1 Q17         0.0814
     38 H16       -41.8088   -3.6154    6.0307 H         1 Q17         0.0814
     39 H17       -40.3924   -5.4403    6.6218 H         1 Q17         0.1994
     40 H18       -39.7542   -4.0273    7.1744 H         1 Q17         0.1994
     41 H19       -39.1052   -4.7620    5.8521 H         1 Q17         0.1994
@<TRIPOS>BOND
     1    1    2 ar 
     2    1    6 ar 
     3    2    3 ar 
     4    3    4 ar 
     5    4    5 ar 
     6    5    6 ar 
     7    5    8 1  
     8    6    7 1  
     9    8    9 ar 
    10    8   13 ar 
    11    9   10 ar 
    12   10   11 ar 
    13   10   18 1  
    14   11   12 ar 
    15   11   17 ar 
    16   12   13 ar 
    17   12   14 ar 
    18   14   15 ar 
    19   15   16 ar 
    20   16   17 ar 
    21   18   19 1  
    22   19   20 1  
    23   20   21 1  
    24   21   22 1  
    25    1   23 1  
    26    2   24 1  
    27    3   25 1  
    28    4   26 1  
    29    7   27 1  
    30   14   28 1  
    31   15   29 1  
    32   16   30 1  
    33   17   31 1  
    34   18   32 1  
    35   19   33 1  
    36   19   34 1  
    37   20   35 1  
    38   20   36 1  
    39   21   37 1  
    40   21   38 1  
    41   22   39 1  
    42   22   40 1  
    43   22   41 1  
@<TRIPOS>SUBSTRUCTURE
     1 Q17         1

