### 
### Created by X-TOOL on Fri Sep 26 17:34:50 2014
### 

@<TRIPOS>MOLECULE
3ujb_ligand
   46    48     1     0     0
SMALL
GAST_HUCK


@<TRIPOS>ATOM
      1 N          46.9410   -0.5710   25.5050 N.4       1 SAH         0.2327
      2 CA         45.8910    0.2760   24.8850 C.3       1 SAH         0.0291
      3 CB         45.9840    1.7480   25.4270 C.3       1 SAH         0.0114
      4 CG         47.2760    2.4690   25.0280 C.3       1 SAH         0.0005
      5 SD         47.3590    4.1870   25.6240 S.3       1 SAH        -0.1578
      6 C          45.9970    0.1880   23.4160 C.2       1 SAH         0.0844
      7 O          46.9630   -0.3650   22.9160 O.co2     1 SAH        -0.5643
      8 OXT        45.1800    0.7440   22.7180 O.co2     1 SAH        -0.5643
      9 C5'        47.9520    4.0870   27.3290 C.3       1 SAH         0.0226
     10 C4'        47.0080    3.7660   28.3570 C.3       1 SAH         0.0995
     11 O4'        47.7510    3.6010   29.5920 O.3       1 SAH        -0.3383
     12 C3'        46.0550    4.8880   28.5930 C.3       1 SAH         0.1132
     13 O3'        44.7310    4.4570   28.3170 O.3       1 SAH        -0.3864
     14 C2'        46.2790    5.2780   30.0030 C.3       1 SAH         0.1385
     15 O2'        45.1100    5.6900   30.6870 O.3       1 SAH        -0.3836
     16 C1'        46.9040    4.0570   30.5990 C.3       1 SAH         0.2009
     17 N9         47.6620    4.3040   31.8820 N.pl3     1 SAH        -0.1919
     18 C8         48.6090    5.2230   32.1010 C.2       1 SAH         0.1123
     19 N7         49.0340    5.0920   33.3580 N.2       1 SAH        -0.2958
     20 C5         48.3660    4.0780   33.9400 C.ar      1 SAH         0.1045
     21 C6         48.3890    3.5160   35.2280 C.ar      1 SAH         0.1298
     22 N6         49.2360    3.9930   36.1970 N.pl3     1 SAH        -0.3152
     23 N1         47.5580    2.4930   35.4890 N.ar      1 SAH        -0.2698
     24 C2         46.7230    2.0170   34.5570 C.ar      1 SAH         0.0533
     25 N3         46.6660    2.5410   33.3080 N.ar      1 SAH        -0.2714
     26 C4         47.4720    3.5700   32.9860 C.ar      1 SAH         0.1613
     27 H1         46.8705   -0.5125   26.5088 H         1 SAH         0.2010
     28 H2         47.8498   -0.2475   25.2126 H         1 SAH         0.2010
     29 H3         46.8155   -1.5281   25.2146 H         1 SAH         0.2010
     30 H4         44.9079   -0.1232   25.1752 H         1 SAH         0.1024
     31 H5         45.9275    1.7183   26.5251 H         1 SAH         0.0347
     32 H6         45.1310    2.3187   25.0312 H         1 SAH         0.0347
     33 H7         47.3460    2.4771   23.9303 H         1 SAH         0.0379
     34 H8         48.1286    1.9135   25.4458 H         1 SAH         0.0379
     35 H9         48.3877    5.0652   27.5805 H         1 SAH         0.0402
     36 H10        48.7377    3.3177   27.3563 H         1 SAH         0.0402
     37 H11        46.4614    2.8479   28.0957 H         1 SAH         0.0632
     38 H12        46.2911    5.7370   27.9347 H         1 SAH         0.0647
     39 H13        44.1274    5.1748   28.4686 H         1 SAH         0.2100
     40 H14        46.9936    6.1134   30.0400 H         1 SAH         0.0676
     41 H15        44.4800    4.9789   30.6917 H         1 SAH         0.2101
     42 H16        46.1238    3.3094   30.8048 H         1 SAH         0.0996
     43 H17        48.9705    5.9523   31.3775 H         1 SAH         0.1349
     44 H18        49.2374    3.5672   37.1349 H         1 SAH         0.1820
     45 H19        49.8702    4.7768   35.9863 H         1 SAH         0.1820
     46 H20        46.0726    1.1872   34.8088 H         1 SAH         0.0996
@<TRIPOS>BOND
     1    1    2 1  
     2    2    3 1  
     3    2    6 1  
     4    3    4 1  
     5    4    5 1  
     6    5    9 1  
     7    6    7 ar 
     8    6    8 ar 
     9    9   10 1  
    10   10   11 1  
    11   10   12 1  
    12   11   16 1  
    13   12   13 1  
    14   12   14 1  
    15   14   15 1  
    16   14   16 1  
    17   16   17 1  
    18   17   18 1  
    19   17   26 1  
    20   18   19 2  
    21   19   20 1  
    22   20   21 ar 
    23   20   26 ar 
    24   21   22 1  
    25   21   23 ar 
    26   23   24 ar 
    27   24   25 ar 
    28   25   26 ar 
    29    1   27 1  
    30    1   28 1  
    31    1   29 1  
    32    2   30 1  
    33    3   31 1  
    34    3   32 1  
    35    4   33 1  
    36    4   34 1  
    37    9   35 1  
    38    9   36 1  
    39   10   37 1  
    40   12   38 1  
    41   13   39 1  
    42   14   40 1  
    43   15   41 1  
    44   16   42 1  
    45   18   43 1  
    46   22   44 1  
    47   22   45 1  
    48   24   46 1  
@<TRIPOS>SUBSTRUCTURE
     1 SAH         1

