### 
### Created by X-TOOL on Mon Sep 10 21:13:15 2018
### 

@<TRIPOS>MOLECULE
3ukr_ligand
   39    41     1     0     0
SMALL
GAST_HUCK


@<TRIPOS>ATOM
      1 CAQ         2.3450   14.7090   38.6440 C.3       1 CKH        -0.0124
      2 CAP         1.1600   14.9290   37.7010 C.2       1 CKH         0.0349
      3 NAO         0.5770   13.9750   36.9820 N.pl3     1 CKH        -0.2818
      4 CAN        -0.4480   14.5090   36.3170 C.ar      1 CKH         0.0558
      5 CAM        -1.3870   13.9460   35.4600 C.ar      1 CKH        -0.0483
      6 CAL        -2.3950   14.7320   34.9120 C.ar      1 CKH        -0.0802
      7 CAA        -2.4670   16.0850   35.2170 C.ar      1 CKH        -0.0830
      8 CAB        -1.5270   16.6530   36.0720 C.ar      1 CKH        -0.0799
      9 CAC        -0.5220   15.8650   36.6190 C.ar      1 CKH        -0.0319
     10 CAD         0.5140   16.1420   37.5030 C.2       1 CKH        -0.0468
     11 CAE         0.8950   17.5120   38.0720 C.3       1 CKH        -0.0220
     12 CAF         0.1010   17.8350   39.3400 C.3       1 CKH         0.0325
     13 NAG         0.4990   16.9240   40.4230 N.am      1 CKH        -0.2859
     14 CAH         1.4030   17.2820   41.3290 C.2       1 CKH         0.2043
     15 OAR         1.9490   18.3870   41.3270 O.2       1 CKH        -0.3870
     16 CAI         1.7400   16.2520   42.4110 C.ar      1 CKH         0.0833
     17 CAJ         2.8370   16.4880   43.2280 C.ar      1 CKH        -0.0437
     18 CAK         3.1860   15.5860   44.2290 C.ar      1 CKH        -0.0602
     19 CAU         2.4320   14.4330   44.4160 C.ar      1 CKH        -0.0593
     20 CAT         1.3330   14.1930   43.6000 C.ar      1 CKH        -0.0222
     21 CAS         0.9860   15.0950   42.6030 C.ar      1 CKH         0.1534
     22 FAV        -0.0980   14.8300   41.8450 F         1 CKH        -0.1773
     23 H1          2.6256   15.6653   39.1095 H         1 CKH         0.0408
     24 H2          3.1989   14.3142   38.0739 H         1 CKH         0.0408
     25 H3          2.0623   13.9894   39.4265 H         1 CKH         0.0408
     26 H4          0.8685   12.9878   36.9448 H         1 CKH         0.2216
     27 H5         -1.3332   12.8907   35.2181 H         1 CKH         0.0531
     28 H6         -3.1257   14.2879   34.2457 H         1 CKH         0.0502
     29 H7         -3.2533   16.6971   34.7903 H         1 CKH         0.0500
     30 H8         -1.5790   17.7091   36.3108 H         1 CKH         0.0510
     31 H9          0.6884   18.2831   37.3152 H         1 CKH         0.0340
     32 H10         1.9683   17.5128   38.3128 H         1 CKH         0.0340
     33 H11        -0.9737   17.7149   39.1384 H         1 CKH         0.0530
     34 H12         0.3035   18.8728   39.6431 H         1 CKH         0.0530
     35 H13         0.0813   16.0171   40.4791 H         1 CKH         0.1844
     36 H14         3.4286   17.3850   43.0849 H         1 CKH         0.0659
     37 H15         4.0441   15.7822   44.8616 H         1 CKH         0.0595
     38 H16         2.6995   13.7261   45.1930 H         1 CKH         0.0642
     39 H17         0.7425   13.2953   43.7428 H         1 CKH         0.0616
@<TRIPOS>BOND
     1    1    2 1  
     2    2    3 1  
     3    2   10 2  
     4    3    4 1  
     5    4    5 ar 
     6    4    9 ar 
     7    5    6 ar 
     8    6    7 ar 
     9    7    8 ar 
    10    8    9 ar 
    11    9   10 1  
    12   10   11 1  
    13   11   12 1  
    14   12   13 1  
    15   13   14 am 
    16   14   15 2  
    17   14   16 1  
    18   16   17 ar 
    19   16   21 ar 
    20   17   18 ar 
    21   18   19 ar 
    22   19   20 ar 
    23   20   21 ar 
    24   21   22 1  
    25    1   23 1  
    26    1   24 1  
    27    1   25 1  
    28    3   26 1  
    29    5   27 1  
    30    6   28 1  
    31    7   29 1  
    32    8   30 1  
    33   11   31 1  
    34   11   32 1  
    35   12   33 1  
    36   12   34 1  
    37   13   35 1  
    38   17   36 1  
    39   18   37 1  
    40   19   38 1  
    41   20   39 1  
@<TRIPOS>SUBSTRUCTURE
     1 CKH         1

