### 
### Created by X-TOOL on Mon Sep 10 21:13:15 2018
### 

@<TRIPOS>MOLECULE
3uli_ligand
   54    57     1     0     0
SMALL
GAST_HUCK


@<TRIPOS>ATOM
      1 C1          6.9650   23.3700    8.1180 C.3       1 1N3         0.0609
      2 O2          7.2100   24.4700    7.2180 O.3       1 1N3        -0.3173
      3 C3          6.1640   25.4070    7.2250 C.ar      1 1N3         0.0968
      4 C4          5.1780   25.3830    8.1940 C.ar      1 1N3        -0.0268
      5 C5          4.1820   26.3340    8.1570 C.ar      1 1N3        -0.0522
      6 C6          4.1530   27.2980    7.1590 C.ar      1 1N3         0.0232
      7 C7          5.1350   27.3240    6.1870 C.ar      1 1N3        -0.0522
      8 C8          6.1320   26.3690    6.2250 C.ar      1 1N3        -0.0268
      9 C9          3.0720   28.3190    7.2490 C.2       1 1N3         0.1343
     10 N10         3.2070   29.6280    6.7870 N.pl3     1 1N3        -0.2412
     11 C11         2.0920   30.2330    7.1780 C.ar      1 1N3         0.1413
     12 C12         1.2730   29.1820    7.8690 C.ar      1 1N3         0.0805
     13 N13         1.9460   28.0750    7.8650 N.2       1 1N3        -0.3042
     14 C14         0.0400   29.5240    8.4050 C.ar      1 1N3         0.0719
     15 C15        -0.3170   30.8580    8.2090 C.ar      1 1N3         0.0416
     16 C16         0.4780   31.7790    7.5620 C.ar      1 1N3        -0.0110
     17 N17         1.6600   31.4580    7.0610 N.ar      1 1N3        -0.3007
     18 BR1        -1.9660   31.5260    8.8450 Br        1 1N3        -0.0635
     19 N19        -0.8850   28.7000    9.0950 N.pl3     1 1N3        -0.3139
     20 C20        -0.4680   27.3420    9.4370 C.3       1 1N3         0.0292
     21 C21         0.3930   27.3810   10.6910 C.3       1 1N3        -0.0124
     22 C22        -0.2860   28.0970   11.8380 C.3       1 1N3         0.0315
     23 N23        -1.4080   27.3320   12.3190 N.am      1 1N3        -0.2990
     24 C24        -2.7010   27.6520   11.9640 C.2       1 1N3         0.1540
     25 O25        -3.0000   28.6480   11.3080 O.2       1 1N3        -0.3867
     26 C26        -3.7700   26.7090   12.4100 C.3       1 1N3         0.1260
     27 C27        -4.8350   26.3890   11.3950 C.2       1 1N3        -0.0328
     28 C28        -5.1620   27.2760   12.5370 C.2       1 1N3        -0.0328
     29 C29        -3.5020   25.6130   13.4010 C.3       1 1N3        -0.0466
     30 N30        -3.2490   26.0590   14.7910 N.4       1 1N3         0.2084
     31 H1          7.8098   22.6667    8.0759 H         1 1N3         0.0581
     32 H2          6.0414   22.8518    7.8208 H         1 1N3         0.0581
     33 H3          6.8571   23.7525    9.1437 H         1 1N3         0.0581
     34 H4          5.1885   24.6273    8.9711 H         1 1N3         0.0559
     35 H5          3.4101   26.3293    8.9181 H         1 1N3         0.0637
     36 H6          5.1230   28.0794    5.4097 H         1 1N3         0.0637
     37 H7          6.9017   26.3708    5.4617 H         1 1N3         0.0559
     38 H8          3.9942   30.0337    6.2611 H         1 1N3         0.2326
     39 H9          0.1240   32.7985    7.4602 H         1 1N3         0.0737
     40 H10        -1.8212   29.0477    9.3471 H         1 1N3         0.1819
     41 H11         0.1127   26.9156    8.6058 H         1 1N3         0.0521
     42 H12        -1.3565   26.7200    9.6206 H         1 1N3         0.0521
     43 H13         1.3333   27.9018   10.4573 H         1 1N3         0.0304
     44 H14         0.6127   26.3485   11.0003 H         1 1N3         0.0304
     45 H15        -0.6397   29.0795   11.4924 H         1 1N3         0.0522
     46 H16         0.4357   28.2343   12.6567 H         1 1N3         0.0522
     47 H17        -1.2453   26.5521   12.9234 H         1 1N3         0.1843
     48 H18        -5.1420   25.8776   10.4839 H         1 1N3         0.1217
     49 H19        -5.8825   27.8899   13.0755 H         1 1N3         0.1217
     50 H20        -2.6186   25.0543   13.0581 H         1 1N3         0.0638
     51 H21        -4.3762   24.9454   13.4130 H         1 1N3         0.0638
     52 H22        -3.0811   25.2557   15.3763 H         1 1N3         0.1980
     53 H23        -4.0522   26.5624   15.1338 H         1 1N3         0.1980
     54 H24        -2.4416   26.6622   14.8087 H         1 1N3         0.1980
@<TRIPOS>BOND
     1    1    2 1  
     2    2    3 1  
     3    3    4 ar 
     4    3    8 ar 
     5    4    5 ar 
     6    5    6 ar 
     7    6    7 ar 
     8    6    9 1  
     9    7    8 ar 
    10    9   10 1  
    11    9   13 2  
    12   10   11 1  
    13   11   12 ar 
    14   11   17 ar 
    15   12   13 1  
    16   12   14 ar 
    17   14   15 ar 
    18   14   19 1  
    19   15   16 ar 
    20   15   18 1  
    21   16   17 ar 
    22   19   20 1  
    23   20   21 1  
    24   21   22 1  
    25   22   23 1  
    26   23   24 am 
    27   24   25 2  
    28   24   26 1  
    29   26   27 1  
    30   26   28 1  
    31   26   29 1  
    32   27   28 2  
    33   29   30 1  
    34    1   31 1  
    35    1   32 1  
    36    1   33 1  
    37    4   34 1  
    38    5   35 1  
    39    7   36 1  
    40    8   37 1  
    41   10   38 1  
    42   16   39 1  
    43   19   40 1  
    44   20   41 1  
    45   20   42 1  
    46   21   43 1  
    47   21   44 1  
    48   22   45 1  
    49   22   46 1  
    50   23   47 1  
    51   27   48 1  
    52   28   49 1  
    53   29   50 1  
    54   29   51 1  
    55   30   52 1  
    56   30   53 1  
    57   30   54 1  
@<TRIPOS>SUBSTRUCTURE
     1 1N3         1

