### 
### Created by X-TOOL on Mon Sep 10 21:13:11 2018
### 

@<TRIPOS>MOLECULE
3umq_ligand
   13    12     1     0     0
SMALL
GAST_HUCK


@<TRIPOS>ATOM
      1 C1        -34.8580  -25.3280  -44.7580 C.3       1 BUA        -0.0638
      2 C2        -35.6440  -24.9180  -43.5360 C.3       1 BUA        -0.0443
      3 C3        -35.1840  -23.5340  -43.0680 C.3       1 BUA        -0.0001
      4 C4        -36.2480  -22.8540  -42.2370 C.2       1 BUA         0.0348
      5 O1        -36.5670  -21.6910  -42.4950 O.co2     1 BUA        -0.5690
      6 O2        -36.7810  -23.4660  -41.3100 O.co2     1 BUA        -0.5690
      7 H1        -35.1907  -26.3221  -45.0914 H         1 BUA         0.0231
      8 H2        -33.7869  -25.3640  -44.5100 H         1 BUA         0.0231
      9 H3        -35.0237  -24.5968  -45.5629 H         1 BUA         0.0231
     10 H4        -35.4781  -25.6499  -42.7318 H         1 BUA         0.0280
     11 H5        -36.7149  -24.8828  -43.7847 H         1 BUA         0.0280
     12 H6        -34.9653  -22.9122  -43.9486 H         1 BUA         0.0430
     13 H7        -34.2727  -23.6451  -42.4621 H         1 BUA         0.0430
@<TRIPOS>BOND
     1    1    2 1  
     2    2    3 1  
     3    3    4 1  
     4    4    5 ar 
     5    4    6 ar 
     6    1    7 1  
     7    1    8 1  
     8    1    9 1  
     9    2   10 1  
    10    2   11 1  
    11    3   12 1  
    12    3   13 1  
@<TRIPOS>SUBSTRUCTURE
     1 BUA         1

