### 
### Created by X-TOOL on Mon Sep 10 21:13:10 2018
### 

@<TRIPOS>MOLECULE
3unj_ligand
   36    38     1     0     0
SMALL
GAST_HUCK


@<TRIPOS>ATOM
      1 C06        74.5060   63.8680   64.9580 C.ar      1 0BX        -0.0016
      2 C11        73.7440   62.5950   65.1230 C.2       1 0BX         0.0553
      3 C05        74.3820   64.8040   65.9650 C.ar      1 0BX        -0.0571
      4 C10        75.0490   66.0090   65.9010 C.ar      1 0BX        -0.0343
      5 C09        75.8620   66.2870   64.8170 C.ar      1 0BX         0.0684
      6 C08        76.0000   65.3520   63.7860 C.ar      1 0BX        -0.0343
      7 C07        75.3160   64.1320   63.8530 C.ar      1 0BX        -0.0571
      8 N01        76.5070   67.5640   64.8520 N.pl3     1 0BX        -0.2427
      9 C12        77.5730   67.9790   63.9980 C.ar      1 0BX         0.1960
     10 N03        77.9400   69.2650   63.9980 N.ar      1 0BX        -0.2686
     11 C15        78.9360   69.7050   63.2090 C.ar      1 0BX         0.0014
     12 C14        79.5710   68.7840   62.3730 C.ar      1 0BX        -0.0016
     13 C13        79.1710   67.4450   62.3910 C.ar      1 0BX         0.1343
     14 N02        78.1770   67.0820   63.2180 N.ar      1 0BX        -0.2342
     15 N04        79.7560   66.4340   61.5580 N.pl3     1 0BX        -0.2559
     16 C16        80.9130   66.6080   60.7340 C.ar      1 0BX         0.0640
     17 C17        82.0750   67.1630   61.2550 C.ar      1 0BX        -0.0382
     18 C18        83.2110   67.3280   60.4710 C.ar      1 0BX        -0.0714
     19 C19        83.1990   66.9070   59.1460 C.ar      1 0BX        -0.0733
     20 C20        82.0380   66.3310   58.6370 C.ar      1 0BX        -0.0714
     21 C21        80.8930   66.1780   59.4140 C.ar      1 0BX        -0.0382
     22 O22        72.7780   62.5650   65.9450 O.co2     1 0BX        -0.5638
     23 O23        74.0540   61.5600   64.4710 O.co2     1 0BX        -0.5638
     24 H1         73.7505   64.5883   66.8193 H         1 0BX         0.0622
     25 H2         74.9367   66.7359   66.6973 H         1 0BX         0.0545
     26 H3         76.6358   65.5716   62.9359 H         1 0BX         0.0545
     27 H4         75.4144   63.4026   63.0572 H         1 0BX         0.0622
     28 H5         76.1738   68.2412   65.5529 H         1 0BX         0.2187
     29 H6         79.2378   70.7461   63.2215 H         1 0BX         0.0849
     30 H7         80.3694   69.1058   61.7141 H         1 0BX         0.0585
     31 H8         79.3065   65.5072   61.5526 H         1 0BX         0.2161
     32 H9         82.0963   67.4735   62.2934 H         1 0BX         0.0536
     33 H10        84.1013   67.7824   60.8904 H         1 0BX         0.0587
     34 H11        84.0768   67.0249   58.5211 H         1 0BX         0.0519
     35 H12        82.0253   65.9924   57.6073 H         1 0BX         0.0587
     36 H13        79.9994   65.7299   58.9948 H         1 0BX         0.0536
@<TRIPOS>BOND
     1    1    2 1  
     2    1    3 ar 
     3    1    7 ar 
     4    2   22 ar 
     5    2   23 ar 
     6    3    4 ar 
     7    4    5 ar 
     8    5    6 ar 
     9    5    8 1  
    10    6    7 ar 
    11    8    9 1  
    12    9   10 ar 
    13    9   14 ar 
    14   10   11 ar 
    15   11   12 ar 
    16   12   13 ar 
    17   13   14 ar 
    18   13   15 1  
    19   15   16 1  
    20   16   17 ar 
    21   16   21 ar 
    22   17   18 ar 
    23   18   19 ar 
    24   19   20 ar 
    25   20   21 ar 
    26    3   24 1  
    27    4   25 1  
    28    6   26 1  
    29    7   27 1  
    30    8   28 1  
    31   11   29 1  
    32   12   30 1  
    33   15   31 1  
    34   17   32 1  
    35   18   33 1  
    36   19   34 1  
    37   20   35 1  
    38   21   36 1  
@<TRIPOS>SUBSTRUCTURE
     1 0BX         1

