### 
### Created by X-TOOL on Mon Sep 10 21:13:09 2018
### 

@<TRIPOS>MOLECULE
3unk_ligand
   36    38     1     0     0
SMALL
GAST_HUCK


@<TRIPOS>ATOM
      1 N01        -9.9360   10.7710   13.6520 N.pl3     1 0BY        -0.2427
      2 N02       -11.7600    9.2680   13.2060 N.ar      1 0BY        -0.2342
      3 N03       -11.3720   10.0300   15.3750 N.ar      1 0BY        -0.2685
      4 N04       -13.5760    7.7590   12.6680 N.pl3     1 0BY        -0.2551
      5 C05        -8.9770    9.7750   10.1460 C.ar      1 0BY        -0.0571
      6 C06        -8.1560   10.8680    9.8270 C.ar      1 0BY        -0.0016
      7 C07        -7.9440   11.8650   10.7600 C.ar      1 0BY        -0.0571
      8 C08        -8.5470   11.7980   11.9990 C.ar      1 0BY        -0.0343
      9 C09        -9.3760   10.7370   12.3310 C.ar      1 0BY         0.0684
     10 C10        -9.6010    9.7140   11.3980 C.ar      1 0BY        -0.0343
     11 C11        -7.4600   11.0160    8.5090 C.2       1 0BY         0.0553
     12 C12       -11.0590    9.9940   14.0800 C.ar      1 0BY         0.1961
     13 C13       -12.8240    8.5360   13.6050 C.ar      1 0BY         0.1345
     14 C14       -13.1590    8.5650   14.9540 C.ar      1 0BY        -0.0015
     15 C15       -12.4120    9.3290   15.8500 C.ar      1 0BY         0.0014
     16 C16       -14.7720    7.0460   13.0430 C.ar      1 0BY         0.0781
     17 C17       -15.8360    7.7110   13.6490 C.ar      1 0BY        -0.0375
     18 C18       -16.9740    6.9980   13.9890 C.ar      1 0BY        -0.0712
     19 C19       -17.0820    5.6380   13.7130 C.ar      1 0BY        -0.0728
     20 C20       -16.0340    4.9750   13.0980 C.ar      1 0BY        -0.0574
     21 C21       -14.8860    5.6850   12.7670 C.ar      1 0BY         0.0627
     22 O25        -7.7940   10.2950    7.5320 O.co2     1 0BY        -0.5638
     23 O26        -6.5210   11.8580    8.3850 O.co2     1 0BY        -0.5638
     24 CL2       -13.5800    4.8660   12.0000 Cl        1 0BY        -0.0793
     25 H1         -9.4985   11.3993   14.3410 H         1 0BY         0.2187
     26 H2        -13.2518    7.7071   11.6917 H         1 0BY         0.2165
     27 H3         -9.1276    8.9799    9.4247 H         1 0BY         0.0622
     28 H4         -7.3011   12.7034   10.5173 H         1 0BY         0.0622
     29 H5         -8.3704   12.5854   12.7228 H         1 0BY         0.0545
     30 H6        -10.2524    8.8833   11.6442 H         1 0BY         0.0545
     31 H7        -14.0058    7.9904   15.3114 H         1 0BY         0.0585
     32 H8        -12.6655    9.3556   16.9036 H         1 0BY         0.0849
     33 H9        -15.7740    8.7740   13.8520 H         1 0BY         0.0536
     34 H10       -17.7953    7.5085   14.4789 H         1 0BY         0.0589
     35 H11       -17.9844    5.0995   13.9790 H         1 0BY         0.0520
     36 H12       -16.1077    3.9162   12.8775 H         1 0BY         0.0593
@<TRIPOS>BOND
     1    9    1 1  
     2    1   12 1  
     3   12    2 ar 
     4    2   13 ar 
     5   12    3 ar 
     6    3   15 ar 
     7   13    4 1  
     8    4   16 1  
     9    6    5 ar 
    10    5   10 ar 
    11    7    6 ar 
    12    6   11 1  
    13    8    7 ar 
    14    8    9 ar 
    15    9   10 ar 
    16   11   22 ar 
    17   11   23 ar 
    18   13   14 ar 
    19   14   15 ar 
    20   16   17 ar 
    21   16   21 ar 
    22   17   18 ar 
    23   18   19 ar 
    24   19   20 ar 
    25   20   21 ar 
    26   21   24 1  
    27    1   25 1  
    28    4   26 1  
    29    5   27 1  
    30    7   28 1  
    31    8   29 1  
    32   10   30 1  
    33   14   31 1  
    34   15   32 1  
    35   17   33 1  
    36   18   34 1  
    37   19   35 1  
    38   20   36 1  
@<TRIPOS>SUBSTRUCTURE
     1 0BY         1

