### 
### Created by X-TOOL on Mon Sep 10 21:13:11 2018
### 

@<TRIPOS>MOLECULE
3unz_ligand
   36    38     1     0     0
SMALL
GAST_HUCK


@<TRIPOS>ATOM
      1 F24       -27.6050   12.0540    8.8310 F         1 0BZ        -0.1905
      2 N01       -30.7620    7.8950   12.2310 N.pl3     1 0BZ        -0.2428
      3 N02       -29.5290    8.6500   10.3110 N.ar      1 0BZ        -0.2345
      4 N03       -28.5500    7.1610   11.8340 N.ar      1 0BZ        -0.2688
      5 N04       -28.3440    9.4390    8.3650 N.pl3     1 0BZ        -0.2557
      6 C05       -33.4240   10.0090   10.6850 C.ar      1 0BZ        -0.0571
      7 C06       -34.5460    9.5040   11.3390 C.ar      1 0BZ        -0.0016
      8 C07       -34.4060    8.4860   12.2660 C.ar      1 0BZ        -0.0571
      9 C08       -33.1510    7.9740   12.5360 C.ar      1 0BZ        -0.0343
     10 C09       -32.0310    8.4640   11.8840 C.ar      1 0BZ         0.0684
     11 C10       -32.1640    9.4890   10.9580 C.ar      1 0BZ        -0.0343
     12 C11       -35.9130   10.0370   11.0640 C.2       1 0BZ         0.0553
     13 C12       -29.5830    7.9090   11.4220 C.ar      1 0BZ         0.1958
     14 C13       -28.4140    8.6600    9.5600 C.ar      1 0BZ         0.1335
     15 C14       -27.3290    7.8840    9.9640 C.ar      1 0BZ        -0.0018
     16 C15       -27.4100    7.1220   11.1270 C.ar      1 0BZ         0.0012
     17 C16       -29.2500   10.5250    8.1520 C.ar      1 0BZ         0.0984
     18 C17       -30.5350   10.2770    7.7000 C.ar      1 0BZ        -0.0396
     19 C18       -31.4100   11.3290    7.4920 C.ar      1 0BZ        -0.0754
     20 C19       -30.9990   12.6310    7.7340 C.ar      1 0BZ        -0.0751
     21 C20       -29.7120   12.8790    8.1870 C.ar      1 0BZ        -0.0375
     22 C21       -28.8390   11.8240    8.3970 C.ar      1 0BZ         0.1548
     23 O25       -36.8390    9.8220   11.8860 O.co2     1 0BZ        -0.5638
     24 O26       -36.1410   10.6970   10.0160 O.co2     1 0BZ        -0.5638
     25 H         -30.6936    7.4373   13.1400 H         1 0BZ         0.2187
     26 H         -27.6424    9.2191    7.6580 H         1 0BZ         0.2152
     27 H         -33.5345   10.8134    9.9578 H         1 0BZ         0.0622
     28 H         -35.2814    8.0899   12.7807 H         1 0BZ         0.0622
     29 H         -33.0411    7.1758   13.2701 H         1 0BZ         0.0545
     30 H         -31.2856    9.8841   10.4477 H         1 0BZ         0.0545
     31 H         -26.4158    7.8735    9.3689 H         1 0BZ         0.0584
     32 H         -26.5695    6.5100   11.4544 H         1 0BZ         0.0848
     33 H         -30.8574    9.2536    7.5080 H         1 0BZ         0.0525
     34 H         -32.4223   11.1340    7.1379 H         1 0BZ         0.0554
     35 H         -31.6875   13.4596    7.5682 H         1 0BZ         0.0510
     36 H         -29.3879   13.9021    8.3775 H         1 0BZ         0.0573
@<TRIPOS>BOND
     1   22    1 1  
     2    2   10 1  
     3   13    2 1  
     4    3   13 ar 
     5   14    3 ar 
     6   13    4 ar 
     7   16    4 ar 
     8    5   14 1  
     9   17    5 1  
    10    6    7 ar 
    11   11    6 ar 
    12    8    7 ar 
    13    7   12 1  
    14    9    8 ar 
    15   10    9 ar 
    16   10   11 ar 
    17   12   23 ar 
    18   12   24 ar 
    19   14   15 ar 
    20   15   16 ar 
    21   17   18 ar 
    22   17   22 ar 
    23   18   19 ar 
    24   19   20 ar 
    25   20   21 ar 
    26   21   22 ar 
    27    2   25 1  
    28    5   26 1  
    29    6   27 1  
    30    8   28 1  
    31    9   29 1  
    32   11   30 1  
    33   15   31 1  
    34   16   32 1  
    35   18   33 1  
    36   19   34 1  
    37   20   35 1  
    38   21   36 1  
@<TRIPOS>SUBSTRUCTURE
     1 0BZ         1

