### 
### Created by X-TOOL on Mon Sep 10 21:13:11 2018
### 

@<TRIPOS>MOLECULE
3uo4_ligand
   46    49     1     0     0
SMALL
GAST_HUCK


@<TRIPOS>ATOM
      1 N01         3.3240   31.8130    8.7720 N.ar      1 0C0        -0.2685
      2 N02         3.9920   31.0910    6.6460 N.ar      1 0C0        -0.2339
      3 N03         5.1850   28.9910    6.3330 N.pl3     1 0C0        -0.2537
      4 N04         2.8100   33.1870    6.9250 N.pl3     1 0C0        -0.2427
      5 C05         3.8550   30.7150    9.3340 C.ar      1 0C0         0.0015
      6 C06         3.3940   31.9830    7.4480 C.ar      1 0C0         0.1962
      7 C07         4.5400   29.9730    7.1670 C.ar      1 0C0         0.1353
      8 C08         4.4810   29.7570    8.5430 C.ar      1 0C0        -0.0013
      9 C09         5.3080   29.1560    4.9110 C.ar      1 0C0         0.0745
     10 C10         4.1690   29.2970    4.1320 C.ar      1 0C0        -0.0363
     11 C11         4.2830   29.4510    2.7580 C.ar      1 0C0        -0.0708
     12 C12         5.5270   29.4620    2.1490 C.ar      1 0C0        -0.0722
     13 C13         6.6650   29.3170    2.9260 C.ar      1 0C0        -0.0625
     14 C14         6.5600   29.1630    4.3020 C.ar      1 0C0         0.0075
     15 C15         7.8100   29.0150    5.1070 C.ar      1 0C0        -0.0223
     16 C16         2.3670   33.4040    5.5790 C.ar      1 0C0         0.0684
     17 C17         1.3210   34.2930    5.3680 C.ar      1 0C0        -0.0343
     18 C18         0.8660   34.5490    4.0840 C.ar      1 0C0        -0.0571
     19 C19         1.4610   33.9140    3.0030 C.ar      1 0C0        -0.0016
     20 C20         2.5130   33.0280    3.2090 C.ar      1 0C0        -0.0571
     21 C21         2.9690   32.7760    4.4970 C.ar      1 0C0        -0.0343
     22 C22         0.9650   34.1900    1.6220 C.2       1 0C0         0.0553
     23 C23         8.1860   27.7760    5.6060 C.ar      1 0C0        -0.0571
     24 C24         9.3520   27.6560    6.3460 C.ar      1 0C0        -0.0632
     25 C25        10.1400   28.7720    6.5840 C.ar      1 0C0        -0.0635
     26 C26         9.7680   30.0100    6.0860 C.ar      1 0C0        -0.0632
     27 C27         8.6030   30.1290    5.3450 C.ar      1 0C0        -0.0571
     28 O28         1.6710   33.8690    0.6290 O.co2     1 0C0        -0.5638
     29 O29        -0.1570   34.7430    1.4500 O.co2     1 0C0        -0.5638
     30 H1          5.5708   28.1423    6.7708 H         1 0C0         0.2176
     31 H2          2.6986   33.9721    7.5823 H         1 0C0         0.2187
     32 H3          3.7957   30.5747   10.4073 H         1 0C0         0.0849
     33 H4          4.9117   28.8658    8.9850 H         1 0C0         0.0586
     34 H5          3.1898   29.2869    4.5968 H         1 0C0         0.0537
     35 H6          3.3894   29.5639    2.1548 H         1 0C0         0.0591
     36 H7          5.6094   29.5829    1.0749 H         1 0C0         0.0524
     37 H8          7.6424   29.3238    2.4572 H         1 0C0         0.0594
     38 H9          0.8576   34.7897    6.2127 H         1 0C0         0.0545
     39 H10         0.0484   35.2427    3.9248 H         1 0C0         0.0622
     40 H11         2.9777   32.5335    2.3637 H         1 0C0         0.0622
     41 H12         3.7933   32.0903    4.6568 H         1 0C0         0.0545
     42 H13         7.5697   26.9044    5.4177 H         1 0C0         0.0606
     43 H14         9.6478   26.6899    6.7386 H         1 0C0         0.0613
     44 H15        11.0516   28.6751    7.1626 H         1 0C0         0.0603
     45 H16        10.3849   30.8811    6.2749 H         1 0C0         0.0613
     46 H17         8.3101   31.0951    4.9500 H         1 0C0         0.0606
@<TRIPOS>BOND
     1    1    5 ar 
     2    1    6 ar 
     3    6    2 ar 
     4    2    7 ar 
     5    7    3 1  
     6    3    9 1  
     7    6    4 1  
     8    4   16 1  
     9    5    8 ar 
    10    7    8 ar 
    11    9   10 ar 
    12    9   14 ar 
    13   10   11 ar 
    14   11   12 ar 
    15   12   13 ar 
    16   13   14 ar 
    17   14   15 1  
    18   15   23 ar 
    19   15   27 ar 
    20   16   17 ar 
    21   16   21 ar 
    22   17   18 ar 
    23   18   19 ar 
    24   19   20 ar 
    25   19   22 1  
    26   20   21 ar 
    27   22   28 ar 
    28   22   29 ar 
    29   23   24 ar 
    30   24   25 ar 
    31   25   26 ar 
    32   26   27 ar 
    33    3   30 1  
    34    4   31 1  
    35    5   32 1  
    36    8   33 1  
    37   10   34 1  
    38   11   35 1  
    39   12   36 1  
    40   13   37 1  
    41   17   38 1  
    42   18   39 1  
    43   20   40 1  
    44   21   41 1  
    45   23   42 1  
    46   24   43 1  
    47   25   44 1  
    48   26   45 1  
    49   27   46 1  
@<TRIPOS>SUBSTRUCTURE
     1 0C0         1

