### 
### Created by X-TOOL on Mon Sep 10 21:13:11 2018
### 

@<TRIPOS>MOLECULE
3uo5_ligand
   36    38     1     0     0
SMALL
GAST_HUCK


@<TRIPOS>ATOM
      1 C06        -2.1810  -33.5520    3.2570 C.ar      1 0BX        -0.0016
      2 C11        -1.7540  -33.7930    1.8580 C.2       1 0BX         0.0553
      3 C05        -1.4650  -34.1310    4.2860 C.ar      1 0BX        -0.0571
      4 C10        -1.8640  -33.9050    5.5930 C.ar      1 0BX        -0.0343
      5 C09        -2.9730  -33.1120    5.8760 C.ar      1 0BX         0.0684
      6 C08        -3.6910  -32.5520    4.8300 C.ar      1 0BX        -0.0343
      7 C07        -3.2880  -32.7670    3.5210 C.ar      1 0BX        -0.0571
      8 N01        -3.3290  -32.9430    7.2600 N.pl3     1 0BX        -0.2427
      9 C12        -3.9930  -31.8340    7.8650 C.ar      1 0BX         0.1960
     10 N03        -3.9490  -31.7430    9.1930 N.ar      1 0BX        -0.2686
     11 C15        -4.5450  -30.7290    9.8430 C.ar      1 0BX         0.0014
     12 C14        -5.2200  -29.7640    9.1100 C.ar      1 0BX        -0.0016
     13 C13        -5.2590  -29.8810    7.7350 C.ar      1 0BX         0.1343
     14 N02        -4.6420  -30.9120    7.1480 N.ar      1 0BX        -0.2342
     15 N04        -5.9520  -28.9190    6.9430 N.pl3     1 0BX        -0.2559
     16 C16        -6.1920  -29.2000    5.5590 C.ar      1 0BX         0.0640
     17 C17        -7.4520  -29.5850    5.1280 C.ar      1 0BX        -0.0382
     18 C18        -7.6630  -29.8440    3.7820 C.ar      1 0BX        -0.0714
     19 C19        -6.6270  -29.7230    2.8670 C.ar      1 0BX        -0.0733
     20 C20        -5.3750  -29.3360    3.2970 C.ar      1 0BX        -0.0714
     21 C21        -5.1580  -29.0750    4.6430 C.ar      1 0BX        -0.0382
     22 O22        -0.5740  -34.1790    1.6200 O.co2     1 0BX        -0.5638
     23 O23        -2.5840  -33.6240    0.9280 O.co2     1 0BX        -0.5638
     24 H          -0.5984  -34.7568    4.0728 H         1 0BX         0.0622
     25 H          -1.3018  -34.3543    6.4117 H         1 0BX         0.0545
     26 H          -4.5713  -31.9434    5.0368 H         1 0BX         0.0545
     27 H          -3.8445  -32.3166    2.6991 H         1 0BX         0.0622
     28 H          -3.0761  -33.7088    7.8844 H         1 0BX         0.2187
     29 H          -4.4987  -30.6658   10.9302 H         1 0BX         0.0849
     30 H          -5.7104  -28.9290    9.6103 H         1 0BX         0.0585
     31 H          -6.2723  -28.0431    7.3561 H         1 0BX         0.2161
     32 H          -8.2703  -29.6834    5.8413 H         1 0BX         0.0536
     33 H          -8.6528  -30.1457    3.4394 H         1 0BX         0.0587
     34 H          -6.8020  -29.9331    1.8119 H         1 0BX         0.0519
     35 H          -4.5584  -29.2354    2.5821 H         1 0BX         0.0587
     36 H          -4.1682  -28.7697    4.9824 H         1 0BX         0.0536
@<TRIPOS>BOND
     1    1    2 1  
     2    1    3 ar 
     3    1    7 ar 
     4    2   22 ar 
     5    2   23 ar 
     6    3    4 ar 
     7    4    5 ar 
     8    5    6 ar 
     9    5    8 1  
    10    6    7 ar 
    11    8    9 1  
    12    9   10 ar 
    13    9   14 ar 
    14   10   11 ar 
    15   11   12 ar 
    16   12   13 ar 
    17   13   14 ar 
    18   13   15 1  
    19   15   16 1  
    20   16   17 ar 
    21   16   21 ar 
    22   17   18 ar 
    23   18   19 ar 
    24   19   20 ar 
    25   20   21 ar 
    26    3   24 1  
    27    4   25 1  
    28    6   26 1  
    29    7   27 1  
    30    8   28 1  
    31   11   29 1  
    32   12   30 1  
    33   15   31 1  
    34   17   32 1  
    35   18   33 1  
    36   19   34 1  
    37   20   35 1  
    38   21   36 1  
@<TRIPOS>SUBSTRUCTURE
     1 0BX         1

