### 
### Created by X-TOOL on Mon Sep 10 21:13:11 2018
### 

@<TRIPOS>MOLECULE
3uo6_ligand
   36    38     1     0     0
SMALL
GAST_HUCK


@<TRIPOS>ATOM
      1 N01         8.5350   30.6570   -0.3600 N.pl3     1 0BY        -0.2427
      2 N02         7.2030   29.9250    1.5120 N.ar      1 0BY        -0.2342
      3 N03         8.0760   28.3650   -0.0060 N.ar      1 0BY        -0.2685
      4 N04         5.8440   29.2550    3.4240 N.pl3     1 0BY        -0.2551
      5 C05         7.9480   33.9730    1.2560 C.ar      1 0BY        -0.0571
      6 C06         9.0000   34.7110    0.7140 C.ar      1 0BY        -0.0016
      7 C07         9.8850   34.1010   -0.1610 C.ar      1 0BY        -0.0571
      8 C08         9.7130   32.7680   -0.5040 C.ar      1 0BY        -0.0343
      9 C09         8.6690   32.0300    0.0370 C.ar      1 0BY         0.0684
     10 C10         7.7810   32.6340    0.9190 C.ar      1 0BY        -0.0343
     11 C11         9.1960   36.1450    1.0930 C.2       1 0BY         0.0553
     12 C12         7.9160   29.6260    0.4150 C.ar      1 0BY         0.1961
     13 C13         6.6150   28.9530    2.2440 C.ar      1 0BY         0.1345
     14 C14         6.7850   27.6290    1.8150 C.ar      1 0BY        -0.0015
     15 C15         7.5290   27.3380    0.6710 C.ar      1 0BY         0.0014
     16 C16         5.2730   30.5580    3.6250 C.ar      1 0BY         0.0781
     17 C17         6.1160   31.5880    4.0180 C.ar      1 0BY        -0.0375
     18 C18         5.6220   32.8660    4.2290 C.ar      1 0BY        -0.0712
     19 C19         4.2690   33.1280    4.0440 C.ar      1 0BY        -0.0728
     20 C20         3.4170   32.1060    3.6460 C.ar      1 0BY        -0.0574
     21 C21         3.9120   30.8240    3.4400 C.ar      1 0BY         0.0627
     22 O25         9.3200   37.0470    0.2240 O.co2     1 0BY        -0.5638
     23 O26         9.2590   36.4500    2.3150 O.co2     1 0BY        -0.5638
     24 CL2         2.7980   29.6000    2.9490 Cl        1 0BY        -0.0793
     25 H           8.9126   30.3946   -1.2705 H         1 0BY         0.2187
     26 H           5.7014   28.5312    4.1284 H         1 0BY         0.2165
     27 H           7.2526   34.4484    1.9478 H         1 0BY         0.0622
     28 H          10.7161   34.6687   -0.5796 H         1 0BY         0.0622
     29 H          10.4029   32.2963   -1.2037 H         1 0BY         0.0545
     30 H           6.9573   32.0609    1.3448 H         1 0BY         0.0545
     31 H           6.3303   26.8169    2.3823 H         1 0BY         0.0585
     32 H           7.6633   26.3097    0.3355 H         1 0BY         0.0849
     33 H           7.1781   31.3900    4.1623 H         1 0BY         0.0536
     34 H           6.2943   33.6656    4.5400 H         1 0BY         0.0589
     35 H           3.8785   34.1319    4.2107 H         1 0BY         0.0520
     36 H           2.3570   32.3101    3.4948 H         1 0BY         0.0593
@<TRIPOS>BOND
     1    9    1 1  
     2    1   12 1  
     3   12    2 ar 
     4    2   13 ar 
     5   12    3 ar 
     6    3   15 ar 
     7   13    4 1  
     8    4   16 1  
     9    6    5 ar 
    10    5   10 ar 
    11    7    6 ar 
    12    6   11 1  
    13    8    7 ar 
    14    8    9 ar 
    15    9   10 ar 
    16   11   22 ar 
    17   11   23 ar 
    18   13   14 ar 
    19   14   15 ar 
    20   16   17 ar 
    21   16   21 ar 
    22   17   18 ar 
    23   18   19 ar 
    24   19   20 ar 
    25   20   21 ar 
    26   21   24 1  
    27    1   25 1  
    28    4   26 1  
    29    5   27 1  
    30    7   28 1  
    31    8   29 1  
    32   10   30 1  
    33   14   31 1  
    34   15   32 1  
    35   17   33 1  
    36   18   34 1  
    37   19   35 1  
    38   20   36 1  
@<TRIPOS>SUBSTRUCTURE
     1 0BY         1

