### 
### Created by X-TOOL on Mon Sep 10 21:13:06 2018
### 

@<TRIPOS>MOLECULE
3uo9_ligand
   59    62     1     0     0
SMALL
GAST_HUCK


@<TRIPOS>ATOM
      1 OAA        -4.7040   10.8110   43.7270 O.2       1 04A        -0.3778
      2 OAB         7.0440   10.2880   44.4940 O.2       1 04A        -0.3778
      3 CAC        -6.5420    6.2110   44.2600 C.ar      1 04A        -0.0684
      4 CAD        12.2290    9.3120   44.1340 C.ar      1 04A        -0.0684
      5 CAE        -5.3860    6.3000   45.0500 C.ar      1 04A        -0.0681
      6 CAF        -7.3220    7.3520   44.0060 C.ar      1 04A        -0.0681
      7 CAG        11.6250    8.0540   43.9110 C.ar      1 04A        -0.0681
      8 CAH        11.4840   10.4800   43.8990 C.ar      1 04A        -0.0681
      9 CAI        -5.0070    7.5350   45.5850 C.ar      1 04A        -0.0579
     10 CAJ        -6.9420    8.5910   44.5410 C.ar      1 04A        -0.0579
     11 CAK        10.2860    7.9570   43.4650 C.ar      1 04A        -0.0579
     12 CAL        10.1480   10.3770   43.4480 C.ar      1 04A        -0.0579
     13 CAM         0.5330   14.4950   42.5620 C.3       1 04A         0.0092
     14 CAN         2.1730   14.0460   44.7090 C.3       1 04A         0.0092
     15 CAO        -0.9830   14.6670   42.5220 C.3       1 04A         0.0235
     16 CAP         3.3620   14.7350   44.0400 C.3       1 04A         0.0235
     17 CAQ        -5.4000    9.8870   45.8700 C.3       1 04A         0.0781
     18 CAR         8.1990    9.0030   42.7740 C.3       1 04A         0.0781
     19 NAS        -1.5030   14.1600   44.9890 N.2       1 04A        -0.2882
     20 NAT         4.2810   13.5500   41.9600 N.2       1 04A        -0.2882
     21 NAU        -2.2110   13.3550   45.7900 N.2       1 04A        -0.2759
     22 NAV         5.1780   12.5190   41.5090 N.2       1 04A        -0.2759
     23 NAW        -3.7410   11.5880   45.6630 N.am      1 04A        -0.1939
     24 NAX         6.7160   10.8980   42.2750 N.am      1 04A        -0.1939
     25 SAY         1.1600   13.0860   43.5310 S.3       1 04A        -0.1551
     26 SAZ        -2.6800   12.7190   43.3500 S.3       1 04A         0.0620
     27 SBA         5.2950   12.6230   44.0980 S.3       1 04A         0.0620
     28 CBB        -4.5610   10.7920   44.9550 C.2       1 04A         0.2252
     29 CBC         7.2610   10.1440   43.2780 C.2       1 04A         0.2252
     30 CBD        -5.7760    8.6740   45.3190 C.ar      1 04A        -0.0236
     31 CBE         9.5320    9.1230   43.2300 C.ar      1 04A        -0.0236
     32 CBF        -1.6660   13.9200   43.6510 C.2       1 04A         0.0984
     33 CBG         4.2410   13.7100   43.3100 C.2       1 04A         0.0984
     34 CBH        -2.9470   12.4820   45.0810 C.2       1 04A         0.2169
     35 CBI         5.8340   11.8920   42.5040 C.2       1 04A         0.2169
     36 H          -6.8374    5.2495   43.8400 H         1 04A         0.0561
     37 H          13.2594    9.3754   44.4838 H         1 04A         0.0561
     38 H          -4.7864    5.4110   45.2457 H         1 04A         0.0600
     39 H          -8.2207    7.2739   43.3942 H         1 04A         0.0600
     40 H          12.1997    7.1444   44.0853 H         1 04A         0.0600
     41 H          11.9333   11.4594   44.0634 H         1 04A         0.0600
     42 H          -4.1153    7.6106   46.2074 H         1 04A         0.0561
     43 H          -7.5449    9.4798   44.3551 H         1 04A         0.0561
     44 H           9.8367    6.9772   43.3028 H         1 04A         0.0561
     45 H           9.5782   11.2877   43.2636 H         1 04A         0.0561
     46 H           0.9277   15.3916   43.0399 H         1 04A         0.0406
     47 H           0.8457   14.3187   41.5328 H         1 04A         0.0406
     48 H           1.5389   14.8192   45.1428 H         1 04A         0.0406
     49 H           2.5637   13.3543   45.4554 H         1 04A         0.0406
     50 H          -1.3479   14.2659   41.5765 H         1 04A         0.0510
     51 H          -1.2098   15.7279   42.6274 H         1 04A         0.0510
     52 H           3.9592   15.2303   44.8055 H         1 04A         0.0510
     53 H           2.9885   15.4589   43.3157 H         1 04A         0.0510
     54 H          -6.3200   10.4297   46.0871 H         1 04A         0.0666
     55 H          -4.7792    9.6573   46.7360 H         1 04A         0.0666
     56 H           8.2202    9.0543   41.6854 H         1 04A         0.0666
     57 H           7.8053    8.0623   43.1591 H         1 04A         0.0666
     58 H          -3.7274   11.5035   46.6794 H         1 04A         0.2394
     59 H           6.9886   10.6997   41.3123 H         1 04A         0.2394
@<TRIPOS>BOND
     1   28    1 2  
     2   29    2 2  
     3    5    3 ar 
     4    6    3 ar 
     5    7    4 ar 
     6    8    4 ar 
     7    9    5 ar 
     8   10    6 ar 
     9   11    7 ar 
    10   12    8 ar 
    11   30    9 ar 
    12   30   10 ar 
    13   31   11 ar 
    14   31   12 ar 
    15   13   15 1  
    16   25   13 1  
    17   16   14 1  
    18   14   25 1  
    19   15   32 1  
    20   33   16 1  
    21   28   17 1  
    22   17   30 1  
    23   29   18 1  
    24   18   31 1  
    25   19   21 1  
    26   32   19 2  
    27   22   20 1  
    28   20   33 2  
    29   21   34 2  
    30   35   22 2  
    31   23   28 am 
    32   34   23 1  
    33   24   29 am 
    34   24   35 1  
    35   32   26 1  
    36   26   34 1  
    37   33   27 1  
    38   27   35 1  
    39    3   36 1  
    40    4   37 1  
    41    5   38 1  
    42    6   39 1  
    43    7   40 1  
    44    8   41 1  
    45    9   42 1  
    46   10   43 1  
    47   11   44 1  
    48   12   45 1  
    49   13   46 1  
    50   13   47 1  
    51   14   48 1  
    52   14   49 1  
    53   15   50 1  
    54   15   51 1  
    55   16   52 1  
    56   16   53 1  
    57   17   54 1  
    58   17   55 1  
    59   18   56 1  
    60   18   57 1  
    61   23   58 1  
    62   24   59 1  
@<TRIPOS>SUBSTRUCTURE
     1 04A         1

