### 
### Created by X-TOOL on Mon Sep 10 21:13:10 2018
### 

@<TRIPOS>MOLECULE
3uod_ligand
   39    41     1     0     0
SMALL
GAST_HUCK


@<TRIPOS>ATOM
      1 N01         3.9850   31.8040    9.1840 N.ar      1 0C3        -0.2658
      2 N02         4.7060   31.0230    7.0960 N.ar      1 0C3        -0.2298
      3 N03         5.9020   28.9500    6.9080 N.pl3     1 0C3        -0.2337
      4 N04         3.4930   33.1100    7.2580 N.pl3     1 0C3        -0.2423
      5 C05         4.5110   30.7340    9.8240 C.ar      1 0C3         0.0041
      6 C06         4.0780   31.9390    7.8480 C.ar      1 0C3         0.1988
      7 C07         5.2390   29.9350    7.6900 C.ar      1 0C3         0.1463
      8 C08         5.1570   29.7540    9.0680 C.ar      1 0C3         0.0026
      9 C09         6.2770   29.2260    5.5620 C.ar      1 0C3         0.1028
     10 C10         5.2800   29.2120    4.5850 C.ar      1 0C3        -0.0054
     11 C11         5.6010   29.4610    3.2580 C.ar      1 0C3        -0.0431
     12 C12         6.9220   29.7260    2.9220 C.ar      1 0C3        -0.0440
     13 C13         7.9220   29.7390    3.8970 C.ar      1 0C3        -0.0414
     14 C14         7.6140   29.4870    5.2310 C.ar      1 0C3         0.0676
     15 C15         8.7300   29.5060    6.2520 C.3       1 0C3         0.3631
     16 C16         3.0970   33.2740    5.8840 C.ar      1 0C3         0.0684
     17 C17         3.7620   32.6380    4.8450 C.ar      1 0C3        -0.0343
     18 C18         3.3720   32.8220    3.5200 C.ar      1 0C3        -0.0571
     19 C19         2.3170   33.6790    3.2520 C.ar      1 0C3        -0.0016
     20 C20         1.6500   34.3350    4.2860 C.ar      1 0C3        -0.0571
     21 C21         2.0450   34.1330    5.5990 C.ar      1 0C3        -0.0343
     22 C22         1.8710   33.8760    1.8450 C.2       1 0C3         0.0553
     23 O23         0.6500   34.1430    1.6150 O.co2     1 0C3        -0.5638
     24 O24         2.6970   33.7490    0.9070 O.co2     1 0C3        -0.5638
     25 F25         8.2800   29.3670    7.5070 F         1 0C3        -0.2353
     26 F26         9.3860   30.6630    6.1620 F         1 0C3        -0.2353
     27 F27         9.5770   28.4960    6.0010 F         1 0C3        -0.2353
     28 H1          6.1129   28.0291    7.3183 H         1 0C3         0.2316
     29 H2          3.3412   33.9153    7.8820 H         1 0C3         0.2187
     30 H3          4.4324   30.6397   10.9010 H         1 0C3         0.0856
     31 H4          5.5829   28.8765    9.5408 H         1 0C3         0.0604
     32 H5          4.2528   29.0062    4.8635 H         1 0C3         0.0622
     33 H6          4.8314   29.4488    2.4947 H         1 0C3         0.0813
     34 H7          7.1808   29.9256    1.8884 H         1 0C3         0.0619
     35 H8          8.9471   29.9472    3.6124 H         1 0C3         0.0793
     36 H9          4.5994   31.9868    5.0682 H         1 0C3         0.0545
     37 H10         3.8834   32.3054    2.7158 H         1 0C3         0.0622
     38 H11         0.8245   35.0014    4.0634 H         1 0C3         0.0622
     39 H12         1.5318   34.6464    6.4040 H         1 0C3         0.0545
@<TRIPOS>BOND
     1    1    5 ar 
     2    1    6 ar 
     3    6    2 ar 
     4    2    7 ar 
     5    7    3 1  
     6    3    9 1  
     7    6    4 1  
     8    4   16 1  
     9    5    8 ar 
    10    7    8 ar 
    11    9   10 ar 
    12    9   14 ar 
    13   10   11 ar 
    14   11   12 ar 
    15   12   13 ar 
    16   13   14 ar 
    17   14   15 1  
    18   15   25 1  
    19   15   26 1  
    20   15   27 1  
    21   16   17 ar 
    22   16   21 ar 
    23   17   18 ar 
    24   18   19 ar 
    25   19   20 ar 
    26   19   22 1  
    27   20   21 ar 
    28   22   23 ar 
    29   22   24 ar 
    30    3   28 1  
    31    4   29 1  
    32    5   30 1  
    33    8   31 1  
    34   10   32 1  
    35   11   33 1  
    36   12   34 1  
    37   13   35 1  
    38   17   36 1  
    39   18   37 1  
    40   20   38 1  
    41   21   39 1  
@<TRIPOS>SUBSTRUCTURE
     1 0C3         1

