### 
### Created by X-TOOL on Mon Sep 10 21:13:11 2018
### 

@<TRIPOS>MOLECULE
3uoh_ligand
   36    38     1     0     0
SMALL
GAST_HUCK


@<TRIPOS>ATOM
      1 BR2         2.5530   19.9000    9.1550 Br        1 0C4        -0.0586
      2 N01         8.5860   18.9810   12.2220 N.pl3     1 0C4        -0.2427
      3 N02         7.1090   19.5650   10.3900 N.ar      1 0C4        -0.2339
      4 N03         8.0080   21.2310   11.7840 N.ar      1 0C4        -0.2684
      5 N04         5.6190   20.1260    8.5270 N.pl3     1 0C4        -0.2541
      6 C05         7.9980   15.5430   10.8820 C.ar      1 0C4        -0.0571
      7 C06         9.0660   14.8610   11.4570 C.ar      1 0C4        -0.0016
      8 C07         9.9560   15.5390   12.2690 C.ar      1 0C4        -0.0571
      9 C08         9.7810   16.8930   12.5090 C.ar      1 0C4        -0.0343
     10 C09         8.7220   17.5790   11.9350 C.ar      1 0C4         0.0684
     11 C10         7.8260   16.9020   11.1170 C.ar      1 0C4        -0.0343
     12 C11         9.2700   13.4080   11.2040 C.2       1 0C4         0.0553
     13 C12         7.8720   19.9430   11.4310 C.ar      1 0C4         0.1962
     14 C13         6.4480   20.4860    9.6530 C.ar      1 0C4         0.1351
     15 C14         6.5900   21.8310   10.0160 C.ar      1 0C4        -0.0013
     16 C15         7.3840   22.2010   11.1000 C.ar      1 0C4         0.0015
     17 C16         5.1010   18.7970    8.3230 C.ar      1 0C4         0.0735
     18 C17         5.9260   17.7720    7.8970 C.ar      1 0C4        -0.0355
     19 C18         5.4070   16.4950    7.7090 C.ar      1 0C4        -0.0686
     20 C19         4.0610   16.2370    7.9450 C.ar      1 0C4        -0.0705
     21 C20         3.2280   17.2550    8.3700 C.ar      1 0C4        -0.0619
     22 C21         3.7550   18.5200    8.5510 C.ar      1 0C4         0.0352
     23 O25        10.0220   12.7460   11.9650 O.co2     1 0C4        -0.5638
     24 O26         8.7050   12.8480   10.2250 O.co2     1 0C4        -0.5638
     25 H           9.0400   19.3250   13.0681 H         1 0C4         0.2187
     26 H           5.3890   20.8470    7.8432 H         1 0C4         0.2172
     27 H           7.2933   15.0091   10.2445 H         1 0C4         0.0622
     28 H          10.7949   15.0092   12.7203 H         1 0C4         0.0622
     29 H          10.4818   17.4226   13.1543 H         1 0C4         0.0545
     30 H           6.9913   17.4346   10.6613 H         1 0C4         0.0545
     31 H           6.0720   22.5997    9.4425 H         1 0C4         0.0586
     32 H           7.4945   23.2477   11.3834 H         1 0C4         0.0849
     33 H           6.9822   17.9646    7.7087 H         1 0C4         0.0544
     34 H           6.0609   15.6899    7.3739 H         1 0C4         0.0611
     35 H           3.6633   15.2333    7.7950 H         1 0C4         0.0527
     36 H           2.1719   17.0632    8.5595 H         1 0C4         0.0615
@<TRIPOS>BOND
     1   22    1 1  
     2    2   10 1  
     3   13    2 1  
     4    3   13 ar 
     5   14    3 ar 
     6   13    4 ar 
     7   16    4 ar 
     8    5   14 1  
     9   17    5 1  
    10    6    7 ar 
    11   11    6 ar 
    12    8    7 ar 
    13    7   12 1  
    14    9    8 ar 
    15   10    9 ar 
    16   10   11 ar 
    17   12   23 ar 
    18   12   24 ar 
    19   14   15 ar 
    20   15   16 ar 
    21   17   18 ar 
    22   17   22 ar 
    23   18   19 ar 
    24   19   20 ar 
    25   20   21 ar 
    26   21   22 ar 
    27    2   25 1  
    28    5   26 1  
    29    6   27 1  
    30    8   28 1  
    31    9   29 1  
    32   11   30 1  
    33   15   31 1  
    34   16   32 1  
    35   18   33 1  
    36   19   34 1  
    37   20   35 1  
    38   21   36 1  
@<TRIPOS>SUBSTRUCTURE
     1 0C4         1

