### 
### Created by X-TOOL on Mon Sep 10 21:13:11 2018
### 

@<TRIPOS>MOLECULE
3uoj_ligand
   37    39     1     0     0
SMALL
GAST_HUCK


@<TRIPOS>ATOM
      1 O01        -8.8780   36.4680   10.2830 O.co2     1 0C5        -0.5638
      2 C02        -9.3420   35.8660   11.2810 C.2       1 0C5         0.0553
      3 C03        -9.0550   34.4370   11.5480 C.ar      1 0C5        -0.0016
      4 C04        -9.7280   33.8400   12.5940 C.ar      1 0C5        -0.0571
      5 C05        -9.4860   32.4970   12.8650 C.ar      1 0C5        -0.0343
      6 C06        -8.1610   33.6880   10.7710 C.ar      1 0C5        -0.0571
      7 C07        -7.9260   32.3440   11.0460 C.ar      1 0C5        -0.0343
      8 C08        -8.6000   31.7420   12.1020 C.ar      1 0C5         0.0684
      9 N09        -8.4120   30.3630   12.4630 N.pl3     1 0C5        -0.2426
     10 C10        -7.8700   29.3670   11.5820 C.ar      1 0C5         0.1967
     11 N11        -7.0240   29.7280   10.6110 N.ar      1 0C5        -0.2331
     12 C12        -6.4960   28.8120    9.7760 C.ar      1 0C5         0.1375
     13 N13        -5.5350   29.2030    8.6640 N.pl3     1 0C5        -0.2475
     14 C14        -5.2060   30.5850    8.4220 C.ar      1 0C5         0.1010
     15 C15        -6.2150   31.4790    8.0760 C.ar      1 0C5        -0.0261
     16 C16        -5.8970   32.8110    7.8410 C.ar      1 0C5        -0.0625
     17 C17        -4.5790   33.2630    7.9440 C.ar      1 0C5        -0.0619
     18 C18        -3.5710   32.3710    8.2930 C.ar      1 0C5        -0.0362
     19 C19        -3.8940   31.0350    8.5260 C.ar      1 0C5         0.1182
     20 C20        -2.7810   30.0820    8.8960 C.1       1 0C5         0.0896
     21 N21        -1.9690   29.4190    9.1570 N.1       1 0C5        -0.3399
     22 C22        -6.8690   27.4710    9.9720 C.ar      1 0C5        -0.0006
     23 C23        -7.7430   27.1200   10.9950 C.ar      1 0C5         0.0019
     24 N24        -8.2300   28.0940   11.7870 N.ar      1 0C5        -0.2680
     25 O25       -10.1320   36.4840   12.1120 O.co2     1 0C5        -0.5638
     26 H         -10.4357   34.4095   13.1965 H         1 0C5         0.0622
     27 H         -10.0048   32.0228   13.6982 H         1 0C5         0.0545
     28 H          -7.6423   34.1648    9.9394 H         1 0C5         0.0622
     29 H          -7.2228   31.7713   10.4413 H         1 0C5         0.0545
     30 H          -8.6804   30.0742   13.4037 H         1 0C5         0.2187
     31 H          -5.1176   28.4771    8.0815 H         1 0C5         0.2204
     32 H          -7.2464   31.1370    7.9901 H         1 0C5         0.0563
     33 H          -6.6866   33.5129    7.5726 H         1 0C5         0.0658
     34 H          -4.3421   34.3094    7.7518 H         1 0C5         0.0546
     35 H          -2.5398   32.7125    8.3834 H         1 0C5         0.0687
     36 H          -6.4690   26.6984    9.3154 H         1 0C5         0.0589
     37 H          -8.0275   26.0796   11.1523 H         1 0C5         0.0851
@<TRIPOS>BOND
     1    1    2 ar 
     2    2    3 1  
     3    2   25 ar 
     4    3    4 ar 
     5    3    6 ar 
     6    4    5 ar 
     7    5    8 ar 
     8    6    7 ar 
     9    7    8 ar 
    10    8    9 1  
    11    9   10 1  
    12   10   11 ar 
    13   10   24 ar 
    14   11   12 ar 
    15   12   13 1  
    16   12   22 ar 
    17   13   14 1  
    18   14   15 ar 
    19   14   19 ar 
    20   15   16 ar 
    21   16   17 ar 
    22   17   18 ar 
    23   18   19 ar 
    24   19   20 1  
    25   20   21 3  
    26   22   23 ar 
    27   23   24 ar 
    28    4   26 1  
    29    5   27 1  
    30    6   28 1  
    31    7   29 1  
    32    9   30 1  
    33   13   31 1  
    34   15   32 1  
    35   16   33 1  
    36   17   34 1  
    37   18   35 1  
    38   22   36 1  
    39   23   37 1  
@<TRIPOS>SUBSTRUCTURE
     1 0C5         1

