### 
### Created by X-TOOL on Mon Sep 10 21:13:11 2018
### 

@<TRIPOS>MOLECULE
3uok_ligand
   36    38     1     0     0
SMALL
GAST_HUCK


@<TRIPOS>ATOM
      1 CL1        27.0740   12.2140   -9.4670 Cl        1 0C6        -0.0794
      2 C02        28.6260   11.9370   -8.8030 C.ar      1 0C6         0.0625
      3 C03        29.4250   13.0480   -8.6150 C.ar      1 0C6        -0.0575
      4 C04        30.7020   12.9070   -8.0860 C.ar      1 0C6        -0.0728
      5 C05        31.1720   11.6420   -7.7540 C.ar      1 0C6        -0.0713
      6 C06        30.3750   10.5270   -7.9510 C.ar      1 0C6        -0.0377
      7 C07        29.1000   10.6580   -8.4830 C.ar      1 0C6         0.0775
      8 N08        28.2990    9.4550   -8.6530 N.pl3     1 0C6        -0.2546
      9 C09        28.3330    8.6050   -9.8220 C.ar      1 0C6         0.1702
     10 C10        27.2360    7.7620  -10.1070 C.ar      1 0C6         0.1906
     11 C12        27.3000    6.9540  -11.2500 C.ar      1 0C6         0.0350
     12 N13        28.3940    7.0020  -12.0470 N.ar      1 0C6        -0.2712
     13 C14        29.4020    7.8100  -11.7350 C.ar      1 0C6         0.1922
     14 N15        30.5210    7.7900  -12.6260 N.pl3     1 0C6        -0.2448
     15 C16        31.8770    8.3120  -12.2340 C.ar      1 0C6         0.0676
     16 C17        32.0670    9.1070  -11.0930 C.ar      1 0C6        -0.0345
     17 C18        33.3300    9.5830  -10.7580 C.ar      1 0C6        -0.0572
     18 C19        34.4170    9.2720  -11.5750 C.ar      1 0C6        -0.0017
     19 C20        35.8190    9.7360  -11.2460 C.2       1 0C6         0.0552
     20 O21        36.0480   10.6920  -10.4340 O.co2     1 0C6        -0.5638
     21 O22        36.7760    9.1120  -11.7610 O.co2     1 0C6        -0.5638
     22 C23        34.2260    8.4780  -12.7080 C.ar      1 0C6        -0.0572
     23 C24        32.9650    8.0060  -13.0440 C.ar      1 0C6        -0.0345
     24 N25        29.3880    8.6190  -10.6520 N.ar      1 0C6        -0.2359
     25 F11        26.1400    7.7180   -9.3130 F         1 0C6        -0.1855
     26 H          29.0530   14.0371   -8.8821 H         1 0C6         0.0593
     27 H          31.3315   13.7835   -7.9323 H         1 0C6         0.0519
     28 H          32.1724   11.5271   -7.3367 H         1 0C6         0.0589
     29 H          30.7518    9.5391   -7.6863 H         1 0C6         0.0536
     30 H          27.6695    9.1932   -7.8943 H         1 0C6         0.2156
     31 H          26.4723    6.2892  -11.4968 H         1 0C6         0.0830
     32 H          30.3950    7.4072  -13.5630 H         1 0C6         0.2176
     33 H          31.2138    9.3545  -10.4614 H         1 0C6         0.0544
     34 H          33.4692   10.1932   -9.8656 H         1 0C6         0.0621
     35 H          35.0795    8.2255  -13.3372 H         1 0C6         0.0621
     36 H          32.8281    7.3984  -13.9385 H         1 0C6         0.0544
@<TRIPOS>BOND
     1    1    2 1  
     2    2    3 ar 
     3    2    7 ar 
     4    3    4 ar 
     5    4    5 ar 
     6    5    6 ar 
     7    6    7 ar 
     8    7    8 1  
     9    8    9 1  
    10    9   10 ar 
    11    9   24 ar 
    12   10   11 ar 
    13   10   25 1  
    14   11   12 ar 
    15   12   13 ar 
    16   13   14 1  
    17   13   24 ar 
    18   14   15 1  
    19   15   16 ar 
    20   15   23 ar 
    21   16   17 ar 
    22   17   18 ar 
    23   18   19 1  
    24   18   22 ar 
    25   19   20 ar 
    26   19   21 ar 
    27   22   23 ar 
    28    3   26 1  
    29    4   27 1  
    30    5   28 1  
    31    6   29 1  
    32    8   30 1  
    33   11   31 1  
    34   14   32 1  
    35   16   33 1  
    36   17   34 1  
    37   22   35 1  
    38   23   36 1  
@<TRIPOS>SUBSTRUCTURE
     1 0C6         1

