### 
### Created by X-TOOL on Mon Sep 10 21:13:11 2018
### 

@<TRIPOS>MOLECULE
3uol_ligand
   39    42     1     0     0
SMALL
GAST_HUCK


@<TRIPOS>ATOM
      1 CL2       -24.4250   17.2340   -9.0830 Cl        1 0C7        -0.0793
      2 C02       -24.9580   18.8030   -8.6080 C.ar      1 0C7         0.0627
      3 C03       -26.3020   19.0950   -8.5030 C.ar      1 0C7        -0.0574
      4 C04       -26.6900   20.3730   -8.1320 C.ar      1 0C7        -0.0728
      5 C05       -25.7300   21.3420   -7.8670 C.ar      1 0C7        -0.0712
      6 C06       -24.3830   21.0460   -7.9760 C.ar      1 0C7        -0.0375
      7 C07       -24.0020   19.7700   -8.3440 C.ar      1 0C7         0.0781
      8 N08       -22.6210   19.3980   -8.4570 N.pl3     1 0C7        -0.2550
      9 C09       -21.8860   19.8680   -9.5780 C.ar      1 0C7         0.1346
     10 C10       -20.6740   19.2670   -9.9180 C.ar      1 0C7        -0.0014
     11 C11       -19.9800   19.7570  -11.0260 C.ar      1 0C7         0.0016
     12 N12       -20.5260   20.7730  -11.7040 N.ar      1 0C7        -0.2683
     13 C13       -21.6760   21.3330  -11.3360 C.ar      1 0C7         0.1970
     14 N14       -22.1470   22.3930  -12.1440 N.pl3     1 0C7        -0.2411
     15 C15       -23.2700   23.2240  -11.8730 C.ar      1 0C7         0.0712
     16 C16       -23.3740   24.3800  -12.6480 C.ar      1 0C7        -0.0317
     17 C17       -24.4280   25.2530  -12.4650 C.ar      1 0C7        -0.0523
     18 C18       -25.3800   24.9470  -11.5070 C.ar      1 0C7         0.0293
     19 C19       -26.5050   25.9020  -11.3360 C.2       1 0C7         0.1768
     20 N20       -26.4570   27.0650  -10.6360 N.pl3     1 0C7        -0.1539
     21 N21       -27.6840   27.6490  -10.7360 N.2       1 0C7        -0.0669
     22 N22       -28.4760   26.8510  -11.4910 N.2       1 0C7        -0.1424
     23 N23       -27.7400   25.7620  -11.8690 N.2       1 0C7        -0.2134
     24 C24       -25.2880   23.7910  -10.7360 C.ar      1 0C7        -0.0523
     25 C25       -24.2230   22.9180  -10.9200 C.ar      1 0C7        -0.0317
     26 N26       -22.3740   20.9010  -10.2930 N.ar      1 0C7        -0.2339
     27 H1        -27.0461   18.3339   -8.7082 H         1 0C7         0.0593
     28 H2        -27.7430   20.6166   -8.0486 H         1 0C7         0.0520
     29 H3        -26.0392   22.3383   -7.5724 H         1 0C7         0.0589
     30 H4        -23.6361   21.8055   -7.7752 H         1 0C7         0.0536
     31 H5        -22.1738   18.8051   -7.7433 H         1 0C7         0.2165
     32 H6        -20.2810   18.4406   -9.3368 H         1 0C7         0.0586
     33 H7        -19.0307   19.3287  -11.3268 H         1 0C7         0.0849
     34 H8        -21.6271   22.5822  -13.0128 H         1 0C7         0.2199
     35 H9        -22.6220   24.5940  -13.3989 H         1 0C7         0.0553
     36 H10       -24.5084   26.1571  -13.0576 H         1 0C7         0.0637
     37 H11       -25.6439   27.4366  -10.1245 H         1 0C7         0.2693
     38 H12       -26.0465   23.5725   -9.9931 H         1 0C7         0.0637
     39 H13       -24.1411   22.0140  -10.3274 H         1 0C7         0.0553
@<TRIPOS>BOND
     1    1    2 1  
     2    2    3 ar 
     3    2    7 ar 
     4    3    4 ar 
     5    4    5 ar 
     6    5    6 ar 
     7    6    7 ar 
     8    7    8 1  
     9    8    9 1  
    10    9   10 ar 
    11    9   26 ar 
    12   10   11 ar 
    13   11   12 ar 
    14   12   13 ar 
    15   13   14 1  
    16   13   26 ar 
    17   14   15 1  
    18   15   16 ar 
    19   15   25 ar 
    20   16   17 ar 
    21   17   18 ar 
    22   18   19 1  
    23   18   24 ar 
    24   19   20 1  
    25   19   23 2  
    26   20   21 1  
    27   21   22 2  
    28   22   23 1  
    29   24   25 ar 
    30    3   27 1  
    31    4   28 1  
    32    5   29 1  
    33    6   30 1  
    34    8   31 1  
    35   10   32 1  
    36   11   33 1  
    37   14   34 1  
    38   16   35 1  
    39   17   36 1  
    40   20   37 1  
    41   24   38 1  
    42   25   39 1  
@<TRIPOS>SUBSTRUCTURE
     1 0C7         1

