### 
### Created by X-TOOL on Mon Sep 10 21:13:11 2018
### 

@<TRIPOS>MOLECULE
3up7_ligand
   38    40     1     0     0
SMALL
GAST_HUCK


@<TRIPOS>ATOM
      1 N01        -3.0820  -32.8410    6.7800 N.pl3     1 0C9        -0.2427
      2 N02        -4.1460  -30.8060    6.5250 N.ar      1 0C9        -0.2339
      3 N03        -3.2210  -31.5660    8.6170 N.ar      1 0C9        -0.2684
      4 N04        -5.1910  -28.6980    6.4890 N.pl3     1 0C9        -0.2530
      5 C05        -2.8930  -33.0240    3.0890 C.ar      1 0C9        -0.0571
      6 C06        -1.6060  -33.6190    2.9490 C.ar      1 0C9        -0.0016
      7 C07        -0.8400  -33.9260    4.1150 C.ar      1 0C9        -0.0571
      8 C08        -1.3530  -33.6460    5.4130 C.ar      1 0C9        -0.0343
      9 C09        -2.6350  -33.0570    5.5700 C.ar      1 0C9         0.0684
     10 C10        -3.4060  -32.7460    4.3920 C.ar      1 0C9        -0.0343
     11 C11        -1.1080  -33.9020    1.7160 C.2       1 0C9         0.0553
     12 C12        -3.4870  -31.7260    7.2980 C.ar      1 0C9         0.1962
     13 C13        -4.5550  -29.6390    7.1540 C.ar      1 0C9         0.1353
     14 C14        -4.3200  -29.3940    8.5080 C.ar      1 0C9        -0.0013
     15 C15        -3.6460  -30.4020    9.1880 C.ar      1 0C9         0.0015
     16 C16        -5.4060  -28.6470    5.1880 C.ar      1 0C9         0.0789
     17 C17        -4.3710  -28.9820    4.2370 C.ar      1 0C9        -0.0343
     18 C18        -4.6150  -28.9210    2.8400 C.ar      1 0C9        -0.0687
     19 C19        -5.8900  -28.5240    2.3520 C.ar      1 0C9        -0.0696
     20 C20        -6.9320  -28.1830    3.2600 C.ar      1 0C9        -0.0570
     21 C21        -6.7160  -28.2370    4.6820 C.ar      1 0C9         0.0335
     22 C22        -7.7590  -27.8940    5.5340 C.2       1 0C9         0.0575
     23 O23        -7.7010  -26.8650    6.1930 O.co2     1 0C9        -0.5644
     24 O24        -8.8530  -28.6910    5.6250 O.co2     1 0C9        -0.5644
     25 O25        -1.7710  -34.5310    0.9410 O.co2     1 0C9        -0.5638
     26 O26         0.1200  -33.5020    1.3590 O.co2     1 0C9        -0.5638
     27 H          -3.1158  -33.6550    7.3938 H         1 0C9         0.2187
     28 H          -5.5584  -27.9223    7.0402 H         1 0C9         0.2175
     29 H          -3.4833  -32.7821    2.2052 H         1 0C9         0.0622
     30 H           0.1460  -34.3786    4.0099 H         1 0C9         0.0622
     31 H          -0.7567  -33.8858    6.2933 H         1 0C9         0.0545
     32 H          -4.3920  -32.2934    4.4975 H         1 0C9         0.0545
     33 H          -4.6427  -28.4756    8.9984 H         1 0C9         0.0586
     34 H          -3.4435  -30.2524   10.2485 H         1 0C9         0.0849
     35 H          -3.3884  -29.2860    4.5977 H         1 0C9         0.0544
     36 H          -3.8217  -29.1795    2.1386 H         1 0C9         0.0609
     37 H          -6.0704  -28.4805    1.2779 H         1 0C9         0.0527
     38 H          -7.9045  -27.8775    2.8740 H         1 0C9         0.0621
@<TRIPOS>BOND
     1    9    1 1  
     2    1   12 1  
     3   12    2 ar 
     4    2   13 ar 
     5   12    3 ar 
     6    3   15 ar 
     7   13    4 1  
     8    4   16 1  
     9    6    5 ar 
    10    5   10 ar 
    11    7    6 ar 
    12    6   11 1  
    13    8    7 ar 
    14    8    9 ar 
    15    9   10 ar 
    16   11   25 ar 
    17   11   26 ar 
    18   13   14 ar 
    19   14   15 ar 
    20   16   17 ar 
    21   16   21 ar 
    22   17   18 ar 
    23   18   19 ar 
    24   19   20 ar 
    25   20   21 ar 
    26   21   22 1  
    27   22   23 ar 
    28   22   24 ar 
    29    1   27 1  
    30    4   28 1  
    31    5   29 1  
    32    7   30 1  
    33    8   31 1  
    34   10   32 1  
    35   14   33 1  
    36   15   34 1  
    37   17   35 1  
    38   18   36 1  
    39   19   37 1  
    40   20   38 1  
@<TRIPOS>SUBSTRUCTURE
     1 0C9         1

