### 
### Created by X-TOOL on Mon Sep 10 21:13:09 2018
### 

@<TRIPOS>MOLECULE
3uph_ligand
   52    56     1     0     0
SMALL
GAST_HUCK


@<TRIPOS>ATOM
      1 C1         25.9290   41.2770   47.8320 C.ar      1 0C1        -0.0802
      2 C2         25.9680   41.4830   46.4480 C.ar      1 0C1        -0.0521
      3 C3         29.4860   44.7190   42.7020 C.ar      1 0C1        -0.0370
      4 C4         29.0380   43.7630   41.7940 C.ar      1 0C1        -0.0366
      5 C5         27.6110   44.2080   44.1530 C.ar      1 0C1        -0.0261
      6 C6         24.4990   43.4600   46.7100 C.ar      1 0C1         0.0301
      7 C7         23.9250   44.4210   45.8460 C.2       1 0C1         0.0197
      8 C8         25.2070   42.1420   48.6240 C.ar      1 0C1        -0.0234
      9 C9         27.1450   43.2260   43.2460 C.ar      1 0C1         0.0171
     10 C10        25.2600   42.5820   45.9120 C.ar      1 0C1         0.0622
     11 C11        24.4980   43.2060   48.0860 C.ar      1 0C1         0.1196
     12 C12        28.7690   44.9380   43.8660 C.ar      1 0C1         0.1216
     13 C13        27.8840   43.0380   42.0670 C.ar      1 0C1         0.1312
     14 C14        24.3800   44.1600   44.5530 C.2       1 0C1         0.1373
     15 C15        22.5230   47.4700   47.6180 C.2       1 0C1        -0.0186
     16 C16        23.3780   46.3690   47.2430 C.2       1 0C1        -0.0146
     17 C17        21.4060   47.7030   46.9120 C.2       1 0C1         0.0137
     18 C18        23.0870   45.5310   46.2200 C.3       1 0C1         0.1090
     19 C19        21.8010   45.7970   45.4400 C.2       1 0C1         0.1873
     20 C20        24.2380   45.0370   43.4150 C.2       1 0C1         0.2348
     21 C21        25.0460   42.1390   50.1000 C.2       1 0C1        -0.0558
     22 C22        23.8470   43.0720   50.2010 C.2       1 0C1         0.0782
     23 C23        25.8950   45.7820   41.0500 C.3       1 0C1         0.0779
     24 C24        25.8940   42.4150   43.5120 C.3       1 0C1         0.0822
     25 N1         25.1610   43.0280   44.6180 N.pl3     1 0C1        -0.2539
     26 N2         21.0640   46.9010   45.8580 N.2       1 0C1        -0.2627
     27 N3         23.7900   44.4640   42.2080 N.am      1 0C1        -0.1595
     28 O1         21.4310   45.0730   44.4980 O.2       1 0C1        -0.3874
     29 O2         24.2860   46.2640   43.5190 O.2       1 0C1        -0.3914
     30 O3         24.6150   43.7890   39.8460 O.2       1 0C1        -0.1511
     31 O4         23.4970   46.0000   40.2400 O.2       1 0C1        -0.1511
     32 O5         23.8440   43.9550   49.0600 O.3       1 0C1        -0.2636
     33 F1         29.1930   45.8720   44.7210 F         1 0C1        -0.1887
     34 F2         27.4830   42.1530   41.1690 F         1 0C1        -0.1924
     35 S1         24.3820   44.9440   40.6830 S.o2      1 0C1         0.0578
     36 H1         26.4622   40.4443   48.2763 H         1 0C1         0.0503
     37 H2         26.5279   40.8155   45.8030 H         1 0C1         0.0476
     38 H3         30.3873   45.2862   42.4995 H         1 0C1         0.0536
     39 H4         29.5877   43.5847   40.8769 H         1 0C1         0.0576
     40 H5         27.0686   44.3947   45.0728 H         1 0C1         0.0533
     41 H6         22.7817   48.1044   48.4645 H         1 0C1         0.0552
     42 H7         24.2955   46.2055   47.8065 H         1 0C1         0.1054
     43 H8         20.7641   48.5405   47.1813 H         1 0C1         0.1091
     44 H9         23.6530   46.1768   45.5326 H         1 0C1         0.0931
     45 H10        25.6132   41.6255   50.8749 H         1 0C1         0.0323
     46 H11        23.1113   43.0727   51.0039 H         1 0C1         0.1008
     47 H12        26.3560   46.1328   40.1149 H         1 0C1         0.0486
     48 H13        26.5821   45.0914   41.5609 H         1 0C1         0.0486
     49 H14        25.6883   46.6432   41.7024 H         1 0C1         0.0486
     50 H15        26.1713   41.3845   43.7786 H         1 0C1         0.0750
     51 H16        25.2625   42.4035   42.6114 H         1 0C1         0.0750
     52 H17        23.0956   43.7455   42.2477 H         1 0C1         0.2125
@<TRIPOS>BOND
     1    2    1 ar 
     2    1    8 ar 
     3   10    2 ar 
     4    4    3 ar 
     5   12    3 ar 
     6   13    4 ar 
     7    9    5 ar 
     8    5   12 ar 
     9    7    6 1  
    10   10    6 ar 
    11    6   11 ar 
    12   14    7 2  
    13    7   18 1  
    14   11    8 ar 
    15    8   21 1  
    16    9   13 ar 
    17   24    9 1  
    18   25   10 1  
    19   11   32 1  
    20   12   33 1  
    21   13   34 1  
    22   20   14 1  
    23   14   25 1  
    24   16   15 2  
    25   15   17 1  
    26   18   16 1  
    27   26   17 2  
    28   18   19 1  
    29   19   26 1  
    30   19   28 2  
    31   27   20 am 
    32   20   29 2  
    33   22   21 2  
    34   32   22 1  
    35   35   23 1  
    36   25   24 1  
    37   27   35 am 
    38   35   30 2  
    39   35   31 2  
    40    1   36 1  
    41    2   37 1  
    42    3   38 1  
    43    4   39 1  
    44    5   40 1  
    45   15   41 1  
    46   16   42 1  
    47   17   43 1  
    48   18   44 1  
    49   21   45 1  
    50   22   46 1  
    51   23   47 1  
    52   23   48 1  
    53   23   49 1  
    54   24   50 1  
    55   24   51 1  
    56   27   52 1  
@<TRIPOS>SUBSTRUCTURE
     1 0C1         1

