### 
### Created by X-TOOL on Mon Sep 10 21:13:10 2018
### 

@<TRIPOS>MOLECULE
3upi_ligand
   57    61     1     0     0
SMALL
GAST_HUCK


@<TRIPOS>ATOM
      1 C1         25.7920   41.2730   47.3400 C.ar      1 0C2        -0.0808
      2 C2         25.8660   41.5750   45.9750 C.ar      1 0C2        -0.0577
      3 C3         29.6660   44.6500   42.4700 C.ar      1 0C2        -0.0370
      4 C4         29.1770   43.7120   41.5600 C.ar      1 0C2        -0.0366
      5 C5         27.6630   44.3770   43.8100 C.ar      1 0C2        -0.0261
      6 C6         24.4860   43.6040   46.3660 C.ar      1 0C2         0.0233
      7 C7         23.9460   44.6510   45.5750 C.2       1 0C2         0.0184
      8 C8         25.1050   42.1320   48.1930 C.ar      1 0C2        -0.0226
      9 C9         27.1530   43.4250   42.9060 C.ar      1 0C2         0.0168
     10 C10        25.2050   42.7370   45.5150 C.ar      1 0C2         0.0571
     11 C11        24.4650   43.2710   47.7240 C.ar      1 0C2         0.0894
     12 C12        28.9000   44.9750   43.5850 C.ar      1 0C2         0.1216
     13 C13        27.9340   43.1090   41.7840 C.ar      1 0C2         0.1312
     14 C14        24.3780   44.4390   44.2670 C.2       1 0C2         0.1356
     15 C15        22.6100   47.7060   47.4040 C.2       1 0C2        -0.0187
     16 C16        23.4550   46.6000   47.0110 C.2       1 0C2        -0.0146
     17 C17        21.4680   47.9420   46.7420 C.2       1 0C2         0.0137
     18 C18        23.1290   45.7680   45.9970 C.3       1 0C2         0.1088
     19 C19        21.8150   46.0400   45.2670 C.2       1 0C2         0.1873
     20 C20        24.1490   45.2830   43.1130 C.2       1 0C2         0.2341
     21 C21        24.0950   43.3030   49.9280 C.3       1 0C2         0.0776
     22 C22        24.9190   42.0370   49.6590 C.3       1 0C2         0.0089
     23 C23        24.1610   40.7980   50.0860 C.3       1 0C2        -0.0536
     24 C24        26.1200   45.5830   40.1860 C.3       1 0C2         0.0779
     25 C25        25.8180   42.7410   43.0900 C.3       1 0C2         0.0811
     26 N1         25.1300   43.2780   44.2590 N.pl3     1 0C2        -0.2560
     27 N2         21.0820   47.1360   45.7080 N.2       1 0C2        -0.2627
     28 N3         24.4530   44.6190   41.9120 N.am      1 0C2        -0.1596
     29 O1         21.4260   45.3230   44.3380 O.2       1 0C2        -0.3874
     30 O2         24.0260   46.4970   43.1680 O.2       1 0C2        -0.3916
     31 O3         23.9960   44.2770   39.4340 O.2       1 0C2        -0.1511
     32 O4         23.7620   46.6030   40.4530 O.2       1 0C2        -0.1511
     33 O5         23.8420   44.0160   48.7090 O.3       1 0C2        -0.3221
     34 F1         29.3480   45.8720   44.4650 F         1 0C2        -0.1887
     35 F2         27.4760   42.2330   40.8890 F         1 0C2        -0.1924
     36 S1         24.3790   45.2950   40.3810 S.o2      1 0C2         0.0578
     37 H1         26.2652   40.3787   47.7289 H         1 0C2         0.0478
     38 H2         26.4138   40.9369   45.2911 H         1 0C2         0.0427
     39 H3         30.6300   45.1193   42.3103 H         1 0C2         0.0536
     40 H4         29.7578   43.4513   40.6826 H         1 0C2         0.0576
     41 H5         27.0876   44.6464   44.6883 H         1 0C2         0.0533
     42 H6         22.9006   48.3459   48.2359 H         1 0C2         0.0552
     43 H7         24.3858   46.4318   47.5506 H         1 0C2         0.1054
     44 H8         20.8417   48.7846   47.0313 H         1 0C2         0.1091
     45 H9         23.6723   46.4172   45.2946 H         1 0C2         0.0931
     46 H10        24.6507   43.9549   50.6181 H         1 0C2         0.0633
     47 H11        23.1357   43.0184   50.3848 H         1 0C2         0.0633
     48 H12        25.8859   42.0655   50.1826 H         1 0C2         0.0435
     49 H13        24.7721   39.9062   49.8830 H         1 0C2         0.0250
     50 H14        23.2184   40.7325   49.5228 H         1 0C2         0.0250
     51 H15        23.9418   40.8550   51.1624 H         1 0C2         0.0250
     52 H16        26.3078   46.0434   39.2048 H         1 0C2         0.0486
     53 H17        26.6595   44.6266   40.2516 H         1 0C2         0.0486
     54 H18        26.4714   46.2575   40.9807 H         1 0C2         0.0486
     55 H19        25.9794   41.6617   43.2281 H         1 0C2         0.0746
     56 H20        25.1987   42.9078   42.1963 H         1 0C2         0.0746
     57 H21        24.7374   43.6625   41.9769 H         1 0C2         0.2125
@<TRIPOS>BOND
     1    2    1 ar 
     2    1    8 ar 
     3   10    2 ar 
     4    4    3 ar 
     5   12    3 ar 
     6   13    4 ar 
     7    9    5 ar 
     8    5   12 ar 
     9    7    6 1  
    10   10    6 ar 
    11    6   11 ar 
    12   14    7 2  
    13    7   18 1  
    14   11    8 ar 
    15    8   22 1  
    16    9   13 ar 
    17   25    9 1  
    18   26   10 1  
    19   11   33 1  
    20   12   34 1  
    21   13   35 1  
    22   20   14 1  
    23   14   26 1  
    24   16   15 2  
    25   15   17 1  
    26   18   16 1  
    27   27   17 2  
    28   18   19 1  
    29   19   27 1  
    30   19   29 2  
    31   28   20 am 
    32   20   30 2  
    33   21   22 1  
    34   33   21 1  
    35   22   23 1  
    36   36   24 1  
    37   26   25 1  
    38   28   36 am 
    39   36   31 2  
    40   36   32 2  
    41    1   37 1  
    42    2   38 1  
    43    3   39 1  
    44    4   40 1  
    45    5   41 1  
    46   15   42 1  
    47   16   43 1  
    48   17   44 1  
    49   18   45 1  
    50   21   46 1  
    51   21   47 1  
    52   22   48 1  
    53   23   49 1  
    54   23   50 1  
    55   23   51 1  
    56   24   52 1  
    57   24   53 1  
    58   24   54 1  
    59   25   55 1  
    60   25   56 1  
    61   28   57 1  
@<TRIPOS>SUBSTRUCTURE
     1 0C2         1

