### 
### Created by X-TOOL on Mon Sep 10 21:13:09 2018
### 

@<TRIPOS>MOLECULE
3upv_ligand
  105   105     1     0     0
SMALL
GAST_HUCK


@<TRIPOS>ATOM
      1 N           6.4180  -25.9090   18.6640 N.4       1 PRO         0.2461
      2 CA          5.5610  -25.0240   19.3880 C.3       1 PRO         0.0670
      3 C           5.2400  -23.8580   18.4580 C.2       1 PRO         0.2268
      4 O           5.7680  -23.7550   17.3610 O.2       1 PRO        -0.3907
      5 CB          6.4200  -24.6330   20.5900 C.3       1 PRO         0.0127
      6 CG          7.1630  -25.9200   20.8760 C.3       1 PRO        -0.0053
      7 CD          7.4960  -26.4390   19.4960 C.3       1 PRO        -0.0313
      8 N           4.3460  -22.9990   18.8970 N.am      1 THR        -0.2586
      9 CA          3.7630  -22.0050   18.0180 C.3       1 THR         0.1566
     10 C           4.7580  -21.0720   17.3800 C.2       1 THR         0.2065
     11 O           4.5830  -20.7260   16.2180 O.2       1 THR        -0.3943
     12 CB          2.6750  -21.2360   18.8210 C.3       1 THR         0.0924
     13 OG1         1.6360  -22.1710   19.1100 O.3       1 THR        -0.3874
     14 CG2         2.1840  -19.9070   18.1540 C.3       1 THR        -0.0346
     15 N           5.8480  -20.7700   18.0820 N.am      1 VAL        -0.2634
     16 CA          6.7950  -19.7850   17.5900 C.3       1 VAL         0.1333
     17 C           7.5850  -20.3760   16.3650 C.2       1 VAL         0.2042
     18 O           8.1150  -19.6100   15.5730 O.2       1 VAL        -0.3944
     19 CB          7.8080  -19.2890   18.6640 C.3       1 VAL        -0.0063
     20 CG1         7.1480  -18.6120   19.7590 C.3       1 VAL        -0.0584
     21 CG2         8.6770  -20.4330   19.1850 C.3       1 VAL        -0.0584
     22 N           7.5120  -21.7070   16.1780 N.am      1 GLU        -0.2636
     23 CA          8.1500  -22.4590   15.0850 C.3       1 GLU         0.1325
     24 C           7.2010  -22.8220   13.9250 C.2       1 GLU         0.2040
     25 O           7.6020  -23.4860   12.9490 O.2       1 GLU        -0.3944
     26 CB          8.7730  -23.7870   15.6370 C.3       1 GLU        -0.0008
     27 CG          9.5370  -23.6180   16.9160 C.3       1 GLU         0.0044
     28 CD         10.8450  -22.7920   16.7570 C.2       1 GLU         0.0350
     29 OE1        11.5080  -22.5830   17.8020 O.co2     1 GLU        -0.5690
     30 OE2        11.2290  -22.3480   15.6200 O.co2     1 GLU        -0.5690
     31 N           5.9480  -22.4190   14.0420 N.am      1 GLU        -0.2636
     32 CA          4.9010  -22.8070   13.1470 C.3       1 GLU         0.1325
     33 C           4.3530  -21.6320   12.3680 C.2       1 GLU         0.2040
     34 O           4.2860  -20.5400   12.9070 O.2       1 GLU        -0.3944
     35 CB          3.7750  -23.4580   13.9310 C.3       1 GLU        -0.0008
     36 CG          4.2240  -24.6500   14.7170 C.3       1 GLU         0.0044
     37 CD          4.2330  -25.9050   13.9130 C.2       1 GLU         0.0350
     38 OE1         4.3590  -26.9890   14.5510 O.co2     1 GLU        -0.5690
     39 OE2         4.1350  -25.8230   12.6580 O.co2     1 GLU        -0.5690
     40 N           4.0970  -21.8340   11.0720 N.am      1 VAL        -0.2635
     41 CA          3.3820  -20.8510   10.2540 C.3       1 VAL         0.1332
     42 C           2.2310  -21.5770    9.5500 C.2       1 VAL         0.2037
     43 O           2.2420  -22.8150    9.4480 O.2       1 VAL        -0.3944
     44 CB          4.2450  -20.1540    9.1980 C.3       1 VAL        -0.0063
     45 CG1         5.2060  -19.0940    9.8650 C.3       1 VAL        -0.0584
     46 CG2         5.0290  -21.1820    8.3470 C.3       1 VAL        -0.0584
     47 N           1.2400  -20.8060    9.1040 N.am      1 ASP        -0.2679
     48 CA          0.0470  -21.3770    8.4500 C.3       1 ASP         0.1057
     49 C           0.0610  -21.1920    6.9240 C.2       1 ASP         0.0618
     50 O           0.5210  -20.1520    6.4100 O.co2     1 ASP        -0.5665
     51 CB         -1.1820  -20.7150    9.0510 C.3       1 ASP         0.0351
     52 CG         -1.4810  -21.2310   10.4540 C.2       1 ASP         0.0387
     53 OD1        -2.2530  -22.2020   10.6030 O.co2     1 ASP        -0.5688
     54 OD2        -0.8970  -20.7050   11.4150 O.co2     1 ASP        -0.5688
     55 OXT        -0.3570  -22.1170    6.1670 O.co2     1 ASP        -0.5665
     56 H1          6.8230  -25.4070   17.8894 H         1 PRO         0.2035
     57 H2          5.8690  -26.6790   18.3151 H         1 PRO         0.2035
     58 H3          4.6318  -25.5148   19.7130 H         1 PRO         0.1099
     59 H4          5.7974  -24.3321   21.4455 H         1 PRO         0.0347
     60 H5          7.1143  -23.8182   20.3372 H         1 PRO         0.0347
     61 H6          6.5253  -26.6310   21.4217 H         1 PRO         0.0320
     62 H7          8.0773  -25.7273   21.4564 H         1 PRO         0.0320
     63 H8          8.4736  -26.0631   19.1597 H         1 PRO         0.0814
     64 H9          7.5008  -27.5389   19.4800 H         1 PRO         0.0814
     65 H10         4.0631  -23.0324   19.8556 H         1 THR         0.1885
     66 H11         3.2636  -22.5420   17.1981 H         1 THR         0.0826
     67 H12         3.1254  -20.9405   19.7801 H         1 THR         0.0639
     68 H13         1.9903  -22.8879   19.6230 H         1 THR         0.2101
     69 H14         1.4202  -19.4373   18.7913 H         1 THR         0.0257
     70 H15         1.7518  -20.1298   17.1673 H         1 THR         0.0257
     71 H16         3.0350  -19.2203   18.0350 H         1 THR         0.0257
     72 H17         6.0163  -21.2256   18.9562 H         1 VAL         0.1883
     73 H18         6.2192  -18.9129   17.2466 H         1 VAL         0.0802
     74 H19         8.4729  -18.5608   18.1766 H         1 VAL         0.0343
     75 H20         7.8991  -18.2801   20.4909 H         1 VAL         0.0234
     76 H21         6.4425  -19.3020   20.2449 H         1 VAL         0.0234
     77 H22         6.6007  -17.7390   19.3739 H         1 VAL         0.0234
     78 H23         9.1693  -20.9342   18.3386 H         1 VAL         0.0234
     79 H24         8.0469  -21.1563   19.7233 H         1 VAL         0.0234
     80 H25         9.4403  -20.0320   19.8680 H         1 VAL         0.0234
     81 H26         6.9769  -22.2315   16.8403 H         1 GLU         0.1883
     82 H27         8.9570  -21.8318   14.6784 H         1 GLU         0.0801
     83 H28         9.4576  -24.1901   14.8762 H         1 GLU         0.0330
     84 H29         7.9578  -24.5041   15.8136 H         1 GLU         0.0330
     85 H30         9.8002  -24.6154   17.2980 H         1 GLU         0.0433
     86 H31         8.8891  -23.1062   17.6428 H         1 GLU         0.0433
     87 H32         5.7182  -21.8078   14.7994 H         1 GLU         0.1883
     88 H33         5.3082  -23.5382   12.4332 H         1 GLU         0.0801
     89 H34         2.9947  -23.7774   13.2245 H         1 GLU         0.0330
     90 H35         3.3576  -22.7158   14.6273 H         1 GLU         0.0330
     91 H36         3.5429  -24.7847   15.5702 H         1 GLU         0.0433
     92 H37         5.2429  -24.4630   15.0870 H         1 GLU         0.0433
     93 H38         4.4039  -22.6851   10.6460 H         1 VAL         0.1883
     94 H39         2.9726  -20.0794   10.9226 H         1 VAL         0.0802
     95 H40         3.5698  -19.6103    8.5209 H         1 VAL         0.0343
     96 H41         5.8134  -18.6089    9.0867 H         1 VAL         0.0234
     97 H42         5.8673  -19.5998   10.5839 H         1 VAL         0.0234
     98 H43         4.6071  -18.3347   10.3891 H         1 VAL         0.0234
     99 H44         4.3260  -21.9008    7.9008 H         1 VAL         0.0234
    100 H45         5.7447  -21.7184    8.9874 H         1 VAL         0.0234
    101 H46         5.5734  -20.6575    7.5480 H         1 VAL         0.0234
    102 H47         1.3066  -19.8145    9.2154 H         1 ASP         0.1876
    103 H48         0.0136  -22.4556    8.6632 H         1 ASP         0.0745
    104 H49        -2.0480  -20.9212    8.4049 H         1 ASP         0.0471
    105 H50        -1.0119  -19.6294    9.1008 H         1 ASP         0.0471
@<TRIPOS>BOND
     1    1    2 1  
     2    1    7 1  
     3    2    3 1  
     4    2    5 1  
     5    3    4 2  
     6    3    8 am 
     7    5    6 1  
     8    6    7 1  
     9    8    9 1  
    10    9   10 1  
    11    9   12 1  
    12   10   11 2  
    13   10   15 am 
    14   12   13 1  
    15   12   14 1  
    16   15   16 1  
    17   16   17 1  
    18   16   19 1  
    19   17   18 2  
    20   17   22 am 
    21   19   20 1  
    22   19   21 1  
    23   22   23 1  
    24   23   24 1  
    25   23   26 1  
    26   24   25 2  
    27   24   31 am 
    28   26   27 1  
    29   27   28 1  
    30   28   29 ar 
    31   28   30 ar 
    32   31   32 1  
    33   32   33 1  
    34   32   35 1  
    35   33   34 2  
    36   33   40 am 
    37   35   36 1  
    38   36   37 1  
    39   37   38 ar 
    40   37   39 ar 
    41   40   41 1  
    42   41   42 1  
    43   41   44 1  
    44   42   43 2  
    45   42   47 am 
    46   44   45 1  
    47   44   46 1  
    48   47   48 1  
    49   48   49 1  
    50   48   51 1  
    51   49   50 ar 
    52   49   55 ar 
    53   51   52 1  
    54   52   53 ar 
    55   52   54 ar 
    56    1   56 1  
    57    1   57 1  
    58    2   58 1  
    59    5   59 1  
    60    5   60 1  
    61    6   61 1  
    62    6   62 1  
    63    7   63 1  
    64    7   64 1  
    65    8   65 1  
    66    9   66 1  
    67   12   67 1  
    68   13   68 1  
    69   14   69 1  
    70   14   70 1  
    71   14   71 1  
    72   15   72 1  
    73   16   73 1  
    74   19   74 1  
    75   20   75 1  
    76   20   76 1  
    77   20   77 1  
    78   21   78 1  
    79   21   79 1  
    80   21   80 1  
    81   22   81 1  
    82   23   82 1  
    83   26   83 1  
    84   26   84 1  
    85   27   85 1  
    86   27   86 1  
    87   31   87 1  
    88   32   88 1  
    89   35   89 1  
    90   35   90 1  
    91   36   91 1  
    92   36   92 1  
    93   40   93 1  
    94   41   94 1  
    95   44   95 1  
    96   45   96 1  
    97   45   97 1  
    98   45   98 1  
    99   46   99 1  
   100   46  100 1  
   101   46  101 1  
   102   47  102 1  
   103   48  103 1  
   104   51  104 1  
   105   51  105 1  
@<TRIPOS>SUBSTRUCTURE
     1 PRO         1

