### 
### Created by X-TOOL on Mon Sep 10 21:13:10 2018
### 

@<TRIPOS>MOLECULE
3upx_ligand
   48    51     1     0     0
SMALL
GAST_HUCK


@<TRIPOS>ATOM
      1 CAM        28.6370   14.5510   28.3560 C.3       1 B6A        -0.0072
      2 CAK        28.7290   15.5520   27.2110 C.3       1 B6A        -0.0333
      3 NAQ        29.4820   16.7250   27.6740 N.4       1 B6A         0.2270
      4 CAL        28.7100   17.4420   28.6850 C.3       1 B6A        -0.0333
      5 CAN        28.5850   16.5450   29.9120 C.3       1 B6A        -0.0072
      6 CAX        27.9460   15.1900   29.5530 C.3       1 B6A        -0.0051
      7 CAO        28.0850   14.2640   30.7490 C.3       1 B6A         0.0611
      8 NAY        27.2630   13.0480   30.6400 N.pl3     1 B6A        -0.2142
      9 CAW        25.9490   12.9670   30.7820 C.ar      1 B6A         0.0840
     10 CAJ        24.9640   13.9070   31.0490 C.ar      1 B6A        -0.0258
     11 CAU        27.7400   11.8470   30.3900 C.2       1 B6A         0.2155
     12 NAA        29.0270   11.5870   30.1850 N.pl3     1 B6A        -0.2875
     13 NAP        26.7410   10.9610   30.3680 N.2       1 B6A        -0.3095
     14 CAV        25.6130   11.6290   30.6110 C.ar      1 B6A         0.0165
     15 CAI        24.2850   11.2290   30.7200 C.ar      1 B6A        -0.0640
     16 CAH        23.2920   12.1710   30.9910 C.ar      1 B6A        -0.0630
     17 CAT        23.6380   13.5080   31.1580 C.ar      1 B6A         0.0168
     18 CAR        22.5930   14.5620   31.4400 C.2       1 B6A         0.1511
     19 OAB        22.7730   15.7150   31.0430 O.2       1 B6A        -0.3724
     20 CAS        21.3380   14.2000   32.2240 C.ar      1 B6A         0.0322
     21 CAF        20.1120   14.7370   31.8530 C.ar      1 B6A        -0.0436
     22 CAD        18.9630   14.4040   32.5650 C.ar      1 B6A        -0.0561
     23 CAC        19.0630   13.5490   33.6640 C.ar      1 B6A        -0.0574
     24 CAE        20.2930   13.0190   34.0290 C.ar      1 B6A        -0.0561
     25 CAG        21.4300   13.3440   33.3140 C.ar      1 B6A        -0.0436
     26 H          29.6420   14.2433   28.6446 H         1 B6A         0.0320
     27 H          28.0608   13.6852   28.0297 H         1 B6A         0.0320
     28 H          27.7287   15.8523   26.8991 H         1 B6A         0.0814
     29 H          29.2363   15.0973   26.3602 H         1 B6A         0.0814
     30 H          29.6598   17.3447   26.8836 H         1 B6A         0.2013
     31 H          30.3664   16.4190   28.0797 H         1 B6A         0.2013
     32 H          27.7212   17.6877   28.2976 H         1 B6A         0.0814
     33 H          29.2118   18.3726   28.9501 H         1 B6A         0.0814
     34 H          27.9501   17.0448   30.6436 H         1 B6A         0.0320
     35 H          29.5827   16.3629   30.3114 H         1 B6A         0.0320
     36 H          26.8990   15.3533   29.2975 H         1 B6A         0.0330
     37 H          27.7503   14.8108   31.6305 H         1 B6A         0.0600
     38 H          29.1282   13.9533   30.8064 H         1 B6A         0.0600
     39 H          25.2303   14.9567   31.1730 H         1 B6A         0.0591
     40 H          29.3295   10.6330   29.9881 H         1 B6A         0.1866
     41 H          29.7123   12.3414   30.2245 H         1 B6A         0.1866
     42 H          24.0201   10.1792   30.5936 H         1 B6A         0.0528
     43 H          22.2502   11.8608   31.0715 H         1 B6A         0.0555
     44 H          20.0495   15.4188   31.0048 H         1 B6A         0.0669
     45 H          17.9949   14.8069   32.2673 H         1 B6A         0.0630
     46 H          18.1714   13.2965   34.2380 H         1 B6A         0.0654
     47 H          20.3622   12.3443   34.8823 H         1 B6A         0.0630
     48 H          22.3956   12.9301   33.6044 H         1 B6A         0.0669
@<TRIPOS>BOND
     1    1    2 1  
     2    1    6 1  
     3    2    3 1  
     4    3    4 1  
     5    4    5 1  
     6    5    6 1  
     7    6    7 1  
     8    7    8 1  
     9    8    9 1  
    10    8   11 1  
    11    9   10 ar 
    12    9   14 ar 
    13   10   17 ar 
    14   11   12 1  
    15   11   13 2  
    16   13   14 1  
    17   14   15 ar 
    18   15   16 ar 
    19   16   17 ar 
    20   17   18 1  
    21   18   19 2  
    22   18   20 1  
    23   20   21 ar 
    24   20   25 ar 
    25   21   22 ar 
    26   22   23 ar 
    27   23   24 ar 
    28   24   25 ar 
    29    1   26 1  
    30    1   27 1  
    31    2   28 1  
    32    2   29 1  
    33    3   30 1  
    34    3   31 1  
    35    4   32 1  
    36    4   33 1  
    37    5   34 1  
    38    5   35 1  
    39    6   36 1  
    40    7   37 1  
    41    7   38 1  
    42   10   39 1  
    43   12   40 1  
    44   12   41 1  
    45   15   42 1  
    46   16   43 1  
    47   21   44 1  
    48   22   45 1  
    49   23   46 1  
    50   24   47 1  
    51   25   48 1  
@<TRIPOS>SUBSTRUCTURE
     1 B6A         1

