### 
### Created by X-TOOL on Mon Sep 10 21:13:10 2018
### 

@<TRIPOS>MOLECULE
3upz_ligand
   34    36     1     0     0
SMALL
GAST_HUCK


@<TRIPOS>ATOM
      1 CAF        19.4200   18.1250   61.6180 C.3       1 B5A        -0.0070
      2 CAD        19.9060   18.5010   60.2190 C.3       1 B5A        -0.0333
      3 NAL        18.7500   18.8960   59.4000 N.4       1 B5A         0.2270
      4 CAE        17.8540   17.7400   59.2140 C.3       1 B5A        -0.0333
      5 CAG        17.2790   17.3160   60.5660 C.3       1 B5A        -0.0070
      6 CAP        18.3940   16.9820   61.5700 C.3       1 B5A        -0.0030
      7 CAH        17.8050   16.7850   62.9750 C.3       1 B5A         0.0730
      8 NAQ        16.8090   15.7000   63.0420 N.pl3     1 B5A        -0.1839
      9 NAK        15.5820   15.8690   63.0580 N.2       1 B5A        -0.2008
     10 CAC        14.9610   14.6840   63.1280 C.2       1 B5A         0.0301
     11 C5         15.9030   13.7450   63.1640 C.ar      1 B5A         0.0795
     12 C4         17.1160   14.4110   63.1100 C.ar      1 B5A         0.1615
     13 N3         18.2660   13.7200   63.1260 N.ar      1 B5A        -0.2682
     14 C2         18.2380   12.3950   63.1950 C.ar      1 B5A         0.0563
     15 N1         17.0930   11.7190   63.2480 N.ar      1 B5A        -0.2656
     16 C6         15.9070   12.3580   63.2330 C.ar      1 B5A         0.1272
     17 NAA        14.7660   11.6730   63.2870 N.pl3     1 B5A        -0.3122
     18 H1         18.9524   19.0056   62.0825 H         1 B5A         0.0320
     19 H2         20.2822   17.8061   62.2221 H         1 B5A         0.0320
     20 H3         20.4064   17.6368   59.7579 H         1 B5A         0.0814
     21 H4         20.6133   19.3407   60.2877 H         1 B5A         0.0814
     22 H5         19.0712   19.2189   58.5008 H         1 B5A         0.2013
     23 H6         18.2485   19.6373   59.8638 H         1 B5A         0.2013
     24 H7         18.4204   16.9038   58.7783 H         1 B5A         0.0814
     25 H8         17.0325   18.0183   58.5376 H         1 B5A         0.0814
     26 H9         16.6477   16.4265   60.4234 H         1 B5A         0.0320
     27 H10        16.6690   18.1378   60.9691 H         1 B5A         0.0320
     28 H11        18.8957   16.0556   61.2536 H         1 B5A         0.0331
     29 H12        17.3213   17.7228   63.2857 H         1 B5A         0.0625
     30 H13        18.6259   16.5488   63.6680 H         1 B5A         0.0625
     31 H14        13.8847   14.5197   63.1511 H         1 B5A         0.0736
     32 H15        19.1739   11.8482   63.2086 H         1 B5A         0.1028
     33 H16        14.7847   10.6444   63.3379 H         1 B5A         0.1845
     34 H17        13.8649   12.1718   63.2779 H         1 B5A         0.1845
@<TRIPOS>BOND
     1    1    2 1  
     2    1    6 1  
     3    2    3 1  
     4    3    4 1  
     5    4    5 1  
     6    5    6 1  
     7    6    7 1  
     8    7    8 1  
     9    8    9 1  
    10    8   12 1  
    11    9   10 2  
    12   10   11 1  
    13   11   12 ar 
    14   11   16 ar 
    15   12   13 ar 
    16   13   14 ar 
    17   14   15 ar 
    18   15   16 ar 
    19   16   17 1  
    20    1   18 1  
    21    1   19 1  
    22    2   20 1  
    23    2   21 1  
    24    3   22 1  
    25    3   23 1  
    26    4   24 1  
    27    4   25 1  
    28    5   26 1  
    29    5   27 1  
    30    6   28 1  
    31    7   29 1  
    32    7   30 1  
    33   10   31 1  
    34   14   32 1  
    35   17   33 1  
    36   17   34 1  
@<TRIPOS>SUBSTRUCTURE
     1 B5A         1

