### 
### Created by X-TOOL on Mon Sep 10 21:13:11 2018
### 

@<TRIPOS>MOLECULE
3uqf_ligand
   47    50     1     0     0
SMALL
GAST_HUCK


@<TRIPOS>ATOM
      1 N1        -11.1040  -35.5510    6.7100 N.ar      1 BK5        -0.2656
      2 C2        -11.6440  -36.4310    5.8630 C.ar      1 BK5         0.0565
      3 N3        -10.9050  -37.3660    5.2830 N.ar      1 BK5        -0.2675
      4 C4         -9.5940  -37.4390    5.5450 C.ar      1 BK5         0.1635
      5 C5         -8.9990  -36.5570    6.4290 C.ar      1 BK5         0.0869
      6 C6         -9.8020  -35.5770    7.0230 C.ar      1 BK5         0.1274
      7 CAA         0.0360  -34.6750   12.2290 C.3       1 BK5        -0.0371
      8 CAB        -8.1180  -40.6190    4.6140 C.3       1 BK5        -0.0338
      9 CAC        -8.4350  -38.9180    2.7560 C.3       1 BK5        -0.0338
     10 NAD        -9.3200  -34.6630    7.8640 N.pl3     1 BK5        -0.3126
     11 CAE        -4.4740  -35.2600   11.3640 C.ar      1 BK5        -0.0273
     12 CAF        -5.4400  -36.0870    6.5020 C.ar      1 BK5        -0.0571
     13 CAG        -5.5870  -35.7420   10.6590 C.ar      1 BK5        -0.0563
     14 CAH        -4.3340  -35.6080    7.2080 C.ar      1 BK5        -0.0594
     15 CAJ        -3.2750  -35.0030    9.2860 C.ar      1 BK5        -0.0289
     16 CAK        -6.6520  -36.3460    8.5610 C.ar      1 BK5        -0.0505
     17 CAL        -1.2350  -35.3880   11.7420 C.3       1 BK5         0.0680
     18 NAO        -7.5480  -37.9940    5.6310 N.2       1 BK5        -0.1941
     19 OAP        -2.2250  -34.4060   11.3630 O.3       1 BK5        -0.3174
     20 CAQ        -3.3110  -34.8920   10.6800 C.ar      1 BK5         0.0925
     21 CAR        -6.6040  -36.4370    7.1680 C.ar      1 BK5        -0.0104
     22 CAT        -7.6590  -36.9530    6.4420 C.2       1 BK5         0.0707
     23 CAU        -4.3870  -35.4900    8.5910 C.ar      1 BK5        -0.0285
     24 CAV        -5.5460  -35.8620    9.2700 C.ar      1 BK5        -0.0244
     25 CAY        -8.8710  -39.3560    4.1680 C.3       1 BK5         0.0755
     26 NAZ        -8.6380  -38.2570    5.1280 N.pl3     1 BK5        -0.1810
     27 H         -12.7107  -36.3795    5.6449 H         1 BK5         0.1030
     28 H           0.4312  -34.0515   11.4271 H         1 BK5         0.0256
     29 H          -0.2058  -34.0518   13.0900 H         1 BK5         0.0256
     30 H           0.7811  -35.4177   12.5142 H         1 BK5         0.0256
     31 H          -8.3273  -41.4304    3.9169 H         1 BK5         0.0259
     32 H          -7.0471  -40.4165    4.6268 H         1 BK5         0.0259
     33 H          -8.4474  -40.9029    5.6135 H         1 BK5         0.0259
     34 H          -7.3661  -38.7047    2.7570 H         1 BK5         0.0259
     35 H          -8.6463  -39.7186    2.0472 H         1 BK5         0.0259
     36 H          -8.9853  -38.0220    2.4688 H         1 BK5         0.0259
     37 H          -8.3274  -34.6590    8.0987 H         1 BK5         0.1842
     38 H          -9.9436  -33.9673    8.2732 H         1 BK5         0.1842
     39 H          -4.5159  -35.1719   12.4496 H         1 BK5         0.0590
     40 H          -5.3872  -36.1864    5.4178 H         1 BK5         0.0611
     41 H          -6.4899  -36.0246   11.2004 H         1 BK5         0.0618
     42 H          -3.4274  -35.3262    6.6725 H         1 BK5         0.0592
     43 H          -2.3784  -34.7093    8.7401 H         1 BK5         0.0499
     44 H          -7.5509  -36.6519    9.0963 H         1 BK5         0.0618
     45 H          -1.6309  -36.0114   12.5437 H         1 BK5         0.0612
     46 H          -0.9939  -36.0111   10.8807 H         1 BK5         0.0612
     47 H          -9.9349  -39.5914    4.1408 H         1 BK5         0.0655
@<TRIPOS>BOND
     1    2    1 ar 
     2    6    1 ar 
     3    3    2 ar 
     4    4    3 ar 
     5    4    5 ar 
     6   26    4 1  
     7    5    6 ar 
     8   22    5 1  
     9    6   10 1  
    10   17    7 1  
    11   25    8 1  
    12   25    9 1  
    13   13   11 ar 
    14   11   20 ar 
    15   12   14 ar 
    16   21   12 ar 
    17   24   13 ar 
    18   14   23 ar 
    19   15   20 ar 
    20   23   15 ar 
    21   21   16 ar 
    22   16   24 ar 
    23   19   17 1  
    24   18   22 2  
    25   26   18 1  
    26   20   19 1  
    27   22   21 1  
    28   24   23 ar 
    29   25   26 1  
    30    2   27 1  
    31    7   28 1  
    32    7   29 1  
    33    7   30 1  
    34    8   31 1  
    35    8   32 1  
    36    8   33 1  
    37    9   34 1  
    38    9   35 1  
    39    9   36 1  
    40   10   37 1  
    41   10   38 1  
    42   11   39 1  
    43   12   40 1  
    44   13   41 1  
    45   14   42 1  
    46   15   43 1  
    47   16   44 1  
    48   17   45 1  
    49   17   46 1  
    50   25   47 1  
@<TRIPOS>SUBSTRUCTURE
     1 BK5         1

