### 
### Created by X-TOOL on Mon Sep 10 21:13:11 2018
### 

@<TRIPOS>MOLECULE
3uqg_ligand
   34    36     1     0     0
SMALL
GAST_HUCK


@<TRIPOS>ATOM
      1 CAF        -8.7940  -41.1780    2.9130 C.3       1 B5A        -0.0070
      2 CAD        -8.5290  -41.0960    1.3970 C.3       1 B5A        -0.0333
      3 NAL        -7.0710  -41.0770    1.1530 N.4       1 B5A         0.2270
      4 CAE        -6.4380  -39.8910    1.7700 C.3       1 B5A        -0.0333
      5 CAG        -6.6370  -39.9010    3.2960 C.3       1 B5A        -0.0070
      6 CAP        -8.1370  -39.9980    3.6580 C.3       1 B5A        -0.0030
      7 CAH        -8.3260  -40.1380    5.1780 C.3       1 B5A         0.0730
      8 NAQ        -8.3680  -38.8230    5.8540 N.pl3     1 B5A        -0.1839
      9 NAK        -7.3750  -38.2650    6.3230 N.2       1 B5A        -0.2008
     10 CAC        -7.7190  -37.1010    6.8770 C.2       1 B5A         0.0301
     11 C5         -9.0310  -36.9500    6.7140 C.ar      1 B5A         0.0795
     12 C4         -9.4620  -38.0850    6.0380 C.ar      1 B5A         0.1615
     13 N3        -10.7680  -38.2120    5.7150 N.ar      1 B5A        -0.2682
     14 C2        -11.6340  -37.2560    6.0540 C.ar      1 B5A         0.0563
     15 N1        -11.2580  -36.1520    6.7010 N.ar      1 B5A        -0.2656
     16 C6         -9.9650  -35.9600    7.0480 C.ar      1 B5A         0.1272
     17 NAA        -9.5920  -34.8450    7.6890 N.pl3     1 B5A        -0.3122
     18 H1         -8.3803  -42.1212    3.2992 H         1 B5A         0.0320
     19 H2         -9.8795  -41.1541    3.0895 H         1 B5A         0.0320
     20 H3         -8.9802  -40.1770    0.9949 H         1 B5A         0.0814
     21 H4         -8.9729  -41.9707    0.8991 H         1 B5A         0.0814
     22 H5         -6.9047  -41.0581    0.1590 H         1 B5A         0.2013
     23 H6         -6.6614  -41.9097    1.5465 H         1 B5A         0.2013
     24 H7         -6.8927  -38.9806    1.3525 H         1 B5A         0.0814
     25 H8         -5.3611  -39.8988    1.5462 H         1 B5A         0.0814
     26 H9         -6.2241  -38.9732    3.7188 H         1 B5A         0.0320
     27 H10        -6.1074  -40.7657    3.7223 H         1 B5A         0.0320
     28 H11        -8.6300  -39.0691    3.3353 H         1 B5A         0.0331
     29 H12        -7.4885  -40.7215    5.5879 H         1 B5A         0.0625
     30 H13        -9.2708  -40.6671    5.3713 H         1 B5A         0.0625
     31 H14        -7.0477  -36.4013    7.3727 H         1 B5A         0.0736
     32 H15       -12.6792  -37.3805    5.7948 H         1 B5A         0.1028
     33 H16       -10.2928  -34.1284    7.9262 H         1 B5A         0.1845
     34 H17        -8.6043  -34.7040    7.9449 H         1 B5A         0.1845
@<TRIPOS>BOND
     1    1    2 1  
     2    1    6 1  
     3    2    3 1  
     4    3    4 1  
     5    4    5 1  
     6    5    6 1  
     7    6    7 1  
     8    7    8 1  
     9    8    9 1  
    10    8   12 1  
    11    9   10 2  
    12   10   11 1  
    13   11   12 ar 
    14   11   16 ar 
    15   12   13 ar 
    16   13   14 ar 
    17   14   15 ar 
    18   15   16 ar 
    19   16   17 1  
    20    1   18 1  
    21    1   19 1  
    22    2   20 1  
    23    2   21 1  
    24    3   22 1  
    25    3   23 1  
    26    4   24 1  
    27    4   25 1  
    28    5   26 1  
    29    5   27 1  
    30    6   28 1  
    31    7   29 1  
    32    7   30 1  
    33   10   31 1  
    34   14   32 1  
    35   17   33 1  
    36   17   34 1  
@<TRIPOS>SUBSTRUCTURE
     1 B5A         1

