### 
### Created by X-TOOL on Mon Sep 10 21:13:10 2018
### 

@<TRIPOS>MOLECULE
3ur0_ligand
   34    35     1     0     0
SMALL
GAST_HUCK


@<TRIPOS>ATOM
      1 C58       -50.0210   19.2320   32.8380 C.3       1 SVR         0.0326
      2 C61       -49.2540   20.5330   33.1390 C.2       1 SVR         0.2045
      3 O64       -48.6860   20.6740   34.2240 O.2       1 SVR        -0.3830
      4 N63       -49.3030   21.4590   32.1560 N.am      1 SVR        -0.2284
      5 C65       -48.6980   22.6730   32.1430 C.ar      1 SVR         0.0828
      6 C67       -47.4000   22.7390   32.6600 C.ar      1 SVR        -0.0415
      7 C70       -46.6980   23.9350   32.6740 C.ar      1 SVR        -0.0596
      8 C71       -47.2700   25.0950   32.1560 C.ar      1 SVR         0.0385
      9 S75       -46.3180   26.5950   32.2030 S.o2      1 SVR        -0.1723
     10 O80       -44.8920   26.2820   32.5700 O.co2     1 SVR        -0.4824
     11 O81       -46.3290   27.2580   30.8510 O.co2     1 SVR        -0.4824
     12 O82       -46.8780   27.4650   33.1920 O.co2     1 SVR        -0.4824
     13 C66       -49.2940   23.8480   31.6000 C.ar      1 SVR         0.0350
     14 C68       -48.5690   25.0570   31.6210 C.ar      1 SVR        -0.0063
     15 C72       -49.1360   26.2350   31.1050 C.ar      1 SVR        -0.0371
     16 C69       -50.5880   23.8990   31.0380 C.ar      1 SVR         0.0598
     17 S73       -51.6740   22.5940   30.9090 S.o2      1 SVR        -0.1625
     18 O77       -52.7820   23.0100   30.0980 O.co2     1 SVR        -0.4795
     19 O78       -50.9980   21.4170   30.2820 O.co2     1 SVR        -0.4795
     20 O79       -52.1540   22.2620   32.2940 O.co2     1 SVR        -0.4795
     21 C74       -51.1320   25.0680   30.5340 C.ar      1 SVR        -0.0210
     22 C76       -50.4240   26.2470   30.5620 C.ar      1 SVR         0.0494
     23 S83       -51.2000   27.6810   29.8840 S.o2      1 SVR        -0.1636
     24 O85       -52.3990   27.9920   30.6030 O.co2     1 SVR        -0.4797
     25 O86       -51.5230   27.3820   28.4490 O.co2     1 SVR        -0.4797
     26 O84       -50.2510   28.8430   29.9640 O.co2     1 SVR        -0.4797
     27 H1        -50.4579   19.2888   31.8301 H         1 SVR         0.0473
     28 H2        -50.8235   19.0997   33.5786 H         1 SVR         0.0473
     29 H3        -49.3295   18.3782   32.8902 H         1 SVR         0.0473
     30 H4        -49.8450   21.2233   31.3493 H         1 SVR         0.2311
     31 H5        -46.9361   21.8426   33.0554 H         1 SVR         0.0443
     32 H6        -45.6978   23.9675   33.0907 H         1 SVR         0.0583
     33 H7        -48.5620   27.1542   31.1286 H         1 SVR         0.0606
     34 H8        -52.1301   25.0540   30.1113 H         1 SVR         0.0614
@<TRIPOS>BOND
     1    1    2 1  
     2    2    3 2  
     3    2    4 am 
     4    4    5 1  
     5    5    6 ar 
     6    5   13 ar 
     7    6    7 ar 
     8    7    8 ar 
     9    8    9 1  
    10    8   14 ar 
    11    9   10 ar 
    12    9   11 ar 
    13    9   12 ar 
    14   13   14 ar 
    15   13   16 ar 
    16   14   15 ar 
    17   15   22 ar 
    18   16   17 1  
    19   16   21 ar 
    20   17   18 ar 
    21   17   19 ar 
    22   17   20 ar 
    23   21   22 ar 
    24   22   23 1  
    25   23   24 ar 
    26   23   25 ar 
    27   23   26 ar 
    28    1   27 1  
    29    1   28 1  
    30    1   29 1  
    31    4   30 1  
    32    6   31 1  
    33    7   32 1  
    34   15   33 1  
    35   21   34 1  
@<TRIPOS>SUBSTRUCTURE
     1 SVR         1

