### 
### Created by X-TOOL on Mon Sep 10 21:13:09 2018
### 

@<TRIPOS>MOLECULE
3ur9_ligand
   50    50     1     0     0
SMALL
GAST_HUCK


@<TRIPOS>ATOM
      1 C7        -23.0180  -20.6780   36.1800 C.3       1 K36         0.0663
      2 O8        -22.3290  -21.5920   35.3260 O.3       1 K36        -0.2672
      3 C9        -21.2430  -21.1160   34.5040 C.2       1 K36         0.3215
      4 O10       -21.1030  -19.8990   34.3600 O.2       1 K36        -0.3774
      5 N11       -20.4240  -22.0460   33.9220 N.am      1 K36        -0.2412
      6 C12       -19.2690  -21.6330   33.1050 C.3       1 K36         0.1329
      7 C17       -19.7460  -21.0130   31.8260 C.2       1 K36         0.2019
      8 O18       -20.7350  -21.4520   31.2460 O.2       1 K36        -0.3945
      9 C13       -18.3920  -22.8180   32.7030 C.3       1 K36        -0.0101
     10 C14       -17.8300  -23.5600   33.9060 C.3       1 K36        -0.0425
     11 C15       -17.1830  -24.8510   33.4220 C.3       1 K36        -0.0625
     12 C16       -16.8190  -22.7220   34.6610 C.3       1 K36        -0.0625
     13 N19       -19.0370  -19.9270   31.3240 N.am      1 K36        -0.2797
     14 C20       -19.4460  -19.2110   30.1160 C.3       1 K36         0.0674
     15 C21       -18.2490  -19.0270   29.1660 C.3       1 K36         0.0673
     16 O22       -17.8140  -20.2860   28.6450 O.3       1 K36        -0.3927
     17 C24       -20.0190  -17.8420   30.4270 C.3       1 K36        -0.0079
     18 C25       -21.2120  -17.9050   31.3670 C.3       1 K36         0.0526
     19 C26       -22.4150  -18.6230   30.7400 C.3       1 K36        -0.0129
     20 C27       -23.6280  -17.8360   31.2290 C.3       1 K36         0.0332
     21 N28       -23.1600  -16.4850   31.6250 N.am      1 K36        -0.2866
     22 C29       -21.7830  -16.5490   31.5740 C.2       1 K36         0.1792
     23 O30       -21.1070  -15.5430   31.6970 O.2       1 K36        -0.3968
     24 H1        -23.8087  -21.2124   36.7271 H         1 K36         0.0575
     25 H2        -23.4680  -19.8780   35.5739 H         1 K36         0.0575
     26 H3        -22.3081  -20.2397   36.8969 H         1 K36         0.0575
     27 H4        -20.6122  -23.0194   34.0531 H         1 K36         0.1899
     28 H5        -18.6703  -20.9080   33.6759 H         1 K36         0.0799
     29 H6        -17.5543  -22.4467   32.0944 H         1 K36         0.0315
     30 H7        -18.9960  -23.5181   32.1072 H         1 K36         0.0315
     31 H8        -18.6573  -23.8059   34.5880 H         1 K36         0.0298
     32 H9        -16.7713  -25.3996   34.2820 H         1 K36         0.0232
     33 H10       -16.3729  -24.6133   32.7169 H         1 K36         0.0232
     34 H11       -17.9375  -25.4726   32.9177 H         1 K36         0.0232
     35 H12       -17.2969  -21.7931   35.0055 H         1 K36         0.0232
     36 H13       -15.9770  -22.4767   33.9970 H         1 K36         0.0232
     37 H14       -16.4489  -23.2875   35.5289 H         1 K36         0.0232
     38 H15       -18.2159  -19.6239   31.8076 H         1 K36         0.1855
     39 H16       -20.2177  -19.8079   29.6078 H         1 K36         0.0580
     40 H17       -17.4199  -18.5594   29.7173 H         1 K36         0.0580
     41 H18       -18.5480  -18.3757   28.3315 H         1 K36         0.0580
     42 H19       -17.5516  -20.8507   29.3624 H         1 K36         0.2095
     43 H20       -20.3377  -17.3716   29.4851 H         1 K36         0.0315
     44 H21       -19.2340  -17.2300   30.8953 H         1 K36         0.0315
     45 H22       -20.9106  -18.3739   32.3153 H         1 K36         0.0539
     46 H23       -22.4658  -19.6673   31.0817 H         1 K36         0.0312
     47 H24       -22.3530  -18.5990   29.6420 H         1 K36         0.0312
     48 H25       -24.0804  -18.3439   32.0935 H         1 K36         0.0521
     49 H26       -24.3710  -17.7534   30.4221 H         1 K36         0.0521
     50 H27       -23.7223  -15.6968   31.8753 H         1 K36         0.1851
@<TRIPOS>BOND
     1    1    2 1  
     2    2    3 1  
     3    3    4 2  
     4    3    5 am 
     5    5    6 1  
     6    6    7 1  
     7    6    9 1  
     8    7    8 2  
     9    7   13 am 
    10    9   10 1  
    11   10   11 1  
    12   10   12 1  
    13   13   14 1  
    14   14   15 1  
    15   14   17 1  
    16   15   16 1  
    17   17   18 1  
    18   18   19 1  
    19   18   22 1  
    20   19   20 1  
    21   20   21 1  
    22   21   22 am 
    23   22   23 2  
    24    1   24 1  
    25    1   25 1  
    26    1   26 1  
    27    5   27 1  
    28    6   28 1  
    29    9   29 1  
    30    9   30 1  
    31   10   31 1  
    32   11   32 1  
    33   11   33 1  
    34   11   34 1  
    35   12   35 1  
    36   12   36 1  
    37   12   37 1  
    38   13   38 1  
    39   14   39 1  
    40   15   40 1  
    41   15   41 1  
    42   16   42 1  
    43   17   43 1  
    44   17   44 1  
    45   18   45 1  
    46   19   46 1  
    47   19   47 1  
    48   20   48 1  
    49   20   49 1  
    50   21   50 1  
@<TRIPOS>SUBSTRUCTURE
     1 K36         1

