### 
### Created by X-TOOL on Mon Sep 10 21:13:08 2018
### 

@<TRIPOS>MOLECULE
3uri_ligand
  130   133     1     0     0
SMALL
GAST_HUCK


@<TRIPOS>ATOM
      1 N           4.6000   23.5900   25.1560 N.4       1 PRO         0.2461
      2 CA          5.0070   24.7110   24.3170 C.3       1 PRO         0.0670
      3 C           4.2320   24.5620   22.9990 C.2       1 PRO         0.2269
      4 O           3.6250   23.4900   22.8210 O.2       1 PRO        -0.3907
      5 CB          6.5190   24.5850   24.1720 C.3       1 PRO         0.0127
      6 CG          6.9040   24.1160   25.5720 C.3       1 PRO        -0.0053
      7 CD          5.7800   23.1220   25.8820 C.3       1 PRO        -0.0313
      8 N           4.2440   25.5670   22.0930 N.am      1 HIS        -0.2592
      9 CA          3.4890   25.6070   20.8310 C.3       1 HIS         0.1422
     10 C           3.7540   26.9680   20.2140 C.2       1 HIS         0.2060
     11 O           3.3380   27.9450   20.8450 O.2       1 HIS        -0.3942
     12 CB          1.9880   25.5330   21.0610 C.3       1 HIS         0.0427
     13 CG          1.3470   24.4050   20.3040 C.2       1 HIS         0.0561
     14 ND1         0.0440   24.2350   20.1440 N.pl3     1 HIS        -0.2623
     15 CD2         2.0270   23.3630   19.7140 C.2       1 HIS        -0.0276
     16 CE1        -0.0860   23.1180   19.4890 C.2       1 HIS         0.0875
     17 NE2         1.0960   22.5980   19.2290 N.2       1 HIS        -0.3437
     18 N           4.4170   27.1320   19.0720 N.am      1 LEU        -0.2636
     19 CA          4.7390   28.4750   18.6130 C.3       1 LEU         0.1312
     20 C           3.9360   28.8690   17.3710 C.2       1 LEU         0.2040
     21 O           3.5880   28.0270   16.5270 O.2       1 LEU        -0.3944
     22 CB          6.2920   28.4740   18.4560 C.3       1 LEU        -0.0101
     23 CG          7.1560   28.3810   19.7840 C.3       1 LEU        -0.0425
     24 CD1         7.2650   26.9500   20.3030 C.3       1 LEU        -0.0625
     25 CD2         8.6130   28.7280   19.5230 C.3       1 LEU        -0.0625
     26 N           3.4900   30.1280   17.2890 N.am      1 SER        -0.2616
     27 CA          2.6860   30.6630   16.1780 C.3       1 SER         0.1538
     28 C           3.2370   32.0260   15.7230 C.2       1 SER         0.2045
     29 O           2.6240   33.1010   15.8950 O.2       1 SER        -0.3944
     30 CB          1.1910   30.8400   16.5950 C.3       1 SER         0.0843
     31 OG          0.4690   29.6420   16.9030 O.3       1 SER        -0.3903
     32 N           4.4190   31.9970   15.1000 N.am      1 13E        -0.2748
     33 C1          5.1170   33.2140   14.7050 C.3       1 13E         0.0911
     34 C2          6.5850   33.1010   15.0450 C.3       1 13E         0.0089
     35 C3          6.9690   32.8220   16.4960 C.ar      1 13E        -0.0406
     36 C4          8.1500   32.1090   16.7330 C.ar      1 13E        -0.0603
     37 C5          6.1970   33.2610   17.5800 C.ar      1 13E        -0.0603
     38 C6          8.5530   31.8480   18.0410 C.ar      1 13E        -0.0686
     39 C7          6.6060   32.9870   18.8810 C.ar      1 13E        -0.0686
     40 C8          7.7840   32.2870   19.1170 C.ar      1 13E        -0.0687
     41 C9          5.0070   33.5240   13.2130 C.3       1 13E        -0.0062
     42 N2          3.6550   33.8100   12.8030 N.4       1 13E         0.2479
     43 C10         3.4950   34.9540   11.8970 C.3       1 13E         0.0676
     44 C11         2.3060   34.6750   10.9490 C.3       1 13E         0.0169
     45 C12         1.0020   34.1150   11.5390 C.3       1 13E         0.0007
     46 SD         -0.3160   35.3250   11.7930 S.3       1 13E        -0.1638
     47 C13        -1.1630   34.5320   13.1220 C.3       1 13E        -0.0181
     48 C           3.2800   36.3020   12.6440 C.2       1 13E         0.2268
     49 O           2.9280   36.2930   13.8350 O.2       1 13E        -0.3907
     50 N           3.5690   37.4540   12.0400 N.am      1 ALA        -0.2613
     51 CA          3.2290   38.7160   12.6820 C.3       1 ALA         0.1283
     52 C           1.8910   38.9140   11.9720 C.2       1 ALA         0.2032
     53 O           1.8290   39.0310   10.7390 O.2       1 ALA        -0.3944
     54 CB          4.2150   39.8050   12.3000 C.3       1 ALA        -0.0244
     55 N           0.8440   38.7470   12.7750 N.am      1 HIS        -0.2677
     56 CA         -0.5300   38.8120   12.2980 C.3       1 HIS         0.1056
     57 C          -0.8630   40.2250   11.8310 C.2       1 HIS         0.0621
     58 O          -1.6070   40.3320   10.8470 O.co2     1 HIS        -0.5664
     59 CB         -1.4570   38.3540   13.4580 C.3       1 HIS         0.0372
     60 CG         -2.9760   38.4460   13.2630 C.2       1 HIS         0.0555
     61 ND1        -3.6820   39.3570   12.5930 N.pl3     1 HIS        -0.2623
     62 CD2        -3.8920   37.5760   13.8430 C.2       1 HIS        -0.0276
     63 CE1        -4.9590   39.0840   12.7460 C.2       1 HIS         0.0875
     64 NE2        -5.0820   38.0020   13.5080 N.2       1 HIS        -0.3437
     65 OXT        -0.4480   41.1620   12.5210 O.co2     1 HIS        -0.5664
     66 H1          4.2342   22.8470   24.5814 H         1 PRO         0.2035
     67 H2          3.8926   23.8895   25.8086 H         1 PRO         0.2035
     68 H3          4.7577   25.6745   24.7854 H         1 PRO         0.1099
     69 H4          6.9839   25.5514   23.9270 H         1 PRO         0.0347
     70 H5          6.7916   23.8426   23.4075 H         1 PRO         0.0347
     71 H6          6.9103   24.9512   26.2878 H         1 PRO         0.0320
     72 H7          7.8876   23.6236   25.5743 H         1 PRO         0.0320
     73 H8          6.0600   22.1139   25.5426 H         1 PRO         0.0814
     74 H9          5.5779   23.1020   26.9631 H         1 PRO         0.0814
     75 H10         4.8205   26.3572   22.3009 H         1 HIS         0.1886
     76 H11         3.8144   24.7931   20.1664 H         1 HIS         0.0824
     77 H12         1.5336   26.4802   20.7349 H         1 HIS         0.0491
     78 H13         1.8021   25.3878   22.1354 H         1 HIS         0.0491
     79 H14        -0.7096   24.8569   20.4699 H         1 HIS         0.2386
     80 H15         3.1046   23.2137   19.6650 H         1 HIS         0.0324
     81 H16        -1.0374   22.6758   19.1971 H         1 HIS         0.1149
     82 H17         4.6925   26.3367   18.5320 H         1 LEU         0.1883
     83 H18         4.4750   29.1951   19.4015 H         1 LEU         0.0800
     84 H19         6.5732   29.4056   17.9431 H         1 LEU         0.0315
     85 H20         6.5602   27.6131   17.8260 H         1 LEU         0.0315
     86 H21         6.7196   29.0444   20.5452 H         1 LEU         0.0298
     87 H22         7.8709   26.9381   21.2210 H         1 LEU         0.0232
     88 H23         7.7434   26.3186   19.5398 H         1 LEU         0.0232
     89 H24         6.2594   26.5619   20.5223 H         1 LEU         0.0232
     90 H25         8.6816   29.7557   19.1369 H         1 LEU         0.0232
     91 H26         9.0293   28.0295   18.7822 H         1 LEU         0.0232
     92 H27         9.1822   28.6500   20.4610 H         1 LEU         0.0232
     93 H28         3.7196   30.7508   18.0370 H         1 SER         0.1884
     94 H29         2.7389   29.9563   15.3367 H         1 SER         0.0823
     95 H30         0.6695   31.3411   15.7661 H         1 SER         0.0606
     96 H31         1.1663   31.4839   17.4865 H         1 SER         0.0606
     97 H32        -0.4232   29.8639   17.1422 H         1 SER         0.2097
     98 H33         4.8381   31.1117   14.8983 H         1 13E         0.1859
     99 H34         4.6806   34.0529   15.2669 H         1 13E         0.0632
    100 H35         7.0604   34.0507   14.7585 H         1 13E         0.0450
    101 H36         6.9994   32.2848   14.4351 H         1 13E         0.0450
    102 H37         8.7501   31.7604   15.9003 H         1 13E         0.0557
    103 H38         5.2813   33.8140   17.4047 H         1 13E         0.0557
    104 H39         9.4705   31.3000   18.2227 H         1 13E         0.0599
    105 H40         6.0021   33.3215   19.7167 H         1 13E         0.0599
    106 H41         8.1026   32.0838   20.1330 H         1 13E         0.0559
    107 H42         5.3706   32.6549   12.6451 H         1 13E         0.0839
    108 H43         5.6355   34.3982   12.9878 H         1 13E         0.0839
    109 H44         3.1117   33.9928   13.6321 H         1 13E         0.2036
    110 H45         3.2928   32.9927   12.3373 H         1 13E         0.2036
    111 H46         4.4118   35.0447   11.2959 H         1 13E         0.1099
    112 H47         2.6557   33.9534   10.1960 H         1 13E         0.0354
    113 H48         2.0553   35.6262   10.4567 H         1 13E         0.0354
    114 H49         1.2376   33.6605   12.5126 H         1 13E         0.0380
    115 H50         0.6247   33.3409   10.8546 H         1 13E         0.0380
    116 H51        -2.0265   35.1433   13.4231 H         1 13E         0.0340
    117 H52        -0.4793   34.4173   13.9761 H         1 13E         0.0340
    118 H53        -1.5113   33.5410   12.7955 H         1 13E         0.0340
    119 H54         4.0188   37.4519   11.1469 H         1 ALA         0.1884
    120 H55         3.1386   38.6415   13.7757 H         1 ALA         0.0797
    121 H56         3.9344   40.7448   12.7981 H         1 ALA         0.0277
    122 H57         4.1982   39.9488   11.2096 H         1 ALA         0.0277
    123 H58         5.2268   39.5107   12.6155 H         1 ALA         0.0277
    124 H59         1.0071   38.5696   13.7455 H         1 HIS         0.1877
    125 H60        -0.6531   38.1249   11.4479 H         1 HIS         0.0750
    126 H61        -1.2050   38.9668   14.3360 H         1 HIS         0.0484
    127 H62        -1.2199   37.3002   13.6660 H         1 HIS         0.0484
    128 H63        -3.2936   40.1405   12.0487 H         1 HIS         0.2386
    129 H64        -3.6627   36.7070   14.4580 H         1 HIS         0.0324
    130 H65        -5.7830   39.6527   12.3175 H         1 HIS         0.1149
@<TRIPOS>BOND
     1    1    2 1  
     2    1    7 1  
     3    2    3 1  
     4    2    5 1  
     5    3    4 2  
     6    3    8 am 
     7    5    6 1  
     8    6    7 1  
     9    8    9 1  
    10    9   10 1  
    11    9   12 1  
    12   10   11 2  
    13   10   18 am 
    14   12   13 1  
    15   13   14 1  
    16   13   15 2  
    17   14   16 1  
    18   15   17 1  
    19   16   17 2  
    20   18   19 1  
    21   19   20 1  
    22   19   22 1  
    23   20   21 2  
    24   20   26 am 
    25   22   23 1  
    26   23   24 1  
    27   23   25 1  
    28   26   27 1  
    29   27   28 1  
    30   27   30 1  
    31   28   29 2  
    32   28   32 am 
    33   30   31 1  
    34   32   33 1  
    35   33   34 1  
    36   33   41 1  
    37   34   35 1  
    38   35   36 ar 
    39   35   37 ar 
    40   36   38 ar 
    41   37   39 ar 
    42   38   40 ar 
    43   39   40 ar 
    44   41   42 1  
    45   42   43 1  
    46   43   44 1  
    47   43   48 1  
    48   44   45 1  
    49   45   46 1  
    50   46   47 1  
    51   48   49 2  
    52   48   50 am 
    53   50   51 1  
    54   51   52 1  
    55   51   54 1  
    56   52   53 2  
    57   52   55 am 
    58   55   56 1  
    59   56   57 1  
    60   56   59 1  
    61   57   58 ar 
    62   57   65 ar 
    63   59   60 1  
    64   60   61 1  
    65   60   62 2  
    66   61   63 1  
    67   62   64 1  
    68   63   64 2  
    69    1   66 1  
    70    1   67 1  
    71    2   68 1  
    72    5   69 1  
    73    5   70 1  
    74    6   71 1  
    75    6   72 1  
    76    7   73 1  
    77    7   74 1  
    78    8   75 1  
    79    9   76 1  
    80   12   77 1  
    81   12   78 1  
    82   14   79 1  
    83   15   80 1  
    84   16   81 1  
    85   18   82 1  
    86   19   83 1  
    87   22   84 1  
    88   22   85 1  
    89   23   86 1  
    90   24   87 1  
    91   24   88 1  
    92   24   89 1  
    93   25   90 1  
    94   25   91 1  
    95   25   92 1  
    96   26   93 1  
    97   27   94 1  
    98   30   95 1  
    99   30   96 1  
   100   31   97 1  
   101   32   98 1  
   102   33   99 1  
   103   34  100 1  
   104   34  101 1  
   105   36  102 1  
   106   37  103 1  
   107   38  104 1  
   108   39  105 1  
   109   40  106 1  
   110   41  107 1  
   111   41  108 1  
   112   42  109 1  
   113   42  110 1  
   114   43  111 1  
   115   44  112 1  
   116   44  113 1  
   117   45  114 1  
   118   45  115 1  
   119   47  116 1  
   120   47  117 1  
   121   47  118 1  
   122   50  119 1  
   123   51  120 1  
   124   54  121 1  
   125   54  122 1  
   126   54  123 1  
   127   55  124 1  
   128   56  125 1  
   129   59  126 1  
   130   59  127 1  
   131   61  128 1  
   132   62  129 1  
   133   63  130 1  
@<TRIPOS>SUBSTRUCTURE
     1 PRO         1

