### 
### Created by X-TOOL on Mon Sep 10 21:12:47 2018
### 

@<TRIPOS>MOLECULE
3usn_ligand
   37    38     1     0     0
SMALL
GAST_HUCK


@<TRIPOS>ATOM
      1 C1         -9.2880    1.7670    8.9730 C.3       1 ATT         0.1414
      2 C2        -10.5160    0.9950    8.3530 C.2       1 ATT         0.2033
      3 C3        -10.9470    2.5120    6.4320 C.3       1 ATT         0.0196
      4 C7         -6.2210    5.0900   10.2810 C.ar      1 ATT        -0.0686
      5 C8         -5.9830    4.7020   11.6090 C.ar      1 ATT        -0.0687
      6 C9         -6.9470    3.9690   12.3020 C.ar      1 ATT        -0.0686
      7 C10        -8.0910    3.5250   11.6450 C.ar      1 ATT        -0.0601
      8 C11        -4.5840    1.8160    8.4670 C.2       1 ATT         0.2176
      9 C12        -2.4420    1.6490    9.6280 C.2       1 ATT         0.1563
     10 N3         -2.5110    2.6060    8.7050 N.2       1 ATT        -0.2791
     11 N4         -3.7240    2.6660    8.1230 N.2       1 ATT        -0.2759
     12 S1         -3.9280    0.7320    9.6790 S.3       1 ATT         0.0736
     13 S2         -1.1010    1.3360   10.4720 S.3       1 ATT        -0.0736
     14 N          -5.8870    1.7870    7.8900 N.am      1 ATT        -0.1807
     15 C          -6.9290    1.2530    8.4720 C.2       1 ATT         0.3003
     16 O          -6.7550    0.5460    9.5000 O.2       1 ATT        -0.3868
     17 N1         -8.1090    1.6510    8.0610 N.am      1 ATT        -0.2432
     18 O1        -11.0390   -0.0030    8.8640 O.2       1 ATT        -0.3944
     19 N2        -11.1900    1.2850    7.2560 N.am      1 ATT        -0.2880
     20 C4         -9.4690    3.2280    9.4960 C.3       1 ATT         0.0213
     21 C5         -8.3130    3.8360   10.2990 C.ar      1 ATT        -0.0386
     22 C6         -7.3970    4.6430    9.6470 C.ar      1 ATT        -0.0601
     23 H1         -9.0316    1.1918    9.8749 H         1 ATT         0.0821
     24 H2        -11.6360    2.5202    5.5746 H         1 ATT         0.0484
     25 H3         -9.9089    2.5097    6.0682 H         1 ATT         0.0484
     26 H4        -11.1177    3.4072    7.0481 H         1 ATT         0.0484
     27 H5         -5.5142    5.7208    9.7541 H         1 ATT         0.0599
     28 H6         -5.0522    4.9713   12.0950 H         1 ATT         0.0559
     29 H7         -6.8049    3.7451   13.3531 H         1 ATT         0.0599
     30 H8         -8.8199    2.9302   12.1835 H         1 ATT         0.0557
     31 H9         -0.3978    2.0232   10.2502 H         1 ATT         0.1309
     32 H10        -6.0115    2.1991    6.9874 H         1 ATT         0.2393
     33 H11        -8.2252    1.8870    7.0962 H         1 ATT         0.1889
     34 H12       -11.9028    0.6500    6.9582 H         1 ATT         0.1848
     35 H13       -10.3608    3.2403   10.1398 H         1 ATT         0.0473
     36 H14        -9.6390    3.8733    8.6215 H         1 ATT         0.0473
     37 H15        -7.5894    4.9388    8.6220 H         1 ATT         0.0557
@<TRIPOS>BOND
     1    1    2 1  
     2    1   17 1  
     3   20    1 1  
     4    1   23 1  
     5    2   18 2  
     6    2   19 am 
     7   19    3 1  
     8    3   24 1  
     9    3   25 1  
    10    3   26 1  
    11    5    4 ar 
    12    4   22 ar 
    13    4   27 1  
    14    6    5 ar 
    15    5   28 1  
    16    7    6 ar 
    17    6   29 1  
    18   21    7 ar 
    19    7   30 1  
    20    8   11 2  
    21    8   12 1  
    22   14    8 1  
    23    9   10 2  
    24   12    9 1  
    25    9   13 1  
    26   11   10 1  
    27   15   14 am 
    28   13   31 1  
    29   15   16 2  
    30   17   15 am 
    31   14   32 1  
    32   17   33 1  
    33   20   21 1  
    34   19   34 1  
    35   20   35 1  
    36   21   22 ar 
    37   20   36 1  
    38   22   37 1  
@<TRIPOS>SUBSTRUCTURE
     1 ATT         1

