### 
### Created by X-TOOL on Mon Sep 10 21:13:11 2018
### 

@<TRIPOS>MOLECULE
3usx_ligand
   43    42     1     0     0
SMALL
GAST_HUCK


@<TRIPOS>ATOM
      1 C1        -34.3880  -17.6260  -41.0770 C.2       1 MYR         0.0348
      2 O1        -33.7600  -18.1540  -40.1310 O.co2     1 MYR        -0.5690
      3 O2        -33.8310  -16.6690  -41.6640 O.co2     1 MYR        -0.5690
      4 C2        -35.7800  -18.0990  -41.4960 C.3       1 MYR         0.0002
      5 C3        -36.0040  -19.6160  -41.3620 C.3       1 MYR        -0.0414
      6 C4        -36.3990  -20.3350  -42.6650 C.3       1 MYR        -0.0516
      7 C5        -36.2410  -21.8600  -42.5840 C.3       1 MYR        -0.0530
      8 C6        -34.9290  -22.3590  -43.1790 C.3       1 MYR        -0.0531
      9 C7        -33.7040  -21.8710  -42.3930 C.3       1 MYR        -0.0531
     10 C8        -32.9910  -22.9870  -41.6190 C.3       1 MYR        -0.0531
     11 C9        -33.4830  -23.0750  -40.1780 C.3       1 MYR        -0.0531
     12 C10       -33.5540  -24.5290  -39.7060 C.3       1 MYR        -0.0531
     13 C11       -34.9860  -24.9650  -39.3940 C.3       1 MYR        -0.0531
     14 C12       -35.0510  -26.4000  -38.8760 C.3       1 MYR        -0.0533
     15 C13       -36.1250  -27.2070  -39.6170 C.3       1 MYR        -0.0559
     16 C14       -37.3660  -27.4760  -38.7700 C.3       1 MYR        -0.0653
     17 H1        -35.9356  -17.8201  -42.5486 H         1 MYR         0.0430
     18 H2        -36.5217  -17.5850  -40.8670 H         1 MYR         0.0430
     19 H3        -36.8057  -19.7786  -40.6265 H         1 MYR         0.0283
     20 H4        -35.0710  -20.0671  -40.9932 H         1 MYR         0.0283
     21 H5        -35.7611  -19.9599  -43.4789 H         1 MYR         0.0266
     22 H6        -37.4511  -20.1036  -42.8873 H         1 MYR         0.0266
     23 H7        -37.0732  -22.3275  -43.1307 H         1 MYR         0.0265
     24 H8        -36.2822  -22.1603  -41.5266 H         1 MYR         0.0265
     25 H9        -34.8509  -21.9966  -44.2146 H         1 MYR         0.0265
     26 H10       -34.9355  -23.4590  -43.1749 H         1 MYR         0.0265
     27 H11       -34.0329  -21.1047  -41.6756 H         1 MYR         0.0265
     28 H12       -32.9894  -21.4272  -43.1017 H         1 MYR         0.0265
     29 H13       -31.9099  -22.7840  -41.6151 H         1 MYR         0.0265
     30 H14       -33.1820  -23.9472  -42.1204 H         1 MYR         0.0265
     31 H15       -34.4856  -22.6272  -40.1131 H         1 MYR         0.0265
     32 H16       -32.7907  -22.5200  -39.5278 H         1 MYR         0.0265
     33 H17       -32.9448  -24.6365  -38.7965 H         1 MYR         0.0265
     34 H18       -33.1502  -25.1784  -40.4967 H         1 MYR         0.0265
     35 H19       -35.5868  -24.8922  -40.3126 H         1 MYR         0.0265
     36 H20       -35.4025  -24.2930  -38.6292 H         1 MYR         0.0265
     37 H21       -35.2907  -26.3839  -37.8026 H         1 MYR         0.0265
     38 H22       -34.0731  -26.8808  -39.0262 H         1 MYR         0.0265
     39 H23       -35.6915  -28.1720  -39.9183 H         1 MYR         0.0263
     40 H24       -36.4282  -26.6455  -40.5130 H         1 MYR         0.0263
     41 H25       -38.0926  -28.0558  -39.3581 H         1 MYR         0.0230
     42 H26       -37.8183  -26.5198  -38.4681 H         1 MYR         0.0230
     43 H27       -37.0815  -28.0463  -37.8735 H         1 MYR         0.0230
@<TRIPOS>BOND
     1    1    2 ar 
     2    1    3 ar 
     3    1    4 1  
     4    4    5 1  
     5    5    6 1  
     6    6    7 1  
     7    7    8 1  
     8    8    9 1  
     9    9   10 1  
    10   10   11 1  
    11   11   12 1  
    12   12   13 1  
    13   13   14 1  
    14   14   15 1  
    15   15   16 1  
    16    4   17 1  
    17    4   18 1  
    18    5   19 1  
    19    5   20 1  
    20    6   21 1  
    21    6   22 1  
    22    7   23 1  
    23    7   24 1  
    24    8   25 1  
    25    8   26 1  
    26    9   27 1  
    27    9   28 1  
    28   10   29 1  
    29   10   30 1  
    30   11   31 1  
    31   11   32 1  
    32   12   33 1  
    33   12   34 1  
    34   13   35 1  
    35   13   36 1  
    36   14   37 1  
    37   14   38 1  
    38   15   39 1  
    39   15   40 1  
    40   16   41 1  
    41   16   42 1  
    42   16   43 1  
@<TRIPOS>SUBSTRUCTURE
     1 MYR         1

