### 
### Created by X-TOOL on Mon Sep 10 21:13:09 2018
### 

@<TRIPOS>MOLECULE
3ut5_ligand
   69    70     1     0     0
SMALL
GAST_HUCK


@<TRIPOS>ATOM
      1 O1          8.8290   86.0640  104.5240 O.3       1 0EA        -0.3118
      2 C5          8.6010   86.3730  105.9110 C.2       1 0EA         0.1304
      3 C6          7.3030   86.6770  106.4580 C.2       1 0EA        -0.0227
      4 C7          9.6620   86.3950  106.8620 C.2       1 0EA         0.1385
      5 O5         10.8440   86.1570  106.4970 O.2       1 0EA        -0.4113
      6 C8          9.5310   86.6680  108.2240 C.2       1 0EA        -0.0165
      7 C9          8.2650   86.9770  108.7250 C.2       1 0EA        -0.0433
      8 C10         7.1340   86.9850  107.8580 C.3       1 0EA         0.0558
      9 C11         5.7520   87.3540  108.4430 C.3       1 0EA         0.1393
     10 O8          5.5610   86.8880  109.8300 O.3       1 0EA        -0.3778
     11 C12         5.7700   88.9460  108.4150 C.3       1 0EA         0.0981
     12 N6          4.6480   89.5440  109.1760 N.4       1 0EA         0.2462
     13 C13         5.0150   90.9020  109.6230 C.3       1 0EA        -0.0427
     14 C14         6.1150   89.6730  107.0270 C.2       1 0EA         0.2298
     15 O3          5.2510   89.7760  106.0810 O.2       1 0EA        -0.3906
     16 N           7.4330   90.1440  106.9930 N.am      1 VAL        -0.2607
     17 CA          8.1420   90.8570  105.9250 C.3       1 VAL         0.1334
     18 C           9.2130   89.9720  105.2740 C.2       1 VAL         0.2042
     19 O          10.3920   90.0120  105.6360 O.2       1 VAL        -0.3944
     20 CB          8.7120   92.2200  106.3800 C.3       1 VAL        -0.0063
     21 CG1         9.0140   93.1080  105.1790 C.3       1 VAL        -0.0584
     22 CG2         7.7700   92.9170  107.3520 C.3       1 VAL        -0.0584
     23 C1          9.1980   84.8630  101.9140 C.3       1 0E5        -0.0621
     24 C2          9.2400   86.3800  101.9960 C.3       1 0E5        -0.0185
     25 C3          8.6580   86.9860  103.3080 C.3       1 0E5         0.1251
     26 C4          7.1240   87.2250  103.0480 C.3       1 0E5        -0.0275
     27 N1          8.7280   89.2120  104.3220 N.am      1 0E5        -0.2608
     28 C19         9.5350   88.2700  103.5530 C.3       1 0E5         0.1634
     29 C20        10.5580   88.9320  102.5390 C.2       1 0E5         0.2064
     30 O6         11.7810   88.8210  102.8470 O.2       1 0E5        -0.3943
     31 N          10.0910   89.5580  101.4360 N.am      1 GLY        -0.2721
     32 CA         10.9280   90.1910  100.4240 C.3       1 GLY         0.0833
     33 C          11.3540   89.2300   99.3340 C.2       1 GLY         0.0570
     34 O          12.4240   89.3850   98.7420 O.co2     1 GLY        -0.5669
     35 OXT        10.7750   88.0670   99.1880 O.co2     1 GLY        -0.5669
     36 H           6.4324   86.6743  105.8022 H         1 0EA         0.0589
     37 H          10.3988   86.6406  108.8830 H         1 0EA         0.0484
     38 H           8.1413   87.2127  109.7820 H         1 0EA         0.0867
     39 H           6.5522   86.2859  107.2573 H         1 0EA         0.0731
     40 H           4.9440   86.8905  107.8769 H         1 0EA         0.0742
     41 H           4.6884   87.1461  110.1358 H         1 0EA         0.2109
     42 H           6.6812   89.1816  108.9648 H         1 0EA         0.1130
     43 H           4.4457   88.9640  109.9903 H         1 0EA         0.2033
     44 H           3.8244   89.5972  108.5767 H         1 0EA         0.2033
     45 H           5.8962   90.8470  110.2622 H         1 0EA         0.0777
     46 H           5.2332   91.5226  108.7539 H         1 0EA         0.0777
     47 H           4.1857   91.3357  110.1818 H         1 0EA         0.0777
     48 H           7.9808   89.9650  107.8346 H         1 VAL         0.1885
     49 H           7.3982   91.0880  105.1624 H         1 VAL         0.0802
     50 H           9.6477   92.0317  106.9064 H         1 VAL         0.0343
     51 H           9.7468   92.6156  104.5398 H         1 VAL         0.0234
     52 H           8.0965   93.2802  104.6162 H         1 VAL         0.0234
     53 H           9.4139   94.0612  105.5249 H         1 VAL         0.0234
     54 H           6.8093   93.0871  106.8661 H         1 VAL         0.0234
     55 H           7.6277   92.2890  108.2315 H         1 VAL         0.0234
     56 H           8.2010   93.8722  107.6519 H         1 VAL         0.0234
     57 H           9.7749   84.4399  102.7364 H         1 0E5         0.0231
     58 H           8.1639   84.5252  101.9823 H         1 0E5         0.0231
     59 H           9.6252   84.5398  100.9647 H         1 0E5         0.0231
     60 H           8.6268   86.7561  101.1771 H         1 0E5         0.0296
     61 H          10.2905   86.6679  101.9558 H         1 0E5         0.0296
     62 H           7.0015   87.9139  102.2122 H         1 0E5         0.0263
     63 H           6.6447   86.2752  102.8109 H         1 0E5         0.0263
     64 H           6.6674   87.6508  103.9415 H         1 0E5         0.0263
     65 H           7.7334   89.2829  104.1073 H         1 0E5         0.1884
     66 H          10.3923   87.8138  104.0480 H         1 0E5         0.0833
     67 H           9.0803   89.5899  101.3020 H         1 GLY         0.1873
     68 H          11.8281   90.5592  100.9164 H         1 GLY         0.0689
     69 H          10.3471   90.9878   99.9596 H         1 GLY         0.0689
@<TRIPOS>BOND
     1    1    2 1  
     2   25    1 1  
     3    2    3 2  
     4    2    4 1  
     5    3    8 1  
     6    4    5 2  
     7    4    6 1  
     8    6    7 2  
     9    8    7 1  
    10    8    9 1  
    11    9   10 1  
    12    9   11 1  
    13   11   12 1  
    14   11   14 1  
    15   12   13 1  
    16   14   15 2  
    17   14   16 am 
    18   16   17 1  
    19   17   18 1  
    20   17   20 1  
    21   18   19 2  
    22   18   27 am 
    23   20   21 1  
    24   20   22 1  
    25   24   23 1  
    26   24   25 1  
    27   25   26 1  
    28   25   28 1  
    29   27   28 1  
    30   28   29 1  
    31   29   30 2  
    32   29   31 am 
    33   31   32 1  
    34   32   33 1  
    35   33   34 ar 
    36   33   35 ar 
    37    3   36 1  
    38    6   37 1  
    39    7   38 1  
    40    8   39 1  
    41    9   40 1  
    42   10   41 1  
    43   11   42 1  
    44   12   43 1  
    45   12   44 1  
    46   13   45 1  
    47   13   46 1  
    48   13   47 1  
    49   16   48 1  
    50   17   49 1  
    51   20   50 1  
    52   21   51 1  
    53   21   52 1  
    54   21   53 1  
    55   22   54 1  
    56   22   55 1  
    57   22   56 1  
    58   23   57 1  
    59   23   58 1  
    60   23   59 1  
    61   24   60 1  
    62   24   61 1  
    63   26   62 1  
    64   26   63 1  
    65   26   64 1  
    66   27   65 1  
    67   28   66 1  
    68   31   67 1  
    69   32   68 1  
    70   32   69 1  
@<TRIPOS>SUBSTRUCTURE
     1 0EA         1

