### 
### Created by X-TOOL on Mon Sep 10 21:13:11 2018
### 

@<TRIPOS>MOLECULE
3utu_ligand
   82    85     1     0     0
SMALL
GAST_HUCK


@<TRIPOS>ATOM
      1 S8         18.0850  -16.3870   24.9640 S.o2      1 1TS         0.0657
      2 CL         20.8370  -12.1460   26.6850 Cl        1 1TS        -0.0788
      3 C35        19.5510  -15.4720   24.9520 C.ar      1 1TS         0.0977
      4 C10        23.9730  -13.3580   24.1640 C.3       1 1TS         0.0596
      5 O9         22.9250  -13.0920   24.9790 O.3       1 1TS        -0.3203
      6 C5         21.8130  -13.8370   24.8930 C.ar      1 1TS         0.1052
      7 O1         18.4230  -17.3820   24.3800 O.2       1 1TS        -0.1516
      8 O10        17.6440  -16.3220   26.0080 O.2       1 1TS        -0.1516
      9 C7         20.5770  -15.7130   24.0780 C.ar      1 1TS        -0.0438
     10 C3         19.6800  -14.3240   25.7610 C.ar      1 1TS        -0.0300
     11 C6         21.7330  -14.9280   24.0610 C.ar      1 1TS        -0.0306
     12 C4         20.7550  -13.5930   25.6870 C.ar      1 1TS         0.0696
     13 C13        17.6640  -13.9570   22.3680 C.2       1 1TS         0.2048
     14 N11        17.1750  -15.7780   23.8350 N.am      1 1TS        -0.2244
     15 O14        16.7870  -13.3640   22.8960 O.2       1 1TS        -0.3945
     16 C15        14.7330  -19.3660   22.1860 C.3       1 1TS         0.0687
     17 C31        14.2280  -19.6180   23.4990 C.ar      1 1TS        -0.0116
     18 C32        13.0220  -20.1390   23.6580 C.ar      1 1TS        -0.0467
     19 C33        12.5970  -20.3510   24.9050 C.ar      1 1TS        -0.0334
     20 C44        13.3220  -20.1100   26.0220 C.ar      1 1TS         0.0883
     21 C8         14.5730  -19.5710   25.8720 C.ar      1 1TS        -0.0334
     22 C9         14.9450  -19.4300   24.6230 C.ar      1 1TS        -0.0467
     23 C40        12.8160  -20.3110   27.1020 C.1       1 1TS         0.0934
     24 N63        12.3340  -20.3620   28.0940 N.1       1 1TS        -0.3338
     25 C45        17.6950  -15.5130   22.6230 C.3       1 1TS         0.1430
     26 C12        16.8720  -16.1360   21.3880 C.3       1 1TS         0.0742
     27 C46        16.5250  -17.6600   21.5310 C.2       1 1TS         0.1821
     28 O22        17.3940  -18.3810   21.3740 O.2       1 1TS        -0.3967
     29 N14        15.3170  -18.0060   21.9460 N.am      1 1TS        -0.2739
     30 N15        18.5770  -13.4810   21.6180 N.am      1 1TS        -0.2500
     31 C16        18.4480  -12.1770   21.1290 C.3       1 1TS         0.1338
     32 C17        17.1200  -12.1720   20.2810 C.2       1 1TS         0.2037
     33 O18        16.8440  -12.9880   19.4770 O.2       1 1TS        -0.3944
     34 C34        19.5280  -12.0160   20.0730 C.3       1 1TS        -0.0104
     35 C1         20.3560  -13.2590   20.0790 C.3       1 1TS        -0.0281
     36 C2         19.6190  -14.2220   20.9120 C.3       1 1TS         0.0369
     37 N19        16.3280  -11.0690   20.4540 N.am      1 1TS        -0.2737
     38 C20        15.0790  -10.8690   19.7970 C.3       1 1TS         0.0645
     39 C21        14.0190  -10.8830   20.8490 C.ar      1 1TS        -0.0210
     40 C26        13.4110   -9.7610   21.3260 C.ar      1 1TS        -0.0584
     41 C25        12.5010   -9.7550   22.2480 C.ar      1 1TS        -0.0633
     42 C24        12.0730  -10.8450   22.8530 C.ar      1 1TS         0.0188
     43 C27        11.0670  -10.8660   23.8680 C.cat     1 1TS         0.2318
     44 N29        10.8020   -9.8930   24.4720 N.pl3     1 1TS        -0.2729
     45 N28        10.3980  -11.9280   24.1010 N.pl3     1 1TS        -0.2729
     46 C23        12.6730  -11.9760   22.4630 C.ar      1 1TS        -0.0633
     47 C22        13.5990  -11.9520   21.4950 C.ar      1 1TS        -0.0584
     48 H1         24.7896  -12.6517   24.3745 H         1 1TS         0.0578
     49 H2         23.6581  -13.2524   23.1154 H         1 1TS         0.0578
     50 H3         24.3228  -14.3859   24.3401 H         1 1TS         0.0578
     51 H4         20.4901  -16.5368   23.3788 H         1 1TS         0.0610
     52 H5         18.8843  -14.0502   26.4443 H         1 1TS         0.0614
     53 H6         22.5558  -15.1763   23.4003 H         1 1TS         0.0542
     54 H7         16.2104  -15.5879   24.0180 H         1 1TS         0.1706
     55 H8         13.9040  -19.5042   21.4763 H         1 1TS         0.0704
     56 H9         15.5185  -20.1083   21.9813 H         1 1TS         0.0704
     57 H10        12.4007  -20.3851   22.8045 H         1 1TS         0.0584
     58 H11        11.5957  -20.7460   25.0329 H         1 1TS         0.0701
     59 H12        15.1985  -19.2869   26.7105 H         1 1TS         0.0701
     60 H13        15.9727  -19.1188   24.4744 H         1 1TS         0.0584
     61 H14        18.7292  -15.8869   22.5988 H         1 1TS         0.0779
     62 H15        17.4728  -16.0059   20.4758 H         1 1TS         0.0547
     63 H16        15.9292  -15.5782   21.2887 H         1 1TS         0.0547
     64 H17        14.6977  -17.2421   22.1277 H         1 1TS         0.1881
     65 H18        18.4780  -11.4105   21.9174 H         1 1TS         0.0802
     66 H19        20.1572  -11.1454   20.3099 H         1 1TS         0.0313
     67 H20        19.0674  -11.8772   19.0838 H         1 1TS         0.0313
     68 H21        21.3474  -13.0578   20.5109 H         1 1TS         0.0287
     69 H22        20.4734  -13.6470   19.0564 H         1 1TS         0.0287
     70 H23        19.1648  -14.9974   20.2777 H         1 1TS         0.0524
     71 H24        20.3011  -14.6929   21.6351 H         1 1TS         0.0524
     72 H25        16.6460  -10.3582   21.0814 H         1 1TS         0.1878
     73 H26        14.9010  -11.6769   19.0720 H         1 1TS         0.0683
     74 H27        15.0787   -9.9009   19.2747 H         1 1TS         0.0683
     75 H28        13.7092   -8.8076   20.9050 H         1 1TS         0.0557
     76 H29        12.0689   -8.8038   22.5371 H         1 1TS         0.0599
     77 H30        10.0749   -9.9214   25.2010 H         1 1TS         0.3180
     78 H31        11.2969   -9.0120   24.2722 H         1 1TS         0.3180
     79 H32        10.6103  -12.7940   23.5853 H         1 1TS         0.3180
     80 H33         9.6459  -11.9189   24.8047 H         1 1TS         0.3180
     81 H34        12.4084  -12.9164   22.9328 H         1 1TS         0.0599
     82 H35        14.0443  -12.9005   21.2173 H         1 1TS         0.0557
@<TRIPOS>BOND
     1    1    3 1  
     2    1    7 2  
     3    1    8 2  
     4   14    1 am 
     5   12    2 1  
     6    3    9 ar 
     7    3   10 ar 
     8    5    4 1  
     9    6    5 1  
    10   11    6 ar 
    11   12    6 ar 
    12    9   11 ar 
    13   10   12 ar 
    14   13   15 2  
    15   25   13 1  
    16   13   30 am 
    17   25   14 1  
    18   16   17 1  
    19   29   16 1  
    20   17   18 ar 
    21   17   22 ar 
    22   18   19 ar 
    23   19   20 ar 
    24   21   20 ar 
    25   20   23 1  
    26   22   21 ar 
    27   23   24 3  
    28   26   25 1  
    29   27   26 1  
    30   27   28 2  
    31   27   29 am 
    32   30   31 1  
    33   30   36 1  
    34   31   32 1  
    35   31   34 1  
    36   32   33 2  
    37   32   37 am 
    38   34   35 1  
    39   35   36 1  
    40   37   38 1  
    41   38   39 1  
    42   39   40 ar 
    43   39   47 ar 
    44   40   41 ar 
    45   41   42 ar 
    46   42   43 1  
    47   42   46 ar 
    48   43   44 ar 
    49   43   45 ar 
    50   46   47 ar 
    51    4   48 1  
    52    4   49 1  
    53    4   50 1  
    54    9   51 1  
    55   10   52 1  
    56   11   53 1  
    57   14   54 1  
    58   16   55 1  
    59   16   56 1  
    60   18   57 1  
    61   19   58 1  
    62   21   59 1  
    63   22   60 1  
    64   25   61 1  
    65   26   62 1  
    66   26   63 1  
    67   29   64 1  
    68   31   65 1  
    69   34   66 1  
    70   34   67 1  
    71   35   68 1  
    72   35   69 1  
    73   36   70 1  
    74   36   71 1  
    75   37   72 1  
    76   38   73 1  
    77   38   74 1  
    78   40   75 1  
    79   41   76 1  
    80   44   77 1  
    81   44   78 1  
    82   45   79 1  
    83   45   80 1  
    84   46   81 1  
    85   47   82 1  
@<TRIPOS>SUBSTRUCTURE
     1 1TS         1

