### 
### Created by X-TOOL on Mon Sep 10 21:13:11 2018
### 

@<TRIPOS>MOLECULE
3uu1_ligand
   22    22     1     0     0
SMALL
GAST_HUCK


@<TRIPOS>ATOM
      1 CAA         7.9580   -3.2540   29.5240 C.3       1 14B        -0.0382
      2 CAB         9.1880   -4.4310   24.7850 C.3       1 14B        -0.0354
      3 NAC         7.6410   -6.7990   25.1350 N.pl3     1 14B        -0.3406
      4 OAD         5.6670   -7.7090   28.7070 O.co2     1 14B        -0.5653
      5 OAE         6.0480   -8.3460   26.5930 O.co2     1 14B        -0.5653
      6 CAF         8.5250   -3.9300   27.1560 C.ar      1 14B        -0.0675
      7 CAG         7.1310   -5.4040   28.4760 C.ar      1 14B        -0.0648
      8 CAH         6.2020   -7.5610   27.5680 C.2       1 14B         0.0526
      9 CAI         7.8600   -4.2230   28.3490 C.ar      1 14B        -0.0621
     10 CAJ         8.4510   -4.7950   26.0760 C.ar      1 14B        -0.0299
     11 CAK         7.7080   -5.9750   26.1840 C.ar      1 14B         0.0461
     12 CAL         7.0520   -6.2820   27.3850 C.ar      1 14B         0.0146
     13 H1          8.5700   -2.3871   29.2342 H         1 14B         0.0366
     14 H2          8.4247   -3.7623   30.3806 H         1 14B         0.0366
     15 H3          6.9500   -2.9141   29.8040 H         1 14B         0.0366
     16 H4          9.7050   -3.4690   24.9167 H         1 14B         0.0364
     17 H5          8.4645   -4.3485   23.9605 H         1 14B         0.0364
     18 H6          9.9242   -5.2137   24.5499 H         1 14B         0.0364
     19 H7          8.1284   -6.5593   24.2599 H         1 14B         0.1694
     20 H8          7.1019   -7.6742   25.2012 H         1 14B         0.1694
     21 H9          9.1043   -3.0174   27.0743 H         1 14B         0.0483
     22 H10         6.6305   -5.6414   29.4078 H         1 14B         0.0498
@<TRIPOS>BOND
     1    9    1 1  
     2   10    2 1  
     3   11    3 1  
     4    8    4 ar 
     5    8    5 ar 
     6    6    9 ar 
     7   10    6 ar 
     8    9    7 ar 
     9    7   12 ar 
    10   12    8 1  
    11   10   11 ar 
    12   11   12 ar 
    13    1   13 1  
    14    1   14 1  
    15    1   15 1  
    16    2   16 1  
    17    2   17 1  
    18    2   18 1  
    19    3   19 1  
    20    3   20 1  
    21    6   21 1  
    22    7   22 1  
@<TRIPOS>SUBSTRUCTURE
     1 14B         1

