### 
### Created by X-TOOL on Mon Sep 10 21:13:08 2018
### 

@<TRIPOS>MOLECULE
3uug_ligand
   22    22     1     0     0
SMALL
GAST_HUCK


@<TRIPOS>ATOM
      1 C1        -62.8200   16.1970    6.1490 C.3       1 BDP         0.1873
      2 C2        -64.2200   15.6490    5.9100 C.3       1 BDP         0.1342
      3 C3        -64.5700   14.7360    7.0740 C.3       1 BDP         0.1156
      4 C4        -63.5230   13.6300    7.1620 C.3       1 BDP         0.1214
      5 C5        -62.1090   14.2140    7.1560 C.3       1 BDP         0.1420
      6 C6        -61.0850   13.0860    7.0590 C.2       1 BDP         0.0663
      7 O2        -65.1710   16.6810    5.8090 O.3       1 BDP        -0.3841
      8 O3        -65.8660   14.2150    6.8740 O.3       1 BDP        -0.3863
      9 O4        -63.6900   12.8910    8.3540 O.3       1 BDP        -0.3848
     10 O5        -61.9360   15.1020    6.0660 O.3       1 BDP        -0.3287
     11 O6A       -60.2460   13.1330    6.1450 O.co2     1 BDP        -0.5662
     12 O1        -62.4940   17.1280    5.1500 O.3       1 BDP        -0.3648
     13 O6B       -61.1340   12.1640    7.9030 O.co2     1 BDP        -0.5662
     14 H1        -62.7569   16.6713    7.1395 H         1 BDP         0.0937
     15 H2        -64.2258   15.0701    4.9747 H         1 BDP         0.0671
     16 H3        -64.5587   15.3136    8.0101 H         1 BDP         0.0649
     17 H4        -63.6417   12.9597    6.2980 H         1 BDP         0.0665
     18 H5        -61.9489   14.7659    8.0939 H         1 BDP         0.0794
     19 H6        -64.9461   17.2471    5.0801 H         1 BDP         0.2101
     20 H7        -66.0927   13.6457    7.5999 H         1 BDP         0.2100
     21 H8        -64.5643   12.5199    8.3754 H         1 BDP         0.2102
     22 H9        -61.6013   17.4272    5.2767 H         1 BDP         0.2126
@<TRIPOS>BOND
     1    1    2 1  
     2    1   10 1  
     3    1   12 1  
     4    2    3 1  
     5    2    7 1  
     6    3    4 1  
     7    3    8 1  
     8    4    5 1  
     9    4    9 1  
    10    5    6 1  
    11    5   10 1  
    12    6   11 ar 
    13    6   13 ar 
    14    1   14 1  
    15    2   15 1  
    16    3   16 1  
    17    4   17 1  
    18    5   18 1  
    19    7   19 1  
    20    8   20 1  
    21    9   21 1  
    22   12   22 1  
@<TRIPOS>SUBSTRUCTURE
     1 BDP         1

