### 
### Created by X-TOOL on Mon Sep 10 21:13:11 2018
### 

@<TRIPOS>MOLECULE
3uvp_ligand
   50    53     1     0     0
SMALL
GAST_HUCK


@<TRIPOS>ATOM
      1 OAA       -18.1660   -1.3740  -26.6470 O.2       1 048        -0.3889
      2 OAB       -18.1280    4.2010  -19.3870 O.2       1 048        -0.3735
      3 FAC       -22.6550    4.7150  -19.4720 F         1 048        -0.2033
      4 CAD       -17.7760    7.4170  -15.5520 C.ar      1 048        -0.0576
      5 CAE       -17.5450    7.7140  -16.8950 C.ar      1 048        -0.0562
      6 CAF       -18.3800    6.2180  -15.1680 C.ar      1 048        -0.0562
      7 CAG       -17.9330    6.8050  -17.8810 C.ar      1 048        -0.0415
      8 CAH       -18.7610    5.3060  -16.1480 C.ar      1 048        -0.0415
      9 CAI       -22.7000    2.6540  -20.6720 C.ar      1 048        -0.0511
     10 CAJ       -22.0550    1.4590  -21.0010 C.ar      1 048        -0.0562
     11 CAK       -20.0570    0.1460  -23.2250 C.ar      1 048        -0.0403
     12 CAL       -19.6480   -0.4320  -24.4290 C.ar      1 048        -0.0594
     13 CAM       -19.0920   -1.6830  -21.9910 C.ar      1 048        -0.0327
     14 CAN       -20.1530    2.0910  -19.6640 C.ar      1 048        -0.0213
     15 CAO       -17.6670   -4.4700  -25.2430 C.3       1 048        -0.0361
     16 CAP       -18.2730   -4.7360  -23.8570 C.3       1 048        -0.0405
     17 CAQ       -18.6220   -3.6510  -26.1270 C.3       1 048         0.0193
     18 CAR       -17.8980   -3.5860  -22.9210 C.3       1 048        -0.0180
     19 NAS       -20.2280    4.1880  -18.5060 N.am      1 048        -0.2350
     20 NAT       -20.1240    0.0100  -20.7990 N.pl3     1 048        -0.2787
     21 CAU       -18.5580   -2.1640  -25.7830 C.2       1 048         0.1190
     22 CAV       -18.9550    4.5920  -18.5670 C.2       1 048         0.2313
     23 CAW       -22.0610    3.5620  -19.8280 C.ar      1 048         0.1387
     24 CAX       -19.7810   -0.4810  -21.9970 C.ar      1 048         0.0556
     25 CAY       -20.7660    1.1700  -20.5190 C.ar      1 048         0.0415
     26 CAZ       -18.5460    5.6030  -17.5000 C.ar      1 048         0.0558
     27 CBA       -18.6750   -2.2650  -23.1850 C.ar      1 048        -0.0340
     28 CBB       -20.7930    3.2930  -19.3310 C.ar      1 048         0.0896
     29 CBC       -18.9510   -1.6410  -24.4000 C.ar      1 048         0.0214
     30 H1        -17.4809    8.1308  -14.7915 H         1 048         0.0652
     31 H2        -17.0664    8.6464  -17.1719 H         1 048         0.0629
     32 H3        -18.5500    6.0002  -14.1198 H         1 048         0.0629
     33 H4        -17.7624    7.0259  -18.9285 H         1 048         0.0669
     34 H5        -19.2235    4.3672  -15.8654 H         1 048         0.0669
     35 H6        -23.6851    2.8727  -21.0680 H         1 048         0.0535
     36 H7        -22.5575    0.7415  -21.6395 H         1 048         0.0399
     37 H8        -20.5930    1.0881  -23.2374 H         1 048         0.0490
     38 H9        -19.8690    0.0520  -25.3735 H         1 048         0.0624
     39 H10       -18.8759   -2.1742  -21.0491 H         1 048         0.0477
     40 H11       -19.1732    1.8734  -19.2546 H         1 048         0.0398
     41 H12       -17.4620   -5.4326  -25.7344 H         1 048         0.0290
     42 H13       -16.7264   -3.9129  -25.1211 H         1 048         0.0290
     43 H14       -17.8776   -5.6812  -23.4567 H         1 048         0.0290
     44 H15       -19.3679   -4.8022  -23.9396 H         1 048         0.0290
     45 H16       -19.6501   -4.0105  -25.9729 H         1 048         0.0481
     46 H17       -18.3400   -3.7874  -27.1814 H         1 048         0.0481
     47 H18       -16.8234   -3.3827  -23.0388 H         1 048         0.0438
     48 H19       -18.1000   -3.9035  -21.8874 H         1 048         0.0438
     49 H20       -20.8037    4.5833  -17.7902 H         1 048         0.2240
     50 H21       -19.8668   -0.5683  -19.9864 H         1 048         0.2086
@<TRIPOS>BOND
     1   21    1 2  
     2   22    2 2  
     3   23    3 1  
     4    5    4 ar 
     5    6    4 ar 
     6    7    5 ar 
     7    8    6 ar 
     8   26    7 ar 
     9   26    8 ar 
    10   10    9 ar 
    11    9   23 ar 
    12   25   10 ar 
    13   11   12 ar 
    14   24   11 ar 
    15   12   29 ar 
    16   24   13 ar 
    17   13   27 ar 
    18   14   25 ar 
    19   28   14 ar 
    20   16   15 1  
    21   15   17 1  
    22   18   16 1  
    23   21   17 1  
    24   27   18 1  
    25   22   19 am 
    26   19   28 1  
    27   20   24 1  
    28   25   20 1  
    29   29   21 1  
    30   22   26 1  
    31   23   28 ar 
    32   27   29 ar 
    33    4   30 1  
    34    5   31 1  
    35    6   32 1  
    36    7   33 1  
    37    8   34 1  
    38    9   35 1  
    39   10   36 1  
    40   11   37 1  
    41   12   38 1  
    42   13   39 1  
    43   14   40 1  
    44   15   41 1  
    45   15   42 1  
    46   16   43 1  
    47   16   44 1  
    48   17   45 1  
    49   17   46 1  
    50   18   47 1  
    51   18   48 1  
    52   19   49 1  
    53   20   50 1  
@<TRIPOS>SUBSTRUCTURE
     1 048         1

