### 
### Created by X-TOOL on Mon Sep 10 21:13:11 2018
### 

@<TRIPOS>MOLECULE
3uvq_ligand
   66    70     1     0     0
SMALL
GAST_HUCK


@<TRIPOS>ATOM
      1 OAA        -0.5410   -1.8270  -15.4310 O.2       1 FS8        -0.3735
      2 OAB        -2.2270    4.3980  -23.0010 O.2       1 FS8        -0.3820
      3 OAC        -5.7270    6.8740  -29.5600 O.3       1 FS8        -0.3924
      4 OAD        -4.9810    4.7820  -30.9480 O.3       1 FS8        -0.3869
      5 FAE        -4.9910   -1.4070  -14.9830 F         1 FS8        -0.2033
      6 CAF         0.0610   -5.3060  -11.9570 C.ar      1 FS8        -0.0576
      7 CAG        -0.5840   -5.8000  -13.0830 C.ar      1 FS8        -0.0562
      8 CAH         0.2400   -3.9110  -11.8150 C.ar      1 FS8        -0.0562
      9 CAI        -4.4160   -0.3360  -18.3180 C.ar      1 FS8        -0.0562
     10 CAJ        -2.8780    1.4230  -20.2900 C.ar      1 FS8        -0.0404
     11 CAK        -1.0320   -4.8950  -14.0680 C.ar      1 FS8        -0.0415
     12 CAL        -0.2180   -3.0280  -12.7860 C.ar      1 FS8        -0.0415
     13 CAM        -5.0340   -0.5200  -17.0700 C.ar      1 FS8        -0.0510
     14 CAN        -1.8500    2.7510  -27.5020 C.ar      1 FS8        -0.0348
     15 CAO        -0.9480    2.0030  -26.7330 C.ar      1 FS8        -0.0623
     16 CAP        -2.6890    2.4000  -21.2750 C.ar      1 FS8        -0.0598
     17 CAQ        -1.7380   -0.1400  -21.7580 C.ar      1 FS8        -0.0326
     18 CAR        -2.5810   -1.7380  -17.5310 C.ar      1 FS8        -0.0213
     19 CAS        -2.7780    3.7670  -25.5060 C.ar      1 FS8        -0.0217
     20 CAT        -5.6090    5.6990  -28.7450 C.3       1 FS8         0.0727
     21 CAU        -0.0430    1.3510  -24.6910 C.3       1 FS8        -0.0100
     22 CAV        -0.8610    0.2970  -23.8840 C.3       1 FS8        -0.0090
     23 CAW        -3.7700    3.9800  -29.0090 C.3       1 FS8         0.0970
     24 NAX        -2.6580   -2.6820  -15.2860 N.am      1 FS8        -0.2350
     25 NAY        -2.4950   -0.8820  -19.6980 N.pl3     1 FS8        -0.2787
     26 OAZ        -3.6470    4.3630  -27.6270 O.3       1 FS8        -0.3188
     27 CBA        -1.3470   -2.6130  -14.9310 C.2       1 FS8         0.2313
     28 CBB        -2.0040    3.2510  -23.3830 C.2       1 FS8         0.1393
     29 CBC        -2.3950    0.1440  -20.5410 C.ar      1 FS8         0.0556
     30 CBD        -3.1770   -0.9460  -18.5390 C.ar      1 FS8         0.0415
     31 CBE        -4.4270   -1.3000  -16.0610 C.ar      1 FS8         0.1387
     32 CBF        -2.7580    3.6210  -26.8930 C.ar      1 FS8         0.0895
     33 CBG        -0.8950   -3.5040  -13.9190 C.ar      1 FS8         0.0558
     34 CBH        -0.9580    2.1650  -25.3510 C.ar      1 FS8        -0.0327
     35 CBI        -1.5390    0.8420  -22.7440 C.ar      1 FS8        -0.0325
     36 CBJ        -3.1900   -1.9100  -16.2760 C.ar      1 FS8         0.0896
     37 CBK        -2.0270    2.1410  -22.4950 C.ar      1 FS8         0.0216
     38 CBL        -1.8550    3.0460  -24.7450 C.ar      1 FS8         0.0238
     39 CBM        -5.1140    4.4740  -29.5510 C.3       1 FS8         0.1055
     40 H          -6.3542    6.7094  -30.2678 H         1 FS8         0.2095
     41 H          -4.3479    5.4952  -31.0584 H         1 FS8         0.2100
     42 H           0.4262   -5.9880  -11.1891 H         1 FS8         0.0652
     43 H          -0.7419   -6.8717  -13.2041 H         1 FS8         0.0629
     44 H           0.7448   -3.5219  -10.9308 H         1 FS8         0.0629
     45 H          -4.8895    0.2661  -19.0935 H         1 FS8         0.0399
     46 H          -3.3879    1.6580  -19.3557 H         1 FS8         0.0490
     47 H          -1.4986   -5.2862  -14.9721 H         1 FS8         0.0669
     48 H          -0.0499   -1.9577  -12.6663 H         1 FS8         0.0669
     49 H          -5.9994   -0.0524  -16.8768 H         1 FS8         0.0535
     50 H          -1.8430    2.6529  -28.5876 H         1 FS8         0.0564
     51 H          -0.2537    1.3094  -27.2073 H         1 FS8         0.0543
     52 H          -3.0697    3.4048  -21.0919 H         1 FS8         0.0622
     53 H          -1.3740   -1.1514  -21.9385 H         1 FS8         0.0477
     54 H          -1.6274   -2.2264  -17.7317 H         1 FS8         0.0398
     55 H          -3.4984    4.4295  -25.0263 H         1 FS8         0.0572
     56 H          -6.5951    5.4646  -28.3441 H         1 FS8         0.0584
     57 H          -4.8819    5.9036  -27.9592 H         1 FS8         0.0584
     58 H           0.6178    0.8592  -25.4049 H         1 FS8         0.0443
     59 H           0.5850    1.9418  -24.0241 H         1 FS8         0.0443
     60 H          -0.1572   -0.4504  -23.5177 H         1 FS8         0.0460
     61 H          -1.6212   -0.1067  -24.5527 H         1 FS8         0.0460
     62 H          -3.7183    2.8945  -29.0936 H         1 FS8         0.0637
     63 H          -2.9580    4.4237  -29.5851 H         1 FS8         0.0637
     64 H          -3.2662   -3.3359  -14.7931 H         1 FS8         0.2240
     65 H          -1.9904   -1.7274  -19.9645 H         1 FS8         0.2086
     66 H          -5.8617    3.6888  -29.4389 H         1 FS8         0.0643
@<TRIPOS>BOND
     1   27    1 2  
     2   28    2 2  
     3   20    3 1  
     4   39    4 1  
     5   31    5 1  
     6    7    6 ar 
     7    8    6 ar 
     8   11    7 ar 
     9   12    8 ar 
    10    9   13 ar 
    11   30    9 ar 
    12   16   10 ar 
    13   10   29 ar 
    14   33   11 ar 
    15   33   12 ar 
    16   13   31 ar 
    17   15   14 ar 
    18   14   32 ar 
    19   34   15 ar 
    20   37   16 ar 
    21   29   17 ar 
    22   17   35 ar 
    23   30   18 ar 
    24   18   36 ar 
    25   32   19 ar 
    26   19   38 ar 
    27   39   20 1  
    28   22   21 1  
    29   21   34 1  
    30   35   22 1  
    31   26   23 1  
    32   23   39 1  
    33   24   27 am 
    34   36   24 1  
    35   29   25 1  
    36   25   30 1  
    37   32   26 1  
    38   27   33 1  
    39   28   37 1  
    40   28   38 1  
    41   31   36 ar 
    42   34   38 ar 
    43   35   37 ar 
    44    3   40 1  
    45    4   41 1  
    46    6   42 1  
    47    7   43 1  
    48    8   44 1  
    49    9   45 1  
    50   10   46 1  
    51   11   47 1  
    52   12   48 1  
    53   13   49 1  
    54   14   50 1  
    55   15   51 1  
    56   16   52 1  
    57   17   53 1  
    58   18   54 1  
    59   19   55 1  
    60   20   56 1  
    61   20   57 1  
    62   21   58 1  
    63   21   59 1  
    64   22   60 1  
    65   22   61 1  
    66   23   62 1  
    67   23   63 1  
    68   24   64 1  
    69   25   65 1  
    70   39   66 1  
@<TRIPOS>SUBSTRUCTURE
     1 FS8         1

