### 
### Created by X-TOOL on Mon Sep 10 21:13:09 2018
### 

@<TRIPOS>MOLECULE
3uw4_ligand
   70    73     1     0     0
SMALL
GAST_HUCK


@<TRIPOS>ATOM
      1 N         -13.0590   -3.6920    0.5950 N.4       1 MAA         0.2438
      2 CM        -14.1980   -4.3870    1.2550 C.3       1 MAA        -0.0428
      3 CA        -13.1320   -3.7330   -0.8860 C.3       1 MAA         0.0637
      4 CB        -12.2230   -2.6830   -1.5260 C.3       1 MAA        -0.0039
      5 C         -12.7600   -5.1160   -1.3480 C.2       1 MAA         0.2265
      6 O         -12.1920   -5.8820   -0.5940 O.2       1 MAA        -0.3907
      7 N         -13.1140   -5.4590   -2.5960 N.am      1 CHG        -0.2607
      8 CA        -12.9140   -6.7750   -3.2040 C.3       1 CHG         0.1341
      9 C         -12.2310   -6.6030   -4.5200 C.2       1 CHG         0.2067
     10 O         -12.6380   -5.7700   -5.3020 O.2       1 CHG        -0.3942
     11 C1        -14.3000   -7.4020   -3.4990 C.3       1 CHG        -0.0006
     12 C2        -15.2200   -7.3580   -2.2530 C.3       1 CHG        -0.0460
     13 C3        -14.7780   -8.3650   -1.1700 C.3       1 CHG        -0.0526
     14 C4        -14.7020   -9.7870   -1.7400 C.3       1 CHG        -0.0530
     15 C5        -15.0270   -9.8150   -3.2350 C.3       1 CHG        -0.0526
     16 C6        -14.1570   -8.8390   -4.0310 C.3       1 CHG        -0.0460
     17 N         -11.2100   -7.4010   -4.8760 N.am      1 PRO        -0.2489
     18 CA        -10.5270   -7.2670   -6.1480 C.3       1 PRO         0.1437
     19 C         -11.3460   -7.7120   -7.3160 C.2       1 PRO         0.2493
     20 O         -12.2320   -8.5530   -7.1900 O.2       1 PRO        -0.3723
     21 CB         -9.2750   -8.1830   -6.1230 C.3       1 PRO        -0.0095
     22 CG         -9.1270   -8.6070   -4.6380 C.3       1 PRO        -0.0281
     23 CD        -10.5700   -8.4690   -4.0880 C.3       1 PRO         0.0370
     24 N25       -11.0250   -7.1180   -8.4830 N.am      1 0DQ        -0.1891
     25 C26       -11.5930   -7.4940   -9.6840 C.2       1 0DQ         0.1964
     26 C27       -11.9870   -6.8140  -10.8290 C.2       1 0DQ         0.1095
     27 N28       -12.4350   -7.6060  -11.8060 N.2       1 0DQ        -0.2128
     28 N29       -12.4320   -8.8750  -11.6070 N.2       1 0DQ        -0.1648
     29 S30       -11.8040   -9.1630  -10.0390 S.3       1 0DQ         0.0874
     30 C31       -11.9660   -5.3400  -11.0080 C.ar      1 0DQ        -0.0266
     31 C32       -12.4480   -4.4810  -10.0140 C.ar      1 0DQ        -0.0677
     32 C33       -12.4210   -3.1150  -10.2340 C.ar      1 0DQ        -0.0724
     33 C34       -11.9270   -2.5990  -11.4310 C.ar      1 0DQ        -0.0718
     34 C35       -11.4490   -3.4450  -12.4200 C.ar      1 0DQ        -0.0724
     35 C36       -11.4780   -4.8180  -12.2140 C.ar      1 0DQ        -0.0677
     36 H1        -12.2012   -4.1340    0.8863 H         1 MAA         0.2032
     37 H2        -13.0572   -2.7280    0.8895 H         1 MAA         0.2032
     38 H3        -14.0848   -4.3206    2.3471 H         1 MAA         0.0777
     39 H4        -14.2083   -5.4441    0.9511 H         1 MAA         0.0777
     40 H5        -15.1425   -3.9098    0.9546 H         1 MAA         0.0777
     41 H6        -14.1674   -3.5236   -1.1926 H         1 MAA         0.1096
     42 H7        -12.3052   -2.7454   -2.6211 H         1 MAA         0.0310
     43 H8        -11.1811   -2.8677   -1.2255 H         1 MAA         0.0310
     44 H9        -12.5288   -1.6806   -1.1919 H         1 MAA         0.0310
     45 H10       -13.5511   -4.7565   -3.1577 H         1 CHG         0.1885
     46 H11       -12.3240   -7.4214   -2.5376 H         1 CHG         0.0803
     47 H12       -14.7769   -6.7999   -4.2865 H         1 CHG         0.0348
     48 H13       -16.2480   -7.5980   -2.5623 H         1 CHG         0.0270
     49 H14       -15.1924   -6.3442   -1.8272 H         1 CHG         0.0270
     50 H15       -15.5043   -8.3469   -0.3440 H         1 CHG         0.0265
     51 H16       -13.7862   -8.0753   -0.7926 H         1 CHG         0.0265
     52 H17       -15.4228  -10.4240   -1.2065 H         1 CHG         0.0265
     53 H18       -13.6850  -10.1779   -1.5889 H         1 CHG         0.0265
     54 H19       -16.0837   -9.5426   -3.3736 H         1 CHG         0.0265
     55 H20       -14.8578  -10.8330   -3.6159 H         1 CHG         0.0265
     56 H21       -13.1046   -9.1484   -3.9494 H         1 CHG         0.0270
     57 H22       -14.4654   -8.8628   -5.0866 H         1 CHG         0.0270
     58 H23       -10.2327   -6.2164   -6.2876 H         1 PRO         0.0812
     59 H24        -8.3844   -7.6321   -6.4597 H         1 PRO         0.0313
     60 H25        -9.4257   -9.0636   -6.7647 H         1 PRO         0.0313
     61 H26        -8.4352   -7.9393   -4.1037 H         1 PRO         0.0287
     62 H27        -8.7711   -9.6447   -4.5571 H         1 PRO         0.0287
     63 H28       -11.1175   -9.4149   -4.2123 H         1 PRO         0.0524
     64 H29       -10.5475   -8.1956   -3.0228 H         1 PRO         0.0524
     65 H30       -10.3515   -6.3788   -8.4786 H         1 0DQ         0.2527
     66 H31       -12.8372   -4.8802   -9.0844 H         1 0DQ         0.0530
     67 H32       -12.7873   -2.4403   -9.4687 H         1 0DQ         0.0590
     68 H33       -11.9165   -1.5268  -11.5900 H         1 0DQ         0.0534
     69 H34       -11.0564   -3.0386  -13.3451 H         1 0DQ         0.0590
     70 H35       -11.1222   -5.4882  -12.9882 H         1 0DQ         0.0530
@<TRIPOS>BOND
     1    1    2 1  
     2    1    3 1  
     3    3    4 1  
     4    3    5 1  
     5    5    6 2  
     6    5    7 am 
     7    7    8 1  
     8    8    9 1  
     9    8   11 1  
    10    9   10 2  
    11    9   17 am 
    12   11   12 1  
    13   11   16 1  
    14   12   13 1  
    15   13   14 1  
    16   14   15 1  
    17   15   16 1  
    18   17   18 1  
    19   17   23 1  
    20   18   19 1  
    21   18   21 1  
    22   19   20 2  
    23   19   24 am 
    24   21   22 1  
    25   22   23 1  
    26   24   25 1  
    27   25   26 2  
    28   25   29 1  
    29   26   27 1  
    30   26   30 1  
    31   27   28 2  
    32   28   29 1  
    33   30   31 ar 
    34   30   35 ar 
    35   31   32 ar 
    36   32   33 ar 
    37   33   34 ar 
    38   34   35 ar 
    39    1   36 1  
    40    1   37 1  
    41    2   38 1  
    42    2   39 1  
    43    2   40 1  
    44    3   41 1  
    45    4   42 1  
    46    4   43 1  
    47    4   44 1  
    48    7   45 1  
    49    8   46 1  
    50   11   47 1  
    51   12   48 1  
    52   12   49 1  
    53   13   50 1  
    54   13   51 1  
    55   14   52 1  
    56   14   53 1  
    57   15   54 1  
    58   15   55 1  
    59   16   56 1  
    60   16   57 1  
    61   18   58 1  
    62   21   59 1  
    63   21   60 1  
    64   22   61 1  
    65   22   62 1  
    66   23   63 1  
    67   23   64 1  
    68   24   65 1  
    69   31   66 1  
    70   32   67 1  
    71   33   68 1  
    72   34   69 1  
    73   35   70 1  
@<TRIPOS>SUBSTRUCTURE
     1 MAA         1

