### 
### Created by X-TOOL on Mon Sep 10 21:13:08 2018
### 

@<TRIPOS>MOLECULE
3uw5_ligand
   70    73     1     0     0
SMALL
GAST_HUCK


@<TRIPOS>ATOM
      1 N          86.3590   60.3040   14.7920 N.4       1 MAA         0.2438
      2 CM         86.4570   59.1170   13.9180 C.3       1 MAA        -0.0428
      3 CA         84.9810   60.5640   15.2490 C.3       1 MAA         0.0637
      4 CB         85.0120   61.5830   16.3930 C.3       1 MAA        -0.0039
      5 C          84.1680   61.1260   14.1120 C.2       1 MAA         0.2265
      6 O          84.7440   61.6380   13.1660 O.2       1 MAA        -0.3907
      7 N          82.8210   61.0390   14.1640 N.am      1 CHG        -0.2607
      8 CA         81.9760   61.5740   13.0840 C.3       1 CHG         0.1341
      9 C          80.8150   62.3110   13.6990 C.2       1 CHG         0.2067
     10 O          80.3740   61.9710   14.7880 O.2       1 CHG        -0.3942
     11 C1         81.4360   60.4680   12.1470 C.3       1 CHG        -0.0006
     12 C2         80.5650   59.4420   12.9000 C.3       1 CHG        -0.0460
     13 C3         80.0250   58.3830   11.9250 C.3       1 CHG        -0.0526
     14 C4         81.1890   57.6780   11.2140 C.3       1 CHG        -0.0530
     15 C5         82.0370   58.7020   10.4450 C.3       1 CHG        -0.0526
     16 C6         82.5920   59.7570   11.4140 C.3       1 CHG        -0.0460
     17 N          80.2370   63.3380   13.0430 N.am      1 PRO        -0.2489
     18 CA         79.1010   64.0950   13.5670 C.3       1 PRO         0.1437
     19 C          77.9000   63.1990   13.7150 C.2       1 PRO         0.2493
     20 O          77.6800   62.3530   12.8670 O.2       1 PRO        -0.3723
     21 CB         78.7790   65.2180   12.5600 C.3       1 PRO        -0.0095
     22 CG         80.1110   65.3760   11.7900 C.3       1 PRO        -0.0281
     23 CD         80.6010   63.9090   11.7250 C.3       1 PRO         0.0370
     24 N25        77.0900   63.3290   14.7910 N.am      1 0DQ        -0.1891
     25 C26        75.9540   62.5380   14.9390 C.2       1 0DQ         0.1964
     26 C27        75.1410   62.3450   16.0470 C.2       1 0DQ         0.1095
     27 N28        74.1190   61.5340   15.8360 N.2       1 0DQ        -0.2128
     28 N29        73.9390   61.0260   14.6770 N.2       1 0DQ        -0.1648
     29 S30        75.1950   61.6040   13.6970 S.3       1 0DQ         0.0874
     30 C31        75.3560   62.9310   17.3950 C.ar      1 0DQ        -0.0266
     31 C32        74.2920   63.5580   18.0620 C.ar      1 0DQ        -0.0677
     32 C33        74.4800   64.0880   19.3310 C.ar      1 0DQ        -0.0724
     33 C34        75.7220   63.9880   19.9460 C.ar      1 0DQ        -0.0718
     34 C35        76.7740   63.3600   19.2950 C.ar      1 0DQ        -0.0724
     35 C36        76.5990   62.8290   18.0250 C.ar      1 0DQ        -0.0677
     36 H1         86.6860   61.1087   14.2805 H         1 MAA         0.2032
     37 H2         86.9443   60.1586   15.5997 H         1 MAA         0.2032
     38 H3         87.5033   58.9738   13.6101 H         1 MAA         0.0777
     39 H4         85.8295   59.2650   13.0268 H         1 MAA         0.0777
     40 H5         86.1113   58.2283   14.4664 H         1 MAA         0.0777
     41 H6         84.5259   59.6261   15.6001 H         1 MAA         0.1096
     42 H7         83.9858   61.7796   16.7367 H         1 MAA         0.0310
     43 H8         85.4654   62.5200   16.0373 H         1 MAA         0.0310
     44 H9         85.6070   61.1809   17.2262 H         1 MAA         0.0310
     45 H10        82.3888   60.6019   14.9528 H         1 CHG         0.1885
     46 H11        82.5753   62.2758   12.4855 H         1 CHG         0.0803
     47 H12        80.8022   60.9532   11.3902 H         1 CHG         0.0348
     48 H13        79.7202   59.9623   13.3750 H         1 CHG         0.0270
     49 H14        81.1724   58.9478   13.6725 H         1 CHG         0.0270
     50 H15        79.3835   58.8710   11.1765 H         1 CHG         0.0265
     51 H16        79.4367   57.6403   12.4838 H         1 CHG         0.0265
     52 H17        80.7880   56.9351   10.5088 H         1 CHG         0.0265
     53 H18        81.8185   57.1722   11.9609 H         1 CHG         0.0265
     54 H19        81.4122   59.1966    9.6867 H         1 CHG         0.0265
     55 H20        82.8731   58.1853    9.9510 H         1 CHG         0.0265
     56 H21        83.2426   59.2655   12.1523 H         1 CHG         0.0270
     57 H22        83.1745   60.4991   10.8483 H         1 CHG         0.0270
     58 H23        79.3597   64.5280   14.5445 H         1 PRO         0.0812
     59 H24        78.5074   66.1496   13.0781 H         1 PRO         0.0313
     60 H25        77.9628   64.9229   11.8842 H         1 PRO         0.0313
     61 H26        80.8201   66.0132   12.3388 H         1 PRO         0.0287
     62 H27        79.9478   65.7907   10.7843 H         1 PRO         0.0287
     63 H28        80.0956   63.3659   10.9129 H         1 PRO         0.0524
     64 H29        81.6894   63.8691   11.5711 H         1 PRO         0.0524
     65 H30        77.3115   64.0059   15.4930 H         1 0DQ         0.2527
     66 H31        73.3212   63.6285   17.5849 H         1 0DQ         0.0530
     67 H32        73.6594   64.5791   19.8414 H         1 0DQ         0.0590
     68 H33        75.8694   64.4018   20.9370 H         1 0DQ         0.0534
     69 H34        77.7395   63.2836   19.7819 H         1 0DQ         0.0590
     70 H35        77.4241   62.3366   17.5232 H         1 0DQ         0.0530
@<TRIPOS>BOND
     1    1    2 1  
     2    1    3 1  
     3    3    4 1  
     4    3    5 1  
     5    5    6 2  
     6    5    7 am 
     7    7    8 1  
     8    8    9 1  
     9    8   11 1  
    10    9   10 2  
    11    9   17 am 
    12   11   12 1  
    13   11   16 1  
    14   12   13 1  
    15   13   14 1  
    16   14   15 1  
    17   15   16 1  
    18   17   18 1  
    19   17   23 1  
    20   18   19 1  
    21   18   21 1  
    22   19   20 2  
    23   19   24 am 
    24   21   22 1  
    25   22   23 1  
    26   24   25 1  
    27   25   26 2  
    28   25   29 1  
    29   26   27 1  
    30   26   30 1  
    31   27   28 2  
    32   28   29 1  
    33   30   31 ar 
    34   30   35 ar 
    35   31   32 ar 
    36   32   33 ar 
    37   33   34 ar 
    38   34   35 ar 
    39    1   36 1  
    40    1   37 1  
    41    2   38 1  
    42    2   39 1  
    43    2   40 1  
    44    3   41 1  
    45    4   42 1  
    46    4   43 1  
    47    4   44 1  
    48    7   45 1  
    49    8   46 1  
    50   11   47 1  
    51   12   48 1  
    52   12   49 1  
    53   13   50 1  
    54   13   51 1  
    55   14   52 1  
    56   14   53 1  
    57   15   54 1  
    58   15   55 1  
    59   16   56 1  
    60   16   57 1  
    61   18   58 1  
    62   21   59 1  
    63   21   60 1  
    64   22   61 1  
    65   22   62 1  
    66   23   63 1  
    67   23   64 1  
    68   24   65 1  
    69   31   66 1  
    70   32   67 1  
    71   33   68 1  
    72   34   69 1  
    73   35   70 1  
@<TRIPOS>SUBSTRUCTURE
     1 MAA         1

