### 
### Created by X-TOOL on Mon Sep 10 21:13:10 2018
### 

@<TRIPOS>MOLECULE
3uwk_ligand
   28    30     1     0     0
SMALL
GAST_HUCK


@<TRIPOS>ATOM
      1 O1         16.5520    2.6110   -9.5450 O.2       1 0DF        -0.3912
      2 C3         17.2900    3.2170   -8.6710 C.2       1 0DF         0.3174
      3 N1         18.6020    3.2700   -8.7580 N.am      1 0DF        -0.2011
      4 C7         19.4170    2.6980   -9.8430 C.3       1 0DF         0.0458
      5 C2         19.0010    3.9400   -7.6670 C.ar      1 0DF         0.1228
      6 C6         20.2620    4.3710   -7.2320 C.ar      1 0DF        -0.0269
      7 C5         20.2830    5.0910   -6.0460 C.ar      1 0DF        -0.0204
      8 C4         19.1060    5.4100   -5.3900 C.ar      1 0DF        -0.0140
      9 N3         17.9150    5.0540   -5.8480 N.ar      1 0DF        -0.2981
     10 C1         17.8410    4.3210   -6.9810 C.ar      1 0DF         0.1672
     11 N2         16.7840    3.8150   -7.5970 N.am      1 0DF        -0.2023
     12 C8         21.5330    5.6310   -5.4530 C.ar      1 0DF        -0.0242
     13 C13        22.4470    6.2830   -6.2990 C.ar      1 0DF        -0.0563
     14 C12        23.6130    6.8280   -5.7650 C.ar      1 0DF        -0.0626
     15 C11        23.8310    6.7530   -4.3850 C.ar      1 0DF        -0.0630
     16 C10        22.9150    6.1470   -3.5350 C.ar      1 0DF        -0.0626
     17 C9         21.7460    5.5840   -4.0660 C.ar      1 0DF        -0.0563
     18 H          19.9845    3.4928  -10.3271 H         1 0DF         0.0552
     19 H          20.1038    1.9596   -9.4292 H         1 0DF         0.0552
     20 H          18.7638    2.2197  -10.5729 H         1 0DF         0.0552
     21 H          21.1716    4.1536   -7.7919 H         1 0DF         0.0567
     22 H          19.1616    5.9762   -4.4603 H         1 0DF         0.0656
     23 H          15.8060    3.8711   -7.3128 H         1 0DF         0.2319
     24 H          22.2447    6.3618   -7.3672 H         1 0DF         0.0612
     25 H          24.3461    7.3067   -6.4143 H         1 0DF         0.0614
     26 H          24.7422    7.1807   -3.9667 H         1 0DF         0.0607
     27 H          23.1037    6.1094   -2.4621 H         1 0DF         0.0614
     28 H          21.0118    5.1157   -3.4104 H         1 0DF         0.0612
@<TRIPOS>BOND
     1    1    2 2  
     2    2    3 am 
     3    2   11 am 
     4    3    4 1  
     5    3    5 1  
     6    5    6 ar 
     7    5   10 ar 
     8    6    7 ar 
     9    7    8 ar 
    10    7   12 1  
    11    8    9 ar 
    12    9   10 ar 
    13   10   11 1  
    14   12   13 ar 
    15   12   17 ar 
    16   13   14 ar 
    17   14   15 ar 
    18   15   16 ar 
    19   16   17 ar 
    20    4   18 1  
    21    4   19 1  
    22    4   20 1  
    23    6   21 1  
    24    8   22 1  
    25   11   23 1  
    26   13   24 1  
    27   14   25 1  
    28   15   26 1  
    29   16   27 1  
    30   17   28 1  
@<TRIPOS>SUBSTRUCTURE
     1 0DF         1

