### 
### Created by X-TOOL on Mon Sep 10 21:13:08 2018
### 

@<TRIPOS>MOLECULE
3uwl_ligand
   55    57     1     0     0
SMALL
GAST_HUCK


@<TRIPOS>ATOM
      1 C          51.3140  -17.4710   26.6290 C.2       1 FOZ         0.1968
      2 N          51.6600  -17.4060   25.3430 N.am      1 FOZ        -0.2725
      3 O          51.8750  -16.7650   27.4480 O.2       1 FOZ        -0.3908
      4 N1         45.4100  -17.8730   31.9970 N.2       1 FOZ        -0.2914
      5 O1         52.8830  -15.0680   22.8810 O.co2     1 FOZ        -0.5666
      6 C2         45.2120  -16.8120   31.1920 C.2       1 FOZ         0.2272
      7 O2         51.5120  -16.7110   22.7690 O.co2     1 FOZ        -0.5666
      8 N3         44.8970  -16.9290   29.8710 N.am      1 FOZ        -0.1890
      9 O3         43.7070  -21.8460   28.0480 O.2       1 FOZ        -0.3782
     10 C4         44.7510  -18.1420   29.2730 C.2       1 FOZ         0.2176
     11 O4         44.4580  -18.2730   28.0510 O.2       1 FOZ        -0.4211
     12 N5         44.8840  -20.6340   29.5410 N.am      1 FOZ        -0.2394
     13 C6         45.6680  -21.6510   30.2810 C.3       1 FOZ         0.0943
     14 C7         45.4660  -21.5660   31.8000 C.3       1 FOZ         0.0508
     15 N8         45.4890  -20.2040   32.3350 N.pl3     1 FOZ        -0.3242
     16 C9         47.1690  -21.4350   29.9490 C.3       1 FOZ         0.0534
     17 CA         52.6280  -16.4260   24.8270 C.3       1 FOZ         0.0951
     18 CB         54.0860  -16.8590   24.9330 C.3       1 FOZ        -0.0064
     19 CD         55.7090  -18.7150   24.5840 C.2       1 FOZ         0.0350
     20 CG         54.2850  -18.2550   24.3430 C.3       1 FOZ         0.0038
     21 CT         52.3420  -16.0540   23.3920 C.2       1 FOZ         0.0601
     22 N10        47.4250  -21.1540   28.5280 N.pl3     1 FOZ        -0.3172
     23 C11        50.2490  -18.4380   27.1150 C.ar      1 FOZ         0.0362
     24 C12        49.4330  -19.1510   26.2200 C.ar      1 FOZ        -0.0535
     25 C13        48.4750  -20.0620   26.6930 C.ar      1 FOZ        -0.0382
     26 C14        48.3560  -20.2760   28.0740 C.ar      1 FOZ         0.0433
     27 C15        49.1820  -19.5750   28.9750 C.ar      1 FOZ        -0.0382
     28 C16        50.1250  -18.6670   28.5000 C.ar      1 FOZ        -0.0535
     29 C4A        44.9270  -19.3470   30.1210 C.2       1 FOZ         0.1343
     30 C8A        45.2770  -19.1310   31.5440 C.2       1 FOZ         0.0783
     31 NA2        45.3440  -15.5780   31.7110 N.pl3     1 FOZ        -0.2844
     32 OE1        55.9310  -19.3600   25.6330 O.co2     1 FOZ        -0.5690
     33 OE2        56.6000  -18.4560   23.7390 O.co2     1 FOZ        -0.5690
     34 CP1        43.6550  -21.0310   28.9640 C.2       1 FOZ         0.1855
     35 H          51.2437  -18.0509   24.7020 H         1 FOZ         0.1864
     36 H          44.7697  -16.1001   29.3263 H         1 FOZ         0.2499
     37 H          45.3585  -22.6510   29.9431 H         1 FOZ         0.0643
     38 H          46.2674  -22.1410   32.2869 H         1 FOZ         0.0537
     39 H          44.4921  -22.0155   32.0438 H         1 FOZ         0.0537
     40 H          45.6712  -20.0609   33.3386 H         1 FOZ         0.1736
     41 H          47.7210  -22.3446   30.2282 H         1 FOZ         0.0541
     42 H          47.5375  -20.5856   30.5429 H         1 FOZ         0.0541
     43 H          52.5123  -15.5189   25.4383 H         1 FOZ         0.0726
     44 H          54.3822  -16.8702   25.9923 H         1 FOZ         0.0323
     45 H          54.7151  -16.1430   24.3839 H         1 FOZ         0.0323
     46 H          54.0887  -18.2258   23.2611 H         1 FOZ         0.0432
     47 H          53.5880  -18.9574   24.8233 H         1 FOZ         0.0432
     48 H          46.8595  -21.6576   27.8298 H         1 FOZ         0.1775
     49 H          49.5445  -18.9959   25.1530 H         1 FOZ         0.0636
     50 H          47.8346  -20.5939   25.9987 H         1 FOZ         0.0530
     51 H          49.0831  -19.7430   30.0413 H         1 FOZ         0.0530
     52 H          50.7641  -18.1360   29.1961 H         1 FOZ         0.0636
     53 H          45.5815  -15.4606   32.7063 H         1 FOZ         0.1877
     54 H          45.2075  -14.7505   31.1131 H         1 FOZ         0.1877
     55 H          42.7054  -20.6314   29.3168 H         1 FOZ         0.1578
@<TRIPOS>BOND
     1    1    2 am 
     2    1    3 2  
     3   23    1 1  
     4    2   17 1  
     5    4    6 2  
     6   30    4 1  
     7   21    5 ar 
     8    8    6 1  
     9    6   31 1  
    10   21    7 ar 
    11   10    8 am 
    12   34    9 2  
    13   10   11 2  
    14   29   10 1  
    15   13   12 1  
    16   12   29 am 
    17   12   34 am 
    18   13   14 1  
    19   16   13 1  
    20   14   15 1  
    21   15   30 1  
    22   22   16 1  
    23   17   18 1  
    24   17   21 1  
    25   18   20 1  
    26   20   19 1  
    27   19   32 ar 
    28   19   33 ar 
    29   26   22 1  
    30   24   23 ar 
    31   23   28 ar 
    32   25   24 ar 
    33   25   26 ar 
    34   26   27 ar 
    35   27   28 ar 
    36   29   30 2  
    37    2   35 1  
    38    8   36 1  
    39   13   37 1  
    40   14   38 1  
    41   14   39 1  
    42   15   40 1  
    43   16   41 1  
    44   16   42 1  
    45   17   43 1  
    46   18   44 1  
    47   18   45 1  
    48   20   46 1  
    49   20   47 1  
    50   22   48 1  
    51   24   49 1  
    52   25   50 1  
    53   27   51 1  
    54   28   52 1  
    55   31   53 1  
    56   31   54 1  
    57   34   55 1  
@<TRIPOS>SUBSTRUCTURE
     1 FOZ         1

