### 
### Created by X-TOOL on Mon Sep 10 21:13:10 2018
### 

@<TRIPOS>MOLECULE
3uwo_ligand
   32    34     1     0     0
SMALL
GAST_HUCK


@<TRIPOS>ATOM
      1 C1         12.0670   -2.3290   33.9800 C.ar      1 0DJ        -0.0139
      2 C2         10.9470   -3.0460   34.3070 C.ar      1 0DJ        -0.0193
      3 C3          9.6940   -2.5070   33.9740 C.ar      1 0DJ        -0.0268
      4 C4          9.6560   -1.2920   33.3250 C.ar      1 0DJ         0.1228
      5 C5         10.8420   -0.6340   33.0460 C.ar      1 0DJ         0.1672
      6 N6         12.0020   -1.1730   33.3660 N.ar      1 0DJ        -0.2981
      7 N7          8.6860   -0.5320   32.8940 N.am      1 0DJ        -0.2011
      8 C8          9.2600    0.5000   32.3380 C.2       1 0DJ         0.3173
      9 N9         10.5670    0.4820   32.4260 N.am      1 0DJ        -0.2023
     10 C10         7.2820   -0.8510   32.9690 C.3       1 0DJ         0.0458
     11 O11         8.6340    1.4300   31.7770 O.2       1 0DJ        -0.3912
     12 C12        11.0900   -4.3680   34.9840 C.ar      1 0DJ        -0.0186
     13 C13        10.2910   -5.4360   34.5870 C.ar      1 0DJ        -0.0521
     14 C14        10.4100   -6.6720   35.1940 C.ar      1 0DJ        -0.0572
     15 C15        11.3490   -6.8370   36.1880 C.ar      1 0DJ        -0.0433
     16 C16        12.1600   -5.7970   36.5740 C.ar      1 0DJ         0.0489
     17 C17        12.0380   -4.5670   35.9630 C.ar      1 0DJ        -0.0363
     18 C18        13.1620   -6.0130   37.6950 C.2       1 0DJ         0.2022
     19 O19        13.5720   -5.0990   38.3330 O.2       1 0DJ        -0.3848
     20 N20        13.5260   -7.2330   37.9890 N.am      1 0DJ        -0.3001
     21 H1         13.0401   -2.7312   34.2377 H         1 0DJ         0.0656
     22 H2          8.7793   -3.0335   34.2213 H         1 0DJ         0.0567
     23 H3         11.2112    1.1702   32.0924 H         1 0DJ         0.2319
     24 H4          7.1499   -1.7991   33.5110 H         1 0DJ         0.0552
     25 H5          6.8736   -0.9498   31.9524 H         1 0DJ         0.0552
     26 H6          6.7513   -0.0476   33.5009 H         1 0DJ         0.0552
     27 H7          9.5669   -5.2969   33.7924 H         1 0DJ         0.0646
     28 H8          9.7751   -7.4974   34.8929 H         1 0DJ         0.0625
     29 H9         11.4497   -7.8013   36.6729 H         1 0DJ         0.0658
     30 H10        12.6914   -3.7527   36.2546 H         1 0DJ         0.0665
     31 H11        14.1846   -7.3949   38.7239 H         1 0DJ         0.1808
     32 H12        13.1460   -8.0048   37.4791 H         1 0DJ         0.1808
@<TRIPOS>BOND
     1    1    2 ar 
     2    1    6 ar 
     3    2    3 ar 
     4    2   12 1  
     5    3    4 ar 
     6    4    5 ar 
     7    4    7 1  
     8    5    6 ar 
     9    5    9 1  
    10    7    8 am 
    11    7   10 1  
    12    8    9 am 
    13    8   11 2  
    14   12   13 ar 
    15   12   17 ar 
    16   13   14 ar 
    17   14   15 ar 
    18   15   16 ar 
    19   16   17 ar 
    20   16   18 1  
    21   18   19 2  
    22   18   20 am 
    23    1   21 1  
    24    3   22 1  
    25    9   23 1  
    26   10   24 1  
    27   10   25 1  
    28   10   26 1  
    29   13   27 1  
    30   14   28 1  
    31   15   29 1  
    32   17   30 1  
    33   20   31 1  
    34   20   32 1  
@<TRIPOS>SUBSTRUCTURE
     1 0DJ         1

