### 
### Created by X-TOOL on Mon Sep 10 21:13:08 2018
### 

@<TRIPOS>MOLECULE
3uxk_ligand
   17    17     1     0     0
SMALL
GAST_HUCK


@<TRIPOS>ATOM
      1 C1         51.7760  -52.3830   17.6340 C.ar      1 BHO         0.0515
      2 C2         50.4590  -52.3880   18.1100 C.ar      1 BHO        -0.0420
      3 C3         49.7080  -51.2100   18.0950 C.ar      1 BHO        -0.0563
      4 C4         50.2470  -50.0300   17.6140 C.ar      1 BHO        -0.0576
      5 C5         51.5530  -50.0240   17.1410 C.ar      1 BHO        -0.0563
      6 C6         52.3080  -51.1920   17.1520 C.ar      1 BHO        -0.0420
      7 C          52.5800  -53.6610   17.6540 C.2       1 BHO         0.2277
      8 O1         53.7590  -53.7570   17.3640 O.2       1 BHO        -0.3849
      9 N          51.7400  -54.6900   18.0570 N.am      1 BHO        -0.1633
     10 O2         51.8740  -56.0120   18.2600 O.3       1 BHO        -0.2719
     11 H1         50.0227  -53.3048   18.4897 H         1 BHO         0.0669
     12 H2         48.6892  -51.2207   18.4652 H         1 BHO         0.0629
     13 H3         49.6569  -49.1207   17.6064 H         1 BHO         0.0652
     14 H4         51.9855  -49.1052   16.7617 H         1 BHO         0.0629
     15 H5         53.3258  -51.1737   16.7795 H         1 BHO         0.0669
     16 H6         50.8104  -54.3706   18.2407 H         1 BHO         0.2213
     17 H7         51.0418  -56.3741   18.5410 H         1 BHO         0.2491
@<TRIPOS>BOND
     1    1    2 ar 
     2    1    6 ar 
     3    1    7 1  
     4    2    3 ar 
     5    3    4 ar 
     6    4    5 ar 
     7    5    6 ar 
     8    7    8 2  
     9    7    9 am 
    10    9   10 1  
    11    2   11 1  
    12    3   12 1  
    13    4   13 1  
    14    5   14 1  
    15    6   15 1  
    16    9   16 1  
    17   10   17 1  
@<TRIPOS>SUBSTRUCTURE
     1 BHO         1

