### 
### Created by X-TOOL on Mon Sep 10 21:13:09 2018
### 

@<TRIPOS>MOLECULE
3uxl_ligand
   15    15     1     0     0
SMALL
GAST_HUCK


@<TRIPOS>ATOM
      1 O01       -18.0860  -22.2670   17.8200 O.2       1 CFI        -0.1487
      2 N02       -19.1870  -22.7410   17.5930 N.2       1 CFI         0.1415
      3 N03       -20.2360  -21.9250   17.3340 N.2       1 CFI         0.0837
      4 O04       -19.9720  -20.6580   17.2680 O.2       1 CFI        -0.0954
      5 C05       -21.5850  -22.4620   17.1600 C.ar      1 CFI         0.2336
      6 C06       -22.6380  -21.6890   16.6780 C.ar      1 CFI         0.0660
      7 C07       -23.9250  -22.2330   16.5460 C.ar      1 CFI         0.0328
      8 C08       -24.1990  -23.5500   16.8940 C.ar      1 CFI         0.0328
      9 C09       -23.1560  -24.3240   17.3730 C.ar      1 CFI         0.0328
     10 C10       -21.8770  -23.7830   17.4990 C.ar      1 CFI         0.0660
     11 H1        -22.4618  -20.6557   16.4017 H         1 CFI         0.1089
     12 H2        -24.7253  -21.6102   16.1630 H         1 CFI         0.0966
     13 H3        -25.1980  -23.9585   16.7936 H         1 CFI         0.1440
     14 H4        -23.3345  -25.3563   17.6516 H         1 CFI         0.0966
     15 H5        -21.0791  -24.4133   17.8748 H         1 CFI         0.1089
@<TRIPOS>BOND
     1    1    2 2  
     2    2    3 1  
     3    3    4 2  
     4    3    5 1  
     5    5    6 ar 
     6    5   10 ar 
     7    6    7 ar 
     8    7    8 ar 
     9    8    9 ar 
    10    9   10 ar 
    11    6   11 1  
    12    7   12 1  
    13    8   13 1  
    14    9   14 1  
    15   10   15 1  
@<TRIPOS>SUBSTRUCTURE
     1 CFI         1

