### 
### Created by X-TOOL on Mon Sep 10 21:13:09 2018
### 

@<TRIPOS>MOLECULE
3uxm_ligand
   30    31     1     0     0
SMALL
GAST_HUCK


@<TRIPOS>ATOM
      1 O4          7.3710    2.2970   16.4310 O.2       1 0DN        -0.3843
      2 C6          6.7330    1.3690   16.9880 C.2       1 0DN         0.3265
      3 N2          5.9540    0.5230   16.2800 N.am      1 0DN        -0.1859
      4 C7          5.3060   -0.5000   16.8920 C.2       1 0DN         0.1930
      5 O3          4.5900   -1.2910   16.2430 O.2       1 0DN        -0.4079
      6 C8          5.4230   -0.6690   18.3660 C.2       1 0DN         0.0225
      7 C10         4.7370   -1.7810   19.1170 C.3       1 0DN        -0.0437
      8 C9          6.2230    0.2190   19.0510 C.2       1 0DN         0.0524
      9 N1          6.8420    1.2320   18.3980 N.am      1 0DN        -0.1736
     10 C4          7.7090    2.1650   19.1190 C.3       1 0DN         0.1756
     11 C3          7.0890    3.0570   20.2140 C.3       1 0DN         0.0308
     12 C2          8.2150    3.1800   21.2330 C.3       1 0DN         0.0888
     13 O2          8.9960    4.3460   20.9050 O.3       1 0DN        -0.3890
     14 O1          8.7000    1.3810   19.7470 O.3       1 0DN        -0.3396
     15 C1          9.0880    1.9450   20.9910 C.3       1 0DN         0.1160
     16 C5          9.0310    0.8580   22.0660 C.3       1 0DN         0.1188
     17 F1          7.7270    0.5670   22.3690 F         1 0DN        -0.2463
     18 H1          5.8536    0.6520   15.2934 H         1 0DN         0.2259
     19 H2          4.9712   -1.6986   20.1886 H         1 0DN         0.0296
     20 H3          5.0899   -2.7515   18.7381 H         1 0DN         0.0296
     21 H4          3.6492   -1.7045   18.9725 H         1 0DN         0.0296
     22 H5          6.3589    0.1059   20.1256 H         1 0DN         0.1011
     23 H6          8.1717    2.8298   18.3747 H         1 0DN         0.0959
     24 H7          6.2036    2.5794   20.6588 H         1 0DN         0.0344
     25 H8          6.8109    4.0421   19.8112 H         1 0DN         0.0344
     26 H9          7.8370    3.2263   22.2650 H         1 0DN         0.0622
     27 H10         9.7040    4.4381   21.5317 H         1 0DN         0.2099
     28 H11        10.1322    2.2841   20.9220 H         1 0DN         0.0649
     29 H12         9.5447    1.2136   22.9713 H         1 0DN         0.0642
     30 H13         9.5296   -0.0491   21.6938 H         1 0DN         0.0642
@<TRIPOS>BOND
     1    1    2 2  
     2    2    3 am 
     3    2    9 am 
     4    3    4 am 
     5    4    5 2  
     6    4    6 1  
     7    6    7 1  
     8    6    8 2  
     9    8    9 1  
    10    9   10 1  
    11   10   11 1  
    12   10   14 1  
    13   11   12 1  
    14   12   13 1  
    15   12   15 1  
    16   14   15 1  
    17   15   16 1  
    18   16   17 1  
    19    3   18 1  
    20    7   19 1  
    21    7   20 1  
    22    7   21 1  
    23    8   22 1  
    24   10   23 1  
    25   11   24 1  
    26   11   25 1  
    27   12   26 1  
    28   13   27 1  
    29   15   28 1  
    30   16   29 1  
    31   16   30 1  
@<TRIPOS>SUBSTRUCTURE
     1 0DN         1

