### 
### Created by X-TOOL on Mon Sep 10 21:13:10 2018
### 

@<TRIPOS>MOLECULE
3uyr_ligand
  129   132     1     0     0
SMALL
GAST_HUCK


@<TRIPOS>ATOM
      1 N          31.6190  -22.8740   34.8810 N.4       1 GLU         0.2380
      2 CA         30.1830  -22.9740   35.1280 C.3       1 GLU         0.0667
      3 C          29.4450  -21.6370   35.3410 C.2       1 GLU         0.2293
      4 O          28.2230  -21.6450   35.4610 O.2       1 GLU        -0.3905
      5 CB         29.9350  -23.8820   36.3270 C.3       1 GLU         0.0194
      6 CG         30.8470  -25.0940   36.3430 C.3       1 GLU         0.0075
      7 CD         30.5310  -26.0580   37.4650 C.2       1 GLU         0.0351
      8 OE1        29.8500  -25.6510   38.4300 O.co2     1 GLU        -0.5690
      9 OE2        30.9720  -27.2230   37.3810 O.co2     1 GLU        -0.5690
     10 N          30.1670  -20.4990   35.3780 N.am      1 PRO        -0.2471
     11 CA         29.6020  -19.1410   35.4750 C.3       1 PRO         0.1339
     12 C          28.3820  -18.8770   34.5760 C.2       1 PRO         0.2041
     13 O          27.2960  -18.6320   35.1010 O.2       1 PRO        -0.3944
     14 CB         30.7630  -18.2660   34.9730 C.3       1 PRO        -0.0104
     15 CG         31.5750  -19.1640   34.2200 C.3       1 PRO        -0.0281
     16 CD         31.5740  -20.4220   34.9680 C.3       1 PRO         0.0371
     17 N          28.5840  -18.9100   33.2540 N.am      1 GLN        -0.2636
     18 CA         27.5850  -18.5030   32.2460 C.3       1 GLN         0.1330
     19 C          27.7330  -17.0260   31.9030 C.2       1 GLN         0.2040
     20 O          27.8080  -16.6790   30.7260 O.2       1 GLN        -0.3944
     21 CB         26.1390  -18.8180   32.6640 C.3       1 GLN         0.0045
     22 CG         25.8620  -20.3110   32.8030 C.3       1 GLN         0.0412
     23 CD         26.4350  -21.1020   31.6460 C.2       1 GLN         0.1737
     24 OE1        25.9310  -21.0350   30.5230 O.2       1 GLN        -0.3973
     25 NE2        27.5000  -21.8490   31.9080 N.am      1 GLN        -0.3009
     26 N          27.7670  -16.1700   32.9260 N.am      1 ALA        -0.2640
     27 CA         28.0530  -14.7450   32.7510 C.3       1 ALA         0.1284
     28 C          29.1980  -14.3790   33.7090 C.2       1 ALA         0.2061
     29 O          28.9680  -13.8390   34.7940 O.2       1 ALA        -0.3942
     30 CB         26.7790  -13.8830   33.0070 C.3       1 ALA        -0.0244
     31 N          30.4410  -14.7180   33.3140 N.am      1 PRO        -0.2498
     32 CA         31.6670  -14.6030   34.1160 C.3       1 PRO         0.1338
     33 C          31.8890  -13.2210   34.7180 C.2       1 PRO         0.2042
     34 O          32.2060  -13.1200   35.9020 O.2       1 PRO        -0.3944
     35 CB         32.7690  -14.9290   33.1030 C.3       1 PRO        -0.0104
     36 CG         32.0960  -15.9220   32.1670 C.3       1 PRO        -0.0281
     37 CD         30.7110  -15.3260   32.0010 C.3       1 PRO         0.0369
     38 N          31.7210  -12.1750   33.9170 N.am      1 TRP        -0.2627
     39 CA         31.9930  -10.8200   34.3830 C.3       1 TRP         0.1352
     40 C          31.1080  -10.4820   35.5900 C.2       1 TRP         0.2052
     41 O          31.4560   -9.6360   36.4140 O.2       1 TRP        -0.3942
     42 CB         31.7710   -9.8100   33.2570 C.3       1 TRP         0.0042
     43 CG         30.3330   -9.6030   32.9450 C.2       1 TRP        -0.0418
     44 CD1        29.5090   -8.6510   33.4700 C.2       1 TRP         0.0167
     45 CD2        29.5330  -10.3730   32.0420 C.ar      1 TRP        -0.0214
     46 NE1        28.2450   -8.7810   32.9520 N.pl3     1 TRP        -0.2890
     47 CE2        28.2330   -9.8300   32.0710 C.ar      1 TRP         0.0603
     48 CE3        29.7900  -11.4690   31.2100 C.ar      1 TRP        -0.0747
     49 CZ2        27.1930  -10.3430   31.3020 C.ar      1 TRP        -0.0443
     50 CZ3        28.7520  -11.9810   30.4470 C.ar      1 TRP        -0.0792
     51 CH2        27.4690  -11.4160   30.5000 C.ar      1 TRP        -0.0768
     52 N          29.9690  -11.1570   35.7020 N.am      1 MET        -0.2636
     53 CA         29.1400  -11.0320   36.8990 C.3       1 MET         0.1317
     54 C          29.8250  -11.7300   38.0780 C.2       1 MET         0.2034
     55 O          29.1780  -12.1100   39.0570 O.2       1 MET        -0.3944
     56 CB         27.7280  -11.5820   36.6470 C.3       1 MET        -0.0034
     57 CG         26.9750  -10.8140   35.5490 C.3       1 MET        -0.0024
     58 SD         25.2630  -11.3220   35.2710 S.3       1 MET        -0.1639
     59 CE         24.4210  -10.5470   36.6500 C.3       1 MET        -0.0181
     60 N          31.1440  -11.8870   37.9650 N.am      1 GLU        -0.2694
     61 CA         31.9840  -12.4320   39.0230 C.3       1 GLU         0.0959
     62 C          33.4080  -11.9020   38.8550 C.2       1 GLU         0.0602
     63 O          33.7357  -11.2435   37.8320 O.co2     1 GLU        -0.5666
     64 CB         31.9930  -13.9610   38.9690 C.3       1 GLU        -0.0064
     65 CG         30.5980  -14.5930   39.0220 C.3       1 GLU         0.0038
     66 CD         30.5390  -15.9700   38.3910 C.2       1 GLU         0.0350
     67 OE1        31.5820  -16.4570   37.9060 O.co2     1 GLU        -0.5690
     68 OE2        29.4370  -16.5610   38.3720 O.co2     1 GLU        -0.5690
     69 O          34.2649  -12.1266   39.7510 O.co2     1 GLU        -0.5666
     70 H1         32.0035  -23.7974   34.7560 H         1 GLU         0.2015
     71 H2         32.0650  -22.4280   35.6673 H         1 GLU         0.2015
     72 H3         31.7797  -22.3277   34.0493 H         1 GLU         0.2015
     73 H4         29.7381  -23.4478   34.2406 H         1 GLU         0.1099
     74 H5         28.8912  -24.2277   36.2966 H         1 GLU         0.0363
     75 H6         30.1030  -23.3033   37.2472 H         1 GLU         0.0363
     76 H7         31.8853  -24.7497   36.4590 H         1 GLU         0.0434
     77 H8         30.7415  -25.6245   35.3852 H         1 GLU         0.0434
     78 H9         29.3391  -18.9108   36.5180 H         1 PRO         0.0802
     79 H10        31.3274  -17.8440   35.8176 H         1 PRO         0.0313
     80 H11        30.3901  -17.4498   34.3368 H         1 PRO         0.0313
     81 H12        32.5989  -18.7720   34.1306 H         1 PRO         0.0287
     82 H13        31.1510  -19.3145   33.2162 H         1 PRO         0.0287
     83 H14        31.8565  -21.2722   34.3298 H         1 PRO         0.0524
     84 H15        32.2467  -20.3763   35.8371 H         1 PRO         0.0524
     85 H16        29.4721  -19.2323   32.9262 H         1 GLN         0.1883
     86 H17        27.7923  -19.0801   31.3328 H         1 GLN         0.0801
     87 H18        25.4585  -18.4061   31.9042 H         1 GLN         0.0337
     88 H19        25.9426  -18.3350   33.6326 H         1 GLN         0.0337
     89 H20        24.7740  -20.4691   32.8375 H         1 GLN         0.0504
     90 H21        26.3147  -20.6711   33.7386 H         1 GLN         0.0504
     91 H22        27.9204  -22.3926   31.1816 H         1 GLN         0.1814
     92 H23        27.8822  -21.8683   32.8319 H         1 GLN         0.1814
     93 H24        27.5903  -16.5152   33.8478 H         1 ALA         0.1883
     94 H25        28.3845  -14.5694   31.7170 H         1 ALA         0.0797
     95 H26        27.0223  -12.8192   32.8689 H         1 ALA         0.0277
     96 H27        26.4254  -14.0477   34.0355 H         1 ALA         0.0277
     97 H28        25.9907  -14.1739   32.2972 H         1 ALA         0.0277
     98 H29        31.6548  -15.3419   34.9308 H         1 PRO         0.0802
     99 H30        33.6398  -15.3822   33.5992 H         1 PRO         0.0313
    100 H31        33.0852  -14.0264   32.5596 H         1 PRO         0.0313
    101 H32        32.0466  -16.9238   32.6185 H         1 PRO         0.0287
    102 H33        32.6225  -15.9798   31.2029 H         1 PRO         0.0287
    103 H34        30.7025  -14.5658   31.2061 H         1 PRO         0.0524
    104 H35        29.9718  -16.1070   31.7695 H         1 PRO         0.0524
    105 H36        31.4031  -12.3187   32.9798 H         1 TRP         0.1884
    106 H37        33.0458  -10.7647   34.6968 H         1 TRP         0.0815
    107 H38        32.2780  -10.1755   32.3518 H         1 TRP         0.0397
    108 H39        32.2076   -8.8463   33.5580 H         1 TRP         0.0397
    109 H40        29.8107   -7.8968   34.1954 H         1 TRP         0.0795
    110 H41        27.4371   -8.1869   33.1872 H         1 TRP         0.2216
    111 H42        30.7800  -11.9082   31.1633 H         1 TRP         0.0540
    112 H43        26.2006   -9.9083   31.3372 H         1 TRP         0.0541
    113 H44        28.9345  -12.8310   29.7995 H         1 TRP         0.0510
    114 H45        26.6783  -11.8395   29.8914 H         1 TRP         0.0530
    115 H46        29.6755  -11.7577   34.9583 H         1 MET         0.1883
    116 H47        29.0463   -9.9636   37.1433 H         1 MET         0.0800
    117 H48        27.1522  -11.5129   37.5817 H         1 MET         0.0320
    118 H49        27.8106  -12.6363   36.3444 H         1 MET         0.0320
    119 H50        27.5246  -10.9475   34.6055 H         1 MET         0.0378
    120 H51        26.9711   -9.7488   35.8235 H         1 MET         0.0378
    121 H52        23.3471  -10.7803   36.6018 H         1 MET         0.0340
    122 H53        24.5620   -9.4572   36.6002 H         1 MET         0.0340
    123 H54        24.8369  -10.9278   37.5945 H         1 MET         0.0340
    124 H55        31.5806  -11.6159   37.1072 H         1 GLU         0.1875
    125 H56        31.5892  -12.1105   39.9981 H         1 GLU         0.0727
    126 H57        32.5749  -14.3343   39.8246 H         1 GLU         0.0323
    127 H58        32.4784  -14.2715   38.0320 H         1 GLU         0.0323
    128 H59        29.8960  -13.9346   38.4894 H         1 GLU         0.0432
    129 H60        30.2932  -14.6784   40.0755 H         1 GLU         0.0432
@<TRIPOS>BOND
     1    1    2 1  
     2    2    3 1  
     3    2    5 1  
     4    3    4 2  
     5    3   10 am 
     6    5    6 1  
     7    6    7 1  
     8    7    8 ar 
     9    7    9 ar 
    10   10   11 1  
    11   10   16 1  
    12   11   12 1  
    13   11   14 1  
    14   12   13 2  
    15   12   17 am 
    16   14   15 1  
    17   15   16 1  
    18   17   18 1  
    19   18   19 1  
    20   18   21 1  
    21   19   20 2  
    22   19   26 am 
    23   21   22 1  
    24   22   23 1  
    25   23   24 2  
    26   23   25 am 
    27   26   27 1  
    28   27   28 1  
    29   27   30 1  
    30   28   29 2  
    31   28   31 am 
    32   31   32 1  
    33   31   37 1  
    34   32   33 1  
    35   32   35 1  
    36   33   34 2  
    37   33   38 am 
    38   35   36 1  
    39   36   37 1  
    40   38   39 1  
    41   39   40 1  
    42   39   42 1  
    43   40   41 2  
    44   40   52 am 
    45   42   43 1  
    46   43   44 2  
    47   43   45 1  
    48   44   46 1  
    49   45   47 ar 
    50   45   48 ar 
    51   46   47 1  
    52   47   49 ar 
    53   48   50 ar 
    54   49   51 ar 
    55   50   51 ar 
    56   52   53 1  
    57   53   54 1  
    58   53   56 1  
    59   54   55 2  
    60   54   60 am 
    61   56   57 1  
    62   57   58 1  
    63   58   59 1  
    64   60   61 1  
    65   61   62 1  
    66   61   64 1  
    67   62   63 ar 
    68   64   65 1  
    69   65   66 1  
    70   66   67 ar 
    71   66   68 ar 
    72   62   69 ar 
    73    1   70 1  
    74    1   71 1  
    75    1   72 1  
    76    2   73 1  
    77    5   74 1  
    78    5   75 1  
    79    6   76 1  
    80    6   77 1  
    81   11   78 1  
    82   14   79 1  
    83   14   80 1  
    84   15   81 1  
    85   15   82 1  
    86   16   83 1  
    87   16   84 1  
    88   17   85 1  
    89   18   86 1  
    90   21   87 1  
    91   21   88 1  
    92   22   89 1  
    93   22   90 1  
    94   25   91 1  
    95   25   92 1  
    96   26   93 1  
    97   27   94 1  
    98   30   95 1  
    99   30   96 1  
   100   30   97 1  
   101   32   98 1  
   102   35   99 1  
   103   35  100 1  
   104   36  101 1  
   105   36  102 1  
   106   37  103 1  
   107   37  104 1  
   108   38  105 1  
   109   39  106 1  
   110   42  107 1  
   111   42  108 1  
   112   44  109 1  
   113   46  110 1  
   114   48  111 1  
   115   49  112 1  
   116   50  113 1  
   117   51  114 1  
   118   52  115 1  
   119   53  116 1  
   120   56  117 1  
   121   56  118 1  
   122   57  119 1  
   123   57  120 1  
   124   59  121 1  
   125   59  122 1  
   126   59  123 1  
   127   60  124 1  
   128   61  125 1  
   129   64  126 1  
   130   64  127 1  
   131   65  128 1  
   132   65  129 1  
@<TRIPOS>SUBSTRUCTURE
     1 GLU         1

