### 
### Created by X-TOOL on Mon Sep 10 21:13:11 2018
### 

@<TRIPOS>MOLECULE
3uyt_ligand
   45    48     1     0     0
SMALL
GAST_HUCK


@<TRIPOS>ATOM
      1 C7         -6.0560   -6.8120   -9.9610 C.2       1 0CK         0.1151
      2 N2         -4.7910   -7.1240   -9.4640 N.pl3     1 0CK        -0.2320
      3 C8         -5.0410   -7.9290   -8.3800 C.2       1 0CK         0.1086
      4 N3         -6.3360   -8.2120   -8.0910 N.2       1 0CK        -0.3026
      5 C9         -7.0400   -7.5440   -9.0660 C.2       1 0CK         0.0462
      6 C10        -7.5410   -5.0780  -11.2610 C.ar      1 0CK        -0.0212
      7 C11        -7.7290   -4.2020  -12.3680 C.ar      1 0CK         0.0073
      8 N4         -6.7500   -4.0970  -13.3500 N.ar      1 0CK        -0.2627
      9 C12        -5.5830   -4.8570  -13.2390 C.ar      1 0CK         0.1794
     10 N5         -5.3460   -5.7240  -12.1900 N.ar      1 0CK        -0.2583
     11 C13        -6.3210   -5.8720  -11.1480 C.ar      1 0CK         0.0712
     12 N1         -4.6280   -4.7400  -14.1980 N.pl3     1 0CK        -0.3045
     13 C14        -2.3300   -6.5350   -8.9560 C.3       1 0CK        -0.0218
     14 C15        -3.4480   -6.8300   -9.9550 C.3       1 0CK         0.0708
     15 C16        -2.9370   -7.7460  -11.0690 C.3       1 0CK        -0.0218
     16 C17        -1.6330   -7.2740  -11.7200 C.3       1 0CK        -0.0502
     17 C18        -0.5360   -6.9390  -10.6840 C.3       1 0CK        -0.0529
     18 C19        -1.0580   -5.9990   -9.5960 C.3       1 0CK        -0.0502
     19 C1        -10.5810   -8.1440  -10.6860 C.ar      1 0CK        -0.0294
     20 C2        -11.4370   -7.9640   -9.5210 C.ar      1 0CK         0.1310
     21 C3        -10.8930   -7.6460   -8.1930 C.ar      1 0CK        -0.0294
     22 C4         -9.4400   -7.4950   -8.0200 C.ar      1 0CK        -0.0583
     23 C5         -8.5500   -7.6660   -9.1740 C.ar      1 0CK        -0.0208
     24 C6         -9.1400   -7.9900  -10.4910 C.ar      1 0CK        -0.0583
     25 F1        -12.7910   -8.0780   -9.6980 F         1 0CK        -0.1843
     26 H          -4.2276   -8.3267   -7.7731 H         1 0CK         0.1311
     27 H          -8.3118   -5.1561  -10.4943 H         1 0CK         0.0638
     28 H          -8.6425   -3.6124  -12.4457 H         1 0CK         0.0868
     29 H          -3.7676   -5.2835  -14.1299 H         1 0CK         0.1824
     30 H          -4.7714   -4.1086  -14.9862 H         1 0CK         0.1824
     31 H          -2.0757   -7.4752   -8.4667 H         1 0CK         0.0296
     32 H          -2.6981   -5.7683   -8.2742 H         1 0CK         0.0296
     33 H          -3.6825   -5.8527  -10.3769 H         1 0CK         0.0658
     34 H          -3.6989   -7.7611  -11.8483 H         1 0CK         0.0296
     35 H          -2.7389   -8.7193  -10.6201 H         1 0CK         0.0296
     36 H          -1.8497   -6.3663  -12.2833 H         1 0CK         0.0266
     37 H          -1.2622   -8.0821  -12.3505 H         1 0CK         0.0266
     38 H           0.2866   -6.4447  -11.2008 H         1 0CK         0.0265
     39 H          -0.2130   -7.8668  -10.2119 H         1 0CK         0.0265
     40 H          -0.2948   -5.9094   -8.8230 H         1 0CK         0.0266
     41 H          -1.2819   -5.0347  -10.0523 H         1 0CK         0.0266
     42 H         -10.9981   -8.3839  -11.6641 H         1 0CK         0.0601
     43 H         -11.5622   -7.5228   -7.3415 H         1 0CK         0.0601
     44 H          -9.0267   -7.2574   -7.0398 H         1 0CK         0.0595
     45 H          -8.4771   -8.1186  -11.3466 H         1 0CK         0.0595
@<TRIPOS>BOND
     1    1    2 1  
     2    5    1 2  
     3    1   11 1  
     4    3    2 1  
     5    2   14 1  
     6    4    3 2  
     7    5    4 1  
     8   23    5 1  
     9    6    7 ar 
    10   11    6 ar 
    11    7    8 ar 
    12    9    8 ar 
    13   10    9 ar 
    14    9   12 1  
    15   11   10 ar 
    16   14   13 1  
    17   13   18 1  
    18   14   15 1  
    19   15   16 1  
    20   16   17 1  
    21   18   17 1  
    22   20   19 ar 
    23   19   24 ar 
    24   21   20 ar 
    25   20   25 1  
    26   22   21 ar 
    27   22   23 ar 
    28   23   24 ar 
    29    3   26 1  
    30    6   27 1  
    31    7   28 1  
    32   12   29 1  
    33   12   30 1  
    34   13   31 1  
    35   13   32 1  
    36   14   33 1  
    37   15   34 1  
    38   15   35 1  
    39   16   36 1  
    40   16   37 1  
    41   17   38 1  
    42   17   39 1  
    43   18   40 1  
    44   18   41 1  
    45   19   42 1  
    46   21   43 1  
    47   22   44 1  
    48   24   45 1  
@<TRIPOS>SUBSTRUCTURE
     1 0CK         1

