### 
### Created by X-TOOL on Mon Sep 10 21:13:09 2018
### 

@<TRIPOS>MOLECULE
3uz5_ligand
   14    15     1     0     0
SMALL
GAST_HUCK


@<TRIPOS>ATOM
      1 CAK        21.1480    0.2970    7.1730 C.ar      1 0CU         0.1258
      2 NAG        20.2750   -0.6720    6.8550 N.pl3     1 0CU        -0.1737
      3 NAE        19.8650   -0.4370    5.6970 N.2       1 0CU        -0.0772
      4 NAF        20.3720    0.6020    5.1920 N.2       1 0CU        -0.1994
      5 CAJ        21.2000    1.1480    6.0710 C.ar      1 0CU         0.0773
      6 CAD        21.9950    2.2760    6.0660 C.ar      1 0CU        -0.0364
      7 CAH        22.7460    2.5020    7.2050 C.ar      1 0CU         0.0315
      8 CLA        23.7340    3.8940    7.2520 Cl        1 0CU        -0.0791
      9 CAC        22.7260    1.6610    8.3150 C.ar      1 0CU        -0.0415
     10 CAI        21.8920    0.5550    8.3170 C.ar      1 0CU         0.0703
     11 CLB        21.8180   -0.5640    9.6560 Cl        1 0CU        -0.0758
     12 H1         19.9949   -1.4621    7.4534 H         1 0CU         0.2587
     13 H2         22.0289    2.9479    5.2160 H         1 0CU         0.0605
     14 H3         23.3580    1.8703    9.1705 H         1 0CU         0.0592
@<TRIPOS>BOND
     1    1    2 1  
     2    1    5 ar 
     3    1   10 ar 
     4    2    3 1  
     5    3    4 2  
     6    4    5 1  
     7    5    6 ar 
     8    6    7 ar 
     9    7    8 1  
    10    7    9 ar 
    11    9   10 ar 
    12   10   11 1  
    13    2   12 1  
    14    6   13 1  
    15    9   14 1  
@<TRIPOS>SUBSTRUCTURE
     1 0CU         1

