### 
### Created by X-TOOL on Mon Sep 10 21:13:12 2018
### 

@<TRIPOS>MOLECULE
3uza_ligand
   36    38     1     0     0
SMALL
GAST_HUCK


@<TRIPOS>ATOM
      1 N2         50.3560   24.0150   31.1080 N.ar      1 T4G        -0.2476
      2 N1         49.2100   23.5740   31.7030 N.ar      1 T4G        -0.2332
      3 C6         47.9190   23.6790   31.1470 C.ar      1 T4G         0.1196
      4 C5         47.7660   24.2870   29.8490 C.ar      1 T4G         0.1184
      5 N4         48.9630   24.7270   29.2700 N.ar      1 T4G        -0.2152
      6 C3         50.1990   24.5950   29.8740 C.ar      1 T4G         0.1832
      7 N5         44.7950   21.9180   33.5160 N.ar      1 T4G        -0.2952
      8 C10        45.9570   21.2710   33.2720 C.ar      1 T4G         0.0220
      9 C11        46.9960   21.8210   32.5030 C.ar      1 T4G        -0.0240
     10 C7         46.8330   23.1120   31.9590 C.ar      1 T4G         0.0266
     11 C8         45.6210   23.7910   32.2040 C.ar      1 T4G        -0.0240
     12 C9         44.6390   23.1510   32.9890 C.ar      1 T4G         0.0220
     13 C17        44.0520   24.9480   27.6990 C.ar      1 T4G        -0.0534
     14 C18        44.3230   23.6880   28.2610 C.ar      1 T4G        -0.0519
     15 C19        45.5200   23.4530   28.9610 C.ar      1 T4G        -0.0396
     16 C14        46.4830   24.4790   29.1200 C.ar      1 T4G         0.0290
     17 C15        46.1940   25.7440   28.5460 C.ar      1 T4G        -0.0396
     18 C16        44.9950   25.9830   27.8440 C.ar      1 T4G        -0.0519
     19 N3         51.2870   25.0420   29.2410 N.pl3     1 T4G        -0.3005
     20 C13        43.3270   23.8340   33.2850 C.3       1 T4G        -0.0165
     21 C12        46.1210   19.8900   33.8680 C.3       1 T4G        -0.0165
     22 H          47.9136   21.2589   32.3295 H         1 T4G         0.0639
     23 H          45.4473   24.7869   31.7963 H         1 T4G         0.0639
     24 H          43.1222   25.1214   27.1572 H         1 T4G         0.0687
     25 H          43.5961   22.8830   28.1528 H         1 T4G         0.0641
     26 H          45.7090   22.4676   29.3870 H         1 T4G         0.0700
     27 H          46.9179   26.5521   28.6505 H         1 T4G         0.0700
     28 H          44.7989   26.9657   27.4151 H         1 T4G         0.0641
     29 H          51.2003   25.4753   28.3217 H         1 T4G         0.1862
     30 H          52.2046   24.9500   29.6769 H         1 T4G         0.1862
     31 H          43.5161   24.7660   33.8176 H         1 T4G         0.0418
     32 H          42.8106   24.0472   32.3491 H         1 T4G         0.0418
     33 H          42.7096   23.1806   33.9014 H         1 T4G         0.0418
     34 H          46.0458   19.9529   34.9536 H         1 T4G         0.0418
     35 H          45.3379   19.2353   33.4856 H         1 T4G         0.0418
     36 H          47.0970   19.4904   33.5927 H         1 T4G         0.0418
@<TRIPOS>BOND
     1    2    1 ar 
     2    6    1 ar 
     3    3    2 ar 
     4    4    3 ar 
     5    3   10 1  
     6    4    5 ar 
     7   16    4 1  
     8    5    6 ar 
     9    6   19 1  
    10    8    7 ar 
    11   12    7 ar 
    12    9    8 ar 
    13    8   21 1  
    14   10    9 ar 
    15   10   11 ar 
    16   11   12 ar 
    17   12   20 1  
    18   14   13 ar 
    19   13   18 ar 
    20   15   14 ar 
    21   15   16 ar 
    22   16   17 ar 
    23   17   18 ar 
    24    9   22 1  
    25   11   23 1  
    26   13   24 1  
    27   14   25 1  
    28   15   26 1  
    29   17   27 1  
    30   18   28 1  
    31   19   29 1  
    32   19   30 1  
    33   20   31 1  
    34   20   32 1  
    35   20   33 1  
    36   21   34 1  
    37   21   35 1  
    38   21   36 1  
@<TRIPOS>SUBSTRUCTURE
     1 T4G         1

