### 
### Created by X-TOOL on Mon Sep 10 21:13:12 2018
### 

@<TRIPOS>MOLECULE
3uzc_ligand
   32    34     1     0     0
SMALL
GAST_HUCK


@<TRIPOS>ATOM
      1 N2         23.6840    6.6660   32.0800 N.ar      1 T4E        -0.2571
      2 N1         23.1050    7.7810   32.5480 N.ar      1 T4E        -0.2515
      3 C6         23.1670    8.9370   31.8280 C.ar      1 T4E         0.1023
      4 C5         23.8520    8.9450   30.5710 C.ar      1 T4E         0.1144
      5 N4         24.4320    7.7990   30.1230 N.ar      1 T4E        -0.2155
      6 C3         24.3080    6.7380   30.9080 C.ar      1 T4E         0.1817
      7 C10        21.1140   12.2590   33.6870 C.ar      1 T4E         0.1106
      8 C11        20.4300   11.0610   33.4070 C.ar      1 T4E        -0.0239
      9 C12        21.1100    9.9870   32.8030 C.ar      1 T4E        -0.0508
     10 C7         22.4800   10.0830   32.4660 C.ar      1 T4E         0.0120
     11 C8         23.1550   11.2920   32.7500 C.ar      1 T4E        -0.0369
     12 C9         22.4840   12.3760   33.3560 C.ar      1 T4E         0.0762
     13 C16        24.3620   12.3440   27.9270 C.ar      1 T4E        -0.0534
     14 C17        23.1740   12.2040   28.6630 C.ar      1 T4E        -0.0518
     15 C18        23.0040   11.1020   29.5210 C.ar      1 T4E        -0.0396
     16 C13        24.0110   10.1160   29.6680 C.ar      1 T4E         0.0288
     17 C14        25.2000   10.2810   28.9140 C.ar      1 T4E        -0.0396
     18 C15        25.3800   11.3810   28.0530 C.ar      1 T4E        -0.0518
     19 N3         24.8830    5.5990   30.4620 N.pl3     1 T4E        -0.3006
     20 CL1        23.3520   13.8360   33.6830 Cl        1 T4E        -0.0764
     21 O1         20.4430   13.2930   34.2730 O.3       1 T4E        -0.3266
     22 H          19.3736   10.9651   33.6580 H         1 T4E         0.0566
     23 H          20.5705    9.0639   32.5910 H         1 T4E         0.0655
     24 H          24.2108   11.3888   32.4970 H         1 T4E         0.0659
     25 H          24.4949   13.1960   27.2603 H         1 T4E         0.0688
     26 H          22.3838   12.9490   28.5695 H         1 T4E         0.0641
     27 H          22.0766   11.0045   30.0854 H         1 T4E         0.0701
     28 H          25.9936    9.5391   29.0026 H         1 T4E         0.0701
     29 H          26.3050   11.4859   27.4861 H         1 T4E         0.0641
     30 H          25.3757    5.5922   29.5689 H         1 T4E         0.1862
     31 H          24.8242    4.7462   31.0185 H         1 T4E         0.1862
     32 H          20.8587   13.5088   35.1110 H         1 T4E         0.2519
@<TRIPOS>BOND
     1    2    1 ar 
     2    6    1 ar 
     3    3    2 ar 
     4    4    3 ar 
     5    3   10 1  
     6    4    5 ar 
     7   16    4 1  
     8    5    6 ar 
     9    6   19 1  
    10    8    7 ar 
    11   12    7 ar 
    12    7   21 1  
    13    9    8 ar 
    14   10    9 ar 
    15   10   11 ar 
    16   11   12 ar 
    17   12   20 1  
    18   14   13 ar 
    19   13   18 ar 
    20   15   14 ar 
    21   15   16 ar 
    22   16   17 ar 
    23   17   18 ar 
    24    8   22 1  
    25    9   23 1  
    26   11   24 1  
    27   13   25 1  
    28   14   26 1  
    29   15   27 1  
    30   17   28 1  
    31   18   29 1  
    32   19   30 1  
    33   19   31 1  
    34   21   32 1  
@<TRIPOS>SUBSTRUCTURE
     1 T4E         1

