### 
### Created by X-TOOL on Mon Sep 10 21:13:10 2018
### 

@<TRIPOS>MOLECULE
3uzj_ligand
   14    15     1     0     0
SMALL
GAST_HUCK


@<TRIPOS>ATOM
      1 NAF        -0.4430   34.5000  -17.6240 N.pl3     1 0CT        -0.1745
      2 CAH        -1.1920   35.3200  -16.8650 C.ar      1 0CT         0.1113
      3 CAC        -2.3750   35.9780  -17.0890 C.ar      1 0CT        -0.0317
      4 CAA        -2.9980   36.8290  -16.2170 C.ar      1 0CT        -0.0695
      5 CAB        -2.3180   37.0100  -15.0090 C.ar      1 0CT        -0.0707
      6 CAD        -1.0810   36.3290  -14.7060 C.ar      1 0CT        -0.0506
      7 CAI        -0.5180   35.4960  -15.6700 C.ar      1 0CT         0.0760
      8 NAG         0.5780   34.7510  -15.7960 N.2       1 0CT        -0.1995
      9 NAE         0.5810   34.2300  -16.9490 N.2       1 0CT        -0.0773
     10 H1         -0.6652   34.1609  -18.5708 H         1 0CT         0.2583
     11 H2         -2.8602   35.8083  -18.0434 H         1 0CT         0.0566
     12 H3         -3.9374   37.3202  -16.4433 H         1 0CT         0.0580
     13 H4         -2.7349   37.6869  -14.2721 H         1 0CT         0.0540
     14 H5         -0.5988   36.4638  -13.7446 H         1 0CT         0.0596
@<TRIPOS>BOND
     1    1    2 1  
     2    1    9 1  
     3    2    3 ar 
     4    2    7 ar 
     5    3    4 ar 
     6    4    5 ar 
     7    5    6 ar 
     8    6    7 ar 
     9    7    8 1  
    10    8    9 2  
    11    1   10 1  
    12    3   11 1  
    13    4   12 1  
    14    5   13 1  
    15    6   14 1  
@<TRIPOS>SUBSTRUCTURE
     1 0CT         1

