### 
### Created by X-TOOL on Mon Sep 10 21:13:11 2018
### 

@<TRIPOS>MOLECULE
3uzp_ligand
   45    48     1     0     0
SMALL
GAST_HUCK


@<TRIPOS>ATOM
      1 C7          4.2350    2.7510   18.7610 C.2       1 0CK         0.1151
      2 N2          3.6650    3.8490   19.3530 N.pl3     1 0CK        -0.2320
      3 C8          4.4660    4.1520   20.4120 C.2       1 0CK         0.1086
      4 N3          5.5410    3.3780   20.6080 N.2       1 0CK        -0.3026
      5 C9          5.4780    2.4730   19.5950 C.2       1 0CK         0.0462
      6 C10         3.8380    0.5620   17.3830 C.ar      1 0CK        -0.0212
      7 C11         3.2220   -0.1050   16.2870 C.ar      1 0CK         0.0073
      8 N4          2.4410    0.5960   15.4070 N.ar      1 0CK        -0.2627
      9 C12         2.2390    1.9590   15.5630 C.ar      1 0CK         0.1794
     10 N5          2.8200    2.6520   16.6030 N.ar      1 0CK        -0.2583
     11 C13         3.6460    1.9910   17.5690 C.ar      1 0CK         0.0712
     12 N1          1.3910    2.6110   14.6780 N.pl3     1 0CK        -0.3045
     13 C14         1.6820    5.1370   20.1410 C.3       1 0CK        -0.0218
     14 C15         2.4880    4.5850   18.9700 C.3       1 0CK         0.0708
     15 C16         2.8850    5.6790   17.9820 C.3       1 0CK        -0.0218
     16 C17         1.7040    6.5010   17.5040 C.3       1 0CK        -0.0502
     17 C18         0.8640    7.0540   18.6800 C.3       1 0CK        -0.0529
     18 C19         0.4980    5.9860   19.7310 C.3       1 0CK        -0.0502
     19 C1          8.1890    0.4310   17.6950 C.ar      1 0CK        -0.0294
     20 C2          8.6690   -0.4200   18.7430 C.ar      1 0CK         0.1310
     21 C3          8.1340   -0.3660   20.1180 C.ar      1 0CK        -0.0294
     22 C4          7.0790    0.5840   20.4270 C.ar      1 0CK        -0.0583
     23 C5          6.5790    1.4530   19.3820 C.ar      1 0CK        -0.0208
     24 C6          7.1410    1.3710   18.0190 C.ar      1 0CK        -0.0583
     25 F1          9.6400   -1.2630   18.3980 F         1 0CK        -0.1843
     26 H1          4.2416    4.9888   21.0718 H         1 0CK         0.1311
     27 H2          4.4516    0.0034   18.0805 H         1 0CK         0.0638
     28 H3          3.3712   -1.1697   16.1485 H         1 0CK         0.0868
     29 H4          0.9581    2.0907   13.9016 H         1 0CK         0.1824
     30 H5          1.1948    3.6150   14.7978 H         1 0CK         0.1824
     31 H6          2.3504    5.7528   20.7606 H         1 0CK         0.0296
     32 H7          1.3098    4.2889   20.7344 H         1 0CK         0.0296
     33 H8          1.8272    3.8836   18.4396 H         1 0CK         0.0658
     34 H9          3.3605    5.2077   17.1092 H         1 0CK         0.0296
     35 H10         3.6042    6.3510   18.4731 H         1 0CK         0.0296
     36 H11         1.0609    5.8662   16.8768 H         1 0CK         0.0266
     37 H12         2.0785    7.3461   16.9077 H         1 0CK         0.0266
     38 H13        -0.0671    7.4765   18.2743 H         1 0CK         0.0265
     39 H14         1.4410    7.8479   19.1769 H         1 0CK         0.0265
     40 H15         0.1027    6.4925   20.6238 H         1 0CK         0.0266
     41 H16        -0.2766    5.3287   19.3091 H         1 0CK         0.0266
     42 H17         8.5983    0.3715   16.6930 H         1 0CK         0.0601
     43 H18         8.5226   -1.0254   20.8857 H         1 0CK         0.0601
     44 H19         6.6704    0.6417   21.4294 H         1 0CK         0.0595
     45 H20         6.7598    2.0290   17.2465 H         1 0CK         0.0595
@<TRIPOS>BOND
     1    1    2 1  
     2    5    1 2  
     3    1   11 1  
     4    3    2 1  
     5    2   14 1  
     6    4    3 2  
     7    5    4 1  
     8   23    5 1  
     9    6    7 ar 
    10   11    6 ar 
    11    7    8 ar 
    12    9    8 ar 
    13   10    9 ar 
    14    9   12 1  
    15   11   10 ar 
    16   14   13 1  
    17   13   18 1  
    18   14   15 1  
    19   15   16 1  
    20   16   17 1  
    21   18   17 1  
    22   20   19 ar 
    23   19   24 ar 
    24   21   20 ar 
    25   20   25 1  
    26   22   21 ar 
    27   22   23 ar 
    28   23   24 ar 
    29    3   26 1  
    30    6   27 1  
    31    7   28 1  
    32   12   29 1  
    33   12   30 1  
    34   13   31 1  
    35   13   32 1  
    36   14   33 1  
    37   15   34 1  
    38   15   35 1  
    39   16   36 1  
    40   16   37 1  
    41   17   38 1  
    42   17   39 1  
    43   18   40 1  
    44   18   41 1  
    45   19   42 1  
    46   21   43 1  
    47   22   44 1  
    48   24   45 1  
@<TRIPOS>SUBSTRUCTURE
     1 0CK         1

