### 
### Created by X-TOOL on Mon Sep 10 21:13:10 2018
### 

@<TRIPOS>MOLECULE
3v01_ligand
   42    44     1     0     0
SMALL
GAST_HUCK


@<TRIPOS>ATOM
      1 C1         36.3800   32.1770  -12.8910 C.ar      1 3V0        -0.0020
      2 F1         32.7410   27.3960  -18.1450 F         1 3V0        -0.1909
      3 I1         36.5850   23.7900  -17.6960 I         1 3V0        -0.0612
      4 N1         36.8750   31.5010  -13.9350 N.ar      1 3V0        -0.3130
      5 O1         32.8520   31.0430  -13.1490 O.3       1 3V0        -0.2491
      6 C2         35.0390   32.0570  -12.5640 C.ar      1 3V0        -0.0042
      7 N2         30.2320   29.8790  -13.3730 N.am      1 3V0        -0.1630
      8 O2         30.8060   29.2540  -15.4270 O.2       1 3V0        -0.3973
      9 C3         36.1230   30.7070  -14.7220 C.ar      1 3V0         0.0081
     10 N3         33.5250   29.0010  -16.0330 N.pl3     1 3V0        -0.2797
     11 O3         28.9490   29.4740  -13.5820 O.3       1 3V0        -0.2551
     12 C4         34.7800   30.5670  -14.4360 C.ar      1 3V0         0.0587
     13 O4         26.9180   30.0690  -15.6720 O.3       1 3V0        -0.3871
     14 C5         34.2430   31.2440  -13.3460 C.ar      1 3V0         0.1416
     15 O5         25.5900   32.1070  -14.9150 O.3       1 3V0        -0.3924
     16 C6         32.5000   30.1870  -14.1460 C.2       1 3V0         0.2065
     17 C7         33.6850   29.8850  -14.9840 C.2       1 3V0         0.1066
     18 C8         31.1120   29.7240  -14.3440 C.2       1 3V0         0.2429
     19 C9         34.2220   27.8520  -16.3270 C.ar      1 3V0         0.0925
     20 C10        35.3510   27.4330  -15.6190 C.ar      1 3V0        -0.0390
     21 C11        36.0340   26.2920  -15.9800 C.ar      1 3V0        -0.0658
     22 C12        35.6090   25.5470  -17.0820 C.ar      1 3V0        -0.0054
     23 C13        34.5000   25.9410  -17.7900 C.ar      1 3V0        -0.0280
     24 C14        33.8150   27.0770  -17.4160 C.ar      1 3V0         0.1551
     25 C15        27.8900   30.4230  -13.4050 C.3       1 3V0         0.1071
     26 C16        26.6570   30.0690  -14.2410 C.3       1 3V0         0.1042
     27 C17        25.5890   31.1000  -13.8980 C.3       1 3V0         0.0724
     28 H          37.0308   32.8207  -12.2992 H         1 3V0         0.0741
     29 H          34.6226   32.5914  -11.7101 H         1 3V0         0.0656
     30 H          30.5076   30.2942  -12.4830 H         1 3V0         0.2200
     31 H          36.5672   30.1846  -15.5693 H         1 3V0         0.0802
     32 H          32.7785   29.2350  -16.6875 H         1 3V0         0.2046
     33 H          27.2124   30.9418  -15.9424 H         1 3V0         0.2100
     34 H          25.3965   31.7029  -15.7640 H         1 3V0         0.2095
     35 H          35.6973   28.0182  -14.7671 H         1 3V0         0.0520
     36 H          36.9040   25.9717  -15.4067 H         1 3V0         0.0578
     37 H          34.1623   25.3565  -18.6458 H         1 3V0         0.0596
     38 H          28.2507   31.4001  -13.7264 H         1 3V0         0.0616
     39 H          27.6015   30.4198  -12.3539 H         1 3V0         0.0616
     40 H          26.3397   29.0537  -14.0032 H         1 3V0         0.0640
     41 H          24.6110   30.6214  -13.8480 H         1 3V0         0.0584
     42 H          25.8022   31.5493  -12.9281 H         1 3V0         0.0584
@<TRIPOS>BOND
     1    4    1 ar 
     2    6    1 ar 
     3   24    2 1  
     4   22    3 1  
     5    9    4 ar 
     6    5   14 1  
     7   16    5 1  
     8   14    6 ar 
     9   11    7 1  
    10    7   18 am 
    11   18    8 2  
    12   12    9 ar 
    13   17   10 1  
    14   10   19 1  
    15   25   11 1  
    16   12   14 ar 
    17   17   12 1  
    18   26   13 1  
    19   27   15 1  
    20   16   17 2  
    21   18   16 1  
    22   19   20 ar 
    23   19   24 ar 
    24   20   21 ar 
    25   21   22 ar 
    26   23   22 ar 
    27   24   23 ar 
    28   26   25 1  
    29   26   27 1  
    30    1   28 1  
    31    6   29 1  
    32    7   30 1  
    33    9   31 1  
    34   10   32 1  
    35   13   33 1  
    36   15   34 1  
    37   20   35 1  
    38   21   36 1  
    39   23   37 1  
    40   25   38 1  
    41   25   39 1  
    42   26   40 1  
    43   27   41 1  
    44   27   42 1  
@<TRIPOS>SUBSTRUCTURE
     1 3V0         1

