### 
### Created by X-TOOL on Mon Sep 10 21:13:11 2018
### 

@<TRIPOS>MOLECULE
3v04_ligand
   39    41     1     0     0
SMALL
GAST_HUCK


@<TRIPOS>ATOM
      1 C1         32.4830  -30.4420  -28.3370 C.ar      1 V04         0.0739
      2 F1         32.7170  -27.6600  -24.6100 F         1 V04        -0.1905
      3 I1         36.5400  -23.9500  -24.9430 I         1 V04        -0.0607
      4 N1         36.1290  -32.1190  -29.2060 N.2       1 V04        -0.3351
      5 O1         30.8730  -29.4420  -26.9000 O.2       1 V04        -0.3918
      6 C2         32.5050  -31.3770  -29.3690 C.ar      1 V04        -0.0521
      7 N2         36.9640  -31.4880  -28.2650 N.pl3     1 V04        -0.2459
      8 O2         29.0010  -29.3250  -28.8070 O.3       1 V04        -0.2549
      9 C3         33.6900  -31.9910  -29.7330 C.ar      1 V04        -0.0653
     10 N3         33.5820  -29.1950  -26.6320 N.pl3     1 V04        -0.2685
     11 O3         26.0370  -30.6700  -27.2750 O.3       1 V04        -0.3926
     12 C4         33.6600  -30.1000  -27.6560 C.ar      1 V04         0.0941
     13 N4         30.2480  -29.8200  -29.0050 N.am      1 V04        -0.1625
     14 C5         34.8580  -30.7480  -28.0180 C.ar      1 V04         0.0603
     15 C6         34.8580  -31.6720  -29.0590 C.ar      1 V04        -0.0195
     16 C7         36.1990  -30.6420  -27.5450 C.2       1 V04         0.1061
     17 C8         34.2910  -28.0600  -26.3420 C.ar      1 V04         0.0967
     18 C9         35.4440  -27.6340  -27.0120 C.ar      1 V04        -0.0379
     19 C10        36.1010  -26.4680  -26.6250 C.ar      1 V04        -0.0652
     20 C11        35.6100  -25.7130  -25.5640 C.ar      1 V04        -0.0048
     21 C12        34.4720  -26.1250  -24.8960 C.ar      1 V04        -0.0273
     22 C13        33.8200  -27.2880  -25.2830 C.ar      1 V04         0.1562
     23 C14        31.1400  -29.8480  -28.0210 C.2       1 V04         0.2206
     24 C15        27.9030  -30.2400  -28.7340 C.3       1 V04         0.1022
     25 C16        27.4320  -30.3790  -27.2900 C.3       1 V04         0.0704
     26 H          31.5825  -31.6266  -29.8933 H         1 V04         0.0636
     27 H          37.9655  -31.6424  -28.1487 H         1 V04         0.2934
     28 H          33.7048  -32.7198  -30.5434 H         1 V04         0.0527
     29 H          32.8526  -29.4078  -25.9515 H         1 V04         0.2103
     30 H          25.5578  -29.9564  -27.7025 H         1 V04         0.2095
     31 H          30.5054  -30.1769  -29.9252 H         1 V04         0.2210
     32 H          36.5453  -29.9912  -26.7421 H         1 V04         0.1348
     33 H          35.8317  -28.2205  -27.8449 H         1 V04         0.0525
     34 H          36.9991  -26.1473  -27.1529 H         1 V04         0.0580
     35 H          34.0860  -25.5358  -24.0641 H         1 V04         0.0598
     36 H          28.2245  -31.2147  -29.1009 H         1 V04         0.0613
     37 H          27.0818  -29.8628  -29.3435 H         1 V04         0.0613
     38 H          27.9784  -31.1875  -26.8044 H         1 V04         0.0581
     39 H          27.6159  -29.4472  -26.7551 H         1 V04         0.0581
@<TRIPOS>BOND
     1    1    6 ar 
     2    1   12 ar 
     3   23    1 1  
     4   22    2 1  
     5   20    3 1  
     6    7    4 1  
     7   15    4 2  
     8   23    5 2  
     9    6    9 ar 
    10   16    7 1  
    11    8   13 1  
    12   24    8 1  
    13    9   15 ar 
    14   12   10 1  
    15   10   17 1  
    16   25   11 1  
    17   12   14 ar 
    18   13   23 am 
    19   14   15 ar 
    20   14   16 2  
    21   17   18 ar 
    22   17   22 ar 
    23   18   19 ar 
    24   19   20 ar 
    25   21   20 ar 
    26   22   21 ar 
    27   24   25 1  
    28    6   26 1  
    29    7   27 1  
    30    9   28 1  
    31   10   29 1  
    32   11   30 1  
    33   13   31 1  
    34   16   32 1  
    35   18   33 1  
    36   19   34 1  
    37   21   35 1  
    38   24   36 1  
    39   24   37 1  
    40   25   38 1  
    41   25   39 1  
@<TRIPOS>SUBSTRUCTURE
     1 V04         1

