### 
### Created by X-TOOL on Mon Sep 10 21:13:10 2018
### 

@<TRIPOS>MOLECULE
3v1r_ligand
   33    33     1     0     0
SMALL
GAST_HUCK


@<TRIPOS>ATOM
      1 C1         -5.3700  -36.7650    2.7820 C.3       1 JTH         0.1068
      2 O1         -5.1830  -36.3220    1.4790 O.3       1 JTH        -0.3867
      3 C2         -5.2210  -38.2830    2.8020 C.3       1 JTH         0.0837
      4 O2         -4.6070  -38.7020    1.6180 O.3       1 JTH        -0.3891
      5 C3         -6.5090  -39.0180    2.9730 C.3       1 JTH        -0.0213
      6 C4         -6.9370  -39.0630    4.4390 C.3       1 JTH        -0.0362
      7 C5         -7.7940  -37.8970    4.8080 C.3       1 JTH        -0.0475
      8 C6         -7.0410  -36.6140    4.7090 C.3       1 JTH        -0.0241
      9 C7         -6.6950  -36.2280    3.2850 C.3       1 JTH         0.0835
     10 O7         -6.6570  -34.8390    3.2010 O.3       1 JTH        -0.3891
     11 C41        -9.1620  -40.2250    4.9190 C.3       1 JTH        -0.0624
     12 C42        -7.6610  -40.3820    4.7330 C.3       1 JTH        -0.0438
     13 C43        -6.9970  -41.1990    5.8300 C.3       1 JTH        -0.0624
     14 H          -4.6188  -36.3883    3.4762 H         1 JTH         0.0645
     15 H          -5.2740  -35.3668    1.4508 H         1 JTH         0.2100
     16 H          -4.6114  -38.5205    3.6738 H         1 JTH         0.0620
     17 H          -5.1477  -38.4412    0.8688 H         1 JTH         0.2099
     18 H          -6.3725  -40.0407    2.6214 H         1 JTH         0.0294
     19 H          -7.2806  -38.4999    2.4036 H         1 JTH         0.0294
     20 H          -6.0368  -39.0041    5.0508 H         1 JTH         0.0304
     21 H          -8.1261  -38.0244    5.8383 H         1 JTH         0.0269
     22 H          -8.6379  -37.8566    4.1194 H         1 JTH         0.0269
     23 H          -6.1044  -36.7398    5.2523 H         1 JTH         0.0291
     24 H          -7.6759  -35.8279    5.1176 H         1 JTH         0.0291
     25 H          -7.4668  -36.6737    2.6574 H         1 JTH         0.0620
     26 H          -5.9906  -34.5012    3.8038 H         1 JTH         0.2099
     27 H          -9.6311  -41.2089    4.9238 H         1 JTH         0.0232
     28 H          -9.3589  -39.7225    5.8660 H         1 JTH         0.0232
     29 H          -9.5682  -39.6314    4.1000 H         1 JTH         0.0232
     30 H          -7.5522  -40.9755    3.8252 H         1 JTH         0.0298
     31 H          -7.1585  -40.7125    6.7919 H         1 JTH         0.0232
     32 H          -7.4307  -42.1988    5.8497 H         1 JTH         0.0232
     33 H          -5.9274  -41.2694    5.6320 H         1 JTH         0.0232
@<TRIPOS>BOND
     1    1    2 1  
     2    1    3 1  
     3    1    9 1  
     4    3    4 1  
     5    3    5 1  
     6    5    6 1  
     7    6    7 1  
     8    6   12 1  
     9    7    8 1  
    10    8    9 1  
    11    9   10 1  
    12   12   11 1  
    13   12   13 1  
    14    1   14 1  
    15    2   15 1  
    16    3   16 1  
    17    4   17 1  
    18    5   18 1  
    19    5   19 1  
    20    6   20 1  
    21    7   21 1  
    22    7   22 1  
    23    8   23 1  
    24    8   24 1  
    25    9   25 1  
    26   10   26 1  
    27   11   27 1  
    28   11   28 1  
    29   11   29 1  
    30   12   30 1  
    31   13   31 1  
    32   13   32 1  
    33   13   33 1  
@<TRIPOS>SUBSTRUCTURE
     1 JTH         1

