### 
### Created by X-TOOL on Mon Sep 10 21:13:15 2018
### 

@<TRIPOS>MOLECULE
3v2n_ligand
   43    42     1     0     0
SMALL
GAST_HUCK


@<TRIPOS>ATOM
      1 C1          0.1770   -0.2640   11.6550 C.2       1 MYR         0.0348
      2 O1         -0.9240   -0.8240   11.6440 O.co2     1 MYR        -0.5690
      3 O2          0.3730    0.7560   12.3390 O.co2     1 MYR        -0.5690
      4 C2          1.2890   -0.8500   10.8080 C.3       1 MYR         0.0002
      5 C3          1.4990   -0.1630    9.4720 C.3       1 MYR        -0.0414
      6 C4          2.6260   -0.7900    8.6700 C.3       1 MYR        -0.0516
      7 C5          3.3320    0.2050    7.7670 C.3       1 MYR        -0.0530
      8 C6          3.9360   -0.4270    6.5220 C.3       1 MYR        -0.0531
      9 C7          5.2280    0.2820    6.1100 C.3       1 MYR        -0.0531
     10 C8          5.8320   -0.3590    4.8520 C.3       1 MYR        -0.0531
     11 C9          6.7500    0.5980    4.1240 C.3       1 MYR        -0.0531
     12 C10         7.3770    0.0290    2.8760 C.3       1 MYR        -0.0531
     13 C11         8.8330    0.4270    2.7010 C.3       1 MYR        -0.0531
     14 C12         8.9980    1.2250    1.4060 C.3       1 MYR        -0.0533
     15 C13         9.5200    0.3230    0.2940 C.3       1 MYR        -0.0559
     16 C14        10.8760    0.7890   -0.2270 C.3       1 MYR        -0.0653
     17 H1          1.0525   -1.9070   10.6160 H         1 MYR         0.0430
     18 H2          2.2266   -0.7819   11.3791 H         1 MYR         0.0430
     19 H3          1.7401    0.8949    9.6527 H         1 MYR         0.0283
     20 H4          0.5690   -0.2328    8.8887 H         1 MYR         0.0283
     21 H5          2.2082   -1.5945    8.0470 H         1 MYR         0.0266
     22 H6          3.3620   -1.2127    9.3697 H         1 MYR         0.0266
     23 H7          4.1391    0.6840    8.3407 H         1 MYR         0.0265
     24 H8          2.6038    0.9670    7.4522 H         1 MYR         0.0265
     25 H9          3.2111   -0.3584    5.6975 H         1 MYR         0.0265
     26 H10         4.1577   -1.4845    6.7284 H         1 MYR         0.0265
     27 H11         5.9545    0.2124    6.9330 H         1 MYR         0.0265
     28 H12         5.0076    1.3398    5.9039 H         1 MYR         0.0265
     29 H13         5.0165   -0.6550    4.1758 H         1 MYR         0.0265
     30 H14         6.4062   -1.2499    5.1461 H         1 MYR         0.0265
     31 H15         7.5568    0.8916    4.8116 H         1 MYR         0.0265
     32 H16         6.1670    1.4871    3.8419 H         1 MYR         0.0265
     33 H17         6.8095    0.3884    2.0049 H         1 MYR         0.0265
     34 H18         7.3183   -1.0683    2.9246 H         1 MYR         0.0265
     35 H19         9.4563   -0.4781    2.6545 H         1 MYR         0.0265
     36 H20         9.1479    1.0457    3.5542 H         1 MYR         0.0265
     37 H21         9.7115    2.0453    1.5732 H         1 MYR         0.0265
     38 H22         8.0240    1.6410    1.1091 H         1 MYR         0.0265
     39 H23         8.7989    0.3287   -0.5366 H         1 MYR         0.0263
     40 H24         9.6216   -0.7004    0.6844 H         1 MYR         0.0263
     41 H25        11.2143    0.1122   -1.0254 H         1 MYR         0.0230
     42 H26        11.6071    0.7808    0.5948 H         1 MYR         0.0230
     43 H27        10.7843    1.8099   -0.6261 H         1 MYR         0.0230
@<TRIPOS>BOND
     1    1    2 ar 
     2    1    3 ar 
     3    1    4 1  
     4    4    5 1  
     5    5    6 1  
     6    6    7 1  
     7    7    8 1  
     8    8    9 1  
     9    9   10 1  
    10   10   11 1  
    11   11   12 1  
    12   12   13 1  
    13   13   14 1  
    14   14   15 1  
    15   15   16 1  
    16    4   17 1  
    17    4   18 1  
    18    5   19 1  
    19    5   20 1  
    20    6   21 1  
    21    6   22 1  
    22    7   23 1  
    23    7   24 1  
    24    8   25 1  
    25    8   26 1  
    26    9   27 1  
    27    9   28 1  
    28   10   29 1  
    29   10   30 1  
    30   11   31 1  
    31   11   32 1  
    32   12   33 1  
    33   12   34 1  
    34   13   35 1  
    35   13   36 1  
    36   14   37 1  
    37   14   38 1  
    38   15   39 1  
    39   15   40 1  
    40   16   41 1  
    41   16   42 1  
    42   16   43 1  
@<TRIPOS>SUBSTRUCTURE
     1 MYR         1

