### 
### Created by X-TOOL on Mon Sep 10 21:13:15 2018
### 

@<TRIPOS>MOLECULE
3v2p_ligand
   55    54     1     0     0
SMALL
GAST_HUCK


@<TRIPOS>ATOM
      1 C1          0.2880   -0.1900   11.3940 C.2       1 STE         0.0348
      2 O1         -0.4980   -1.1340   11.5470 O.co2     1 STE        -0.5690
      3 O2          0.0240    0.9440   11.8210 O.co2     1 STE        -0.5690
      4 C2          1.5920   -0.4530   10.6650 C.3       1 STE         0.0002
      5 C3          1.4520   -0.6400    9.1670 C.3       1 STE        -0.0414
      6 C4          2.7800   -0.9010    8.4810 C.3       1 STE        -0.0516
      7 C5          3.4780    0.3800    8.0480 C.3       1 STE        -0.0530
      8 C6          3.7600    0.4540    6.5570 C.3       1 STE        -0.0531
      9 C7          5.1320   -0.1450    6.2240 C.3       1 STE        -0.0531
     10 C8          5.4150   -0.0660    4.7200 C.3       1 STE        -0.0531
     11 C9          6.8680    0.2390    4.4270 C.3       1 STE        -0.0531
     12 C10         7.1930    0.3320    2.9540 C.3       1 STE        -0.0531
     13 C11         8.6780    0.3710    2.6640 C.3       1 STE        -0.0531
     14 C12         8.9130    1.1280    1.3650 C.3       1 STE        -0.0531
     15 C13         9.6380    0.2380    0.3740 C.3       1 STE        -0.0531
     16 C14        11.0580    0.7150    0.1480 C.3       1 STE        -0.0531
     17 C15        11.5800    0.2950   -1.2200 C.3       1 STE        -0.0531
     18 C16        12.4750    1.3870   -1.8020 C.3       1 STE        -0.0533
     19 C17        12.7610    1.2980   -3.3260 C.3       1 STE        -0.0559
     20 C18        14.0090    0.6510   -3.9020 C.3       1 STE        -0.0653
     21 H1          2.0411   -1.3655   11.0840 H         1 STE         0.0430
     22 H2          2.2625    0.4007   10.8428 H         1 STE         0.0430
     23 H3          1.0083    0.2709    8.7389 H         1 STE         0.0283
     24 H4          0.7858   -1.4951    8.9802 H         1 STE         0.0283
     25 H5          2.6005   -1.5222    7.5911 H         1 STE         0.0266
     26 H6          3.4367   -1.4411    9.1789 H         1 STE         0.0266
     27 H7          4.4351    0.4515    8.5854 H         1 STE         0.0265
     28 H8          2.8389    1.2323    8.3222 H         1 STE         0.0265
     29 H9          3.7412    1.5071    6.2397 H         1 STE         0.0265
     30 H10         2.9828   -0.1059    6.0162 H         1 STE         0.0265
     31 H11         5.1504   -1.1989    6.5386 H         1 STE         0.0265
     32 H12         5.9095    0.4132    6.7661 H         1 STE         0.0265
     33 H13         4.7914    0.7280    4.2834 H         1 STE         0.0265
     34 H14         5.1558   -1.0308    4.2596 H         1 STE         0.0265
     35 H15         7.4842   -0.5588    4.8672 H         1 STE         0.0265
     36 H16         7.1213    1.2002    4.8981 H         1 STE         0.0265
     37 H17         6.7361    1.2492    2.5540 H         1 STE         0.0265
     38 H18         6.7622   -0.5437    2.4465 H         1 STE         0.0265
     39 H19         9.0612   -0.6555    2.5664 H         1 STE         0.0265
     40 H20         9.2006    0.8808    3.4868 H         1 STE         0.0265
     41 H21         9.5230    2.0206    1.5680 H         1 STE         0.0265
     42 H22         7.9453    1.4339    0.9407 H         1 STE         0.0265
     43 H23         9.0976    0.2527   -0.5840 H         1 STE         0.0265
     44 H24         9.6625   -0.7897    0.7654 H         1 STE         0.0265
     45 H25        11.7070    0.2848    0.9250 H         1 STE         0.0265
     46 H26        11.0811    1.8126    0.2172 H         1 STE         0.0265
     47 H27        10.7296    0.1237   -1.8963 H         1 STE         0.0265
     48 H28        12.1602   -0.6339   -1.1178 H         1 STE         0.0265
     49 H29        13.4403    1.3456   -1.2763 H         1 STE         0.0265
     50 H30        11.9924    2.3561   -1.6070 H         1 STE         0.0265
     51 H31        12.7607    2.3345   -3.6944 H         1 STE         0.0263
     52 H32        11.9102    0.7537   -3.7617 H         1 STE         0.0263
     53 H33        13.9807    0.7130   -4.9999 H         1 STE         0.0230
     54 H34        14.0497   -0.4046   -3.5953 H         1 STE         0.0230
     55 H35        14.9002    1.1761   -3.5280 H         1 STE         0.0230
@<TRIPOS>BOND
     1    1    2 ar 
     2    1    3 ar 
     3    1    4 1  
     4    4    5 1  
     5    5    6 1  
     6    6    7 1  
     7    7    8 1  
     8    8    9 1  
     9    9   10 1  
    10   10   11 1  
    11   11   12 1  
    12   12   13 1  
    13   13   14 1  
    14   14   15 1  
    15   15   16 1  
    16   16   17 1  
    17   17   18 1  
    18   18   19 1  
    19   19   20 1  
    20    4   21 1  
    21    4   22 1  
    22    5   23 1  
    23    5   24 1  
    24    6   25 1  
    25    6   26 1  
    26    7   27 1  
    27    7   28 1  
    28    8   29 1  
    29    8   30 1  
    30    9   31 1  
    31    9   32 1  
    32   10   33 1  
    33   10   34 1  
    34   11   35 1  
    35   11   36 1  
    36   12   37 1  
    37   12   38 1  
    38   13   39 1  
    39   13   40 1  
    40   14   41 1  
    41   14   42 1  
    42   15   43 1  
    43   15   44 1  
    44   16   45 1  
    45   16   46 1  
    46   17   47 1  
    47   17   48 1  
    48   18   49 1  
    49   18   50 1  
    50   19   51 1  
    51   19   52 1  
    52   20   53 1  
    53   20   54 1  
    54   20   55 1  
@<TRIPOS>SUBSTRUCTURE
     1 STE         1

