### 
### Created by X-TOOL on Mon Sep 10 21:13:15 2018
### 

@<TRIPOS>MOLECULE
3v2q_ligand
   49    48     1     0     0
SMALL
GAST_HUCK


@<TRIPOS>ATOM
      1 C1          0.3710   -0.4450   11.3500 C.2       1 PLM         0.0348
      2 O1         -0.4450   -1.2760   10.9130 O.co2     1 PLM        -0.5690
      3 O2          0.0890    0.2680   12.3100 O.co2     1 PLM        -0.5690
      4 C2          1.7320   -0.3200   10.6840 C.3       1 PLM         0.0002
      5 C3          1.7250   -0.4120    9.1670 C.3       1 PLM        -0.0414
      6 C4          3.0830   -0.8010    8.5930 C.3       1 PLM        -0.0516
      7 C5          3.7240    0.3080    7.7540 C.3       1 PLM        -0.0530
      8 C6          4.1440   -0.1490    6.3620 C.3       1 PLM        -0.0531
      9 C7          5.4870    0.4710    5.9410 C.3       1 PLM        -0.0531
     10 C8          5.8960    0.0050    4.5310 C.3       1 PLM        -0.0531
     11 C9          7.2810    0.4880    4.1390 C.3       1 PLM        -0.0531
     12 CA          7.7280    0.0590    2.7540 C.3       1 PLM        -0.0531
     13 CB          8.9860    0.7660    2.2690 C.3       1 PLM        -0.0531
     14 CC          9.1750    0.5270    0.7660 C.3       1 PLM        -0.0531
     15 CD         10.6410    0.2370    0.4620 C.3       1 PLM        -0.0531
     16 CE         11.1530    1.0260   -0.7480 C.3       1 PLM        -0.0533
     17 CF         12.3060    0.2970   -1.4550 C.3       1 PLM        -0.0559
     18 CG         12.8460    1.1130   -2.6340 C.3       1 PLM        -0.0653
     19 H1          2.3743   -1.1253   11.0700 H         1 PLM         0.0430
     20 H2          2.1584    0.6548   10.9631 H         1 PLM         0.0430
     21 H3          1.4374    0.5672    8.7567 H         1 PLM         0.0283
     22 H4          0.9857   -1.1680    8.8640 H         1 PLM         0.0283
     23 H5          2.9523   -1.6890    7.9571 H         1 PLM         0.0266
     24 H6          3.7585   -1.0432    9.4267 H         1 PLM         0.0266
     25 H7          4.6155    0.6745    8.2839 H         1 PLM         0.0265
     26 H8          2.9982    1.1276    7.6472 H         1 PLM         0.0265
     27 H9          3.3707    0.1514    5.6397 H         1 PLM         0.0265
     28 H10         4.2412   -1.2447    6.3607 H         1 PLM         0.0265
     29 H11         6.2634    0.1675    6.6587 H         1 PLM         0.0265
     30 H12         5.3932    1.5670    5.9438 H         1 PLM         0.0265
     31 H13         5.1676    0.3954    3.8051 H         1 PLM         0.0265
     32 H14         5.8855   -1.0947    4.5058 H         1 PLM         0.0265
     33 H15         8.0021    0.0939    4.8702 H         1 PLM         0.0265
     34 H16         7.2848    1.5874    4.1761 H         1 PLM         0.0265
     35 H17         6.9146    0.2729    2.0451 H         1 PLM         0.0265
     36 H18         7.9234   -1.0233    2.7722 H         1 PLM         0.0265
     37 H19         9.8576    0.3729    2.8128 H         1 PLM         0.0265
     38 H20         8.8927    1.8457    2.4573 H         1 PLM         0.0265
     39 H21         8.8591    1.4235    0.2124 H         1 PLM         0.0265
     40 H22         8.5620   -0.3315    0.4541 H         1 PLM         0.0265
     41 H23        10.7534   -0.8377    0.2563 H         1 PLM         0.0265
     42 H24        11.2444    0.5072    1.3411 H         1 PLM         0.0265
     43 H25        11.5086    2.0097   -0.4077 H         1 PLM         0.0265
     44 H26        10.3264    1.1615   -1.4610 H         1 PLM         0.0265
     45 H27        11.9416   -0.6717   -1.8277 H         1 PLM         0.0263
     46 H28        13.1193    0.1299   -0.7335 H         1 PLM         0.0263
     47 H29        13.6678    0.5624   -3.1152 H         1 PLM         0.0230
     48 H30        13.2179    2.0820   -2.2696 H         1 PLM         0.0230
     49 H31        12.0401    1.2804   -3.3638 H         1 PLM         0.0230
@<TRIPOS>BOND
     1    1    2 ar 
     2    1    3 ar 
     3    1    4 1  
     4    4    5 1  
     5    5    6 1  
     6    6    7 1  
     7    7    8 1  
     8    8    9 1  
     9    9   10 1  
    10   10   11 1  
    11   11   12 1  
    12   12   13 1  
    13   13   14 1  
    14   14   15 1  
    15   15   16 1  
    16   16   17 1  
    17   17   18 1  
    18    4   19 1  
    19    4   20 1  
    20    5   21 1  
    21    5   22 1  
    22    6   23 1  
    23    6   24 1  
    24    7   25 1  
    25    7   26 1  
    26    8   27 1  
    27    8   28 1  
    28    9   29 1  
    29    9   30 1  
    30   10   31 1  
    31   10   32 1  
    32   11   33 1  
    33   11   34 1  
    34   12   35 1  
    35   12   36 1  
    36   13   37 1  
    37   13   38 1  
    38   14   39 1  
    39   14   40 1  
    40   15   41 1  
    41   15   42 1  
    42   16   43 1  
    43   16   44 1  
    44   17   45 1  
    45   17   46 1  
    46   18   47 1  
    47   18   48 1  
    48   18   49 1  
@<TRIPOS>SUBSTRUCTURE
     1 PLM         1

