### 
### Created by X-TOOL on Mon Sep 10 21:13:14 2018
### 

@<TRIPOS>MOLECULE
3v3m_ligand
   63    65     1     0     0
SMALL
GAST_HUCK


@<TRIPOS>ATOM
      1 O1         21.8260  -28.7010    0.2550 O.2       1 0EN        -0.3683
      2 C1         22.6250  -28.7910   -0.6720 C.2       1 0EN         0.2799
      3 C4         23.1410  -30.1820   -0.9540 C.2       1 0EN         0.1951
      4 C5         24.1440  -30.7260   -1.7450 C.2       1 0EN        -0.0425
      5 C6         24.1090  -32.0950   -1.5550 C.2       1 0EN        -0.0554
      6 C7         23.0990  -32.3750   -0.6530 C.2       1 0EN         0.0868
      7 O3         22.5020  -31.1870   -0.2740 O.3       1 0EN        -0.2494
      8 N1         23.0070  -27.7030   -1.3980 N.am      1 0EN        -0.1586
      9 C8         23.9600  -27.8610   -2.4390 C.ar      1 0EN         0.1170
     10 C9         23.5670  -28.2490   -3.7250 C.ar      1 0EN        -0.0041
     11 C10        24.5200  -28.4050   -4.7340 C.ar      1 0EN        -0.0516
     12 C11        25.8800  -28.1720   -4.4850 C.ar      1 0EN        -0.0739
     13 C14        26.9060  -28.3430   -5.5980 C.3       1 0EN        -0.0678
     14 C15        27.8040  -27.1130   -5.6660 C.3       1 0EN        -0.0969
     15 C16        26.2250  -28.5120   -6.9550 C.3       1 0EN        -0.0969
     16 C17        27.7660  -29.5840   -5.3440 C.3       1 0EN        -0.0969
     17 C12        26.2700  -27.7800   -3.1940 C.ar      1 0EN        -0.0516
     18 C13        25.3220  -27.6300   -2.1780 C.ar      1 0EN        -0.0041
     19 C2         22.5400  -26.3240   -1.0950 C.3       1 0EN         0.2044
     20 C3         23.1050  -25.3000   -2.0580 C.2       1 0EN         0.2243
     21 N2         24.0530  -24.5110   -1.5220 N.am      1 0EN        -0.2773
     22 C23        24.8250  -23.4290   -2.1480 C.3       1 0EN         0.0449
     23 C24        24.7860  -23.4420   -3.6720 C.3       1 0EN        -0.0396
     24 C25        26.2950  -23.5120   -1.7450 C.3       1 0EN        -0.0396
     25 C26        24.2860  -22.1040   -1.6220 C.3       1 0EN        -0.0396
     26 O2         22.7010  -25.2600   -3.2250 O.2       1 0EN        -0.3903
     27 C18        21.0680  -26.0740   -0.9730 C.ar      1 0EN         0.0378
     28 C19        20.5990  -25.3210    0.1060 C.ar      1 0EN        -0.0350
     29 C20        19.2270  -25.0520    0.2290 C.ar      1 0EN        -0.0399
     30 C21        18.3800  -25.5530   -0.7530 C.ar      1 0EN         0.0045
     31 N3         18.8480  -26.2460   -1.7870 N.ar      1 0EN        -0.3038
     32 C22        20.1560  -26.5290   -1.9260 C.ar      1 0EN         0.0179
     33 H1         24.8280  -30.1786   -2.3919 H         1 0EN         0.0436
     34 H2         24.7620  -32.8245   -2.0318 H         1 0EN         0.0365
     35 H3         22.8201  -33.3667   -0.2998 H         1 0EN         0.1041
     36 H4         22.5196  -28.4290   -3.9386 H         1 0EN         0.0629
     37 H5         24.2034  -28.7108   -5.7246 H         1 0EN         0.0800
     38 H6         28.5424  -27.2422   -6.4710 H         1 0EN         0.0096
     39 H7         28.3263  -26.9868   -4.7062 H         1 0EN         0.0096
     40 H8         27.1913  -26.2225   -5.8699 H         1 0EN         0.0096
     41 H9         25.5704  -29.3957   -6.9292 H         1 0EN         0.0096
     42 H10        26.9893  -28.6446   -7.7349 H         1 0EN         0.0096
     43 H11        25.6248  -27.6176   -7.1780 H         1 0EN         0.0096
     44 H12        28.2692  -29.4884   -4.3706 H         1 0EN         0.0096
     45 H13        28.5204  -29.6764   -6.1392 H         1 0EN         0.0096
     46 H14        27.1263  -30.4788   -5.3397 H         1 0EN         0.0096
     47 H15        27.3166  -27.5919   -2.9835 H         1 0EN         0.0800
     48 H16        25.6383  -27.3342   -1.1843 H         1 0EN         0.0629
     49 H17        22.9614  -26.0973   -0.1045 H         1 0EN         0.1081
     50 H18        24.2624  -24.6857   -0.5599 H         1 0EN         0.1859
     51 H19        25.3848  -22.6054   -4.0612 H         1 0EN         0.0254
     52 H20        23.7454  -23.3380   -4.0131 H         1 0EN         0.0254
     53 H21        25.1997  -24.3920   -4.0413 H         1 0EN         0.0254
     54 H22        26.8532  -22.6941   -2.2240 H         1 0EN         0.0254
     55 H23        26.7100  -24.4779   -2.0687 H         1 0EN         0.0254
     56 H24        26.3811  -23.4236   -0.6520 H         1 0EN         0.0254
     57 H25        24.8475  -21.2739   -2.0754 H         1 0EN         0.0254
     58 H26        24.4003  -22.0698   -0.5285 H         1 0EN         0.0254
     59 H27        23.2213  -22.0119   -1.8825 H         1 0EN         0.0254
     60 H28        21.2942  -24.9447    0.8478 H         1 0EN         0.0683
     61 H29        18.8412  -24.4737    1.0608 H         1 0EN         0.0694
     62 H30        17.3137  -25.3747   -0.6740 H         1 0EN         0.0769
     63 H31        20.5000  -27.1083   -2.7752 H         1 0EN         0.0770
@<TRIPOS>BOND
     1    1    2 2  
     2    2    3 1  
     3    2    8 am 
     4    3    4 2  
     5    3    7 1  
     6    4    5 1  
     7    5    6 2  
     8    6    7 1  
     9    8    9 1  
    10    8   19 1  
    11    9   10 ar 
    12    9   18 ar 
    13   10   11 ar 
    14   11   12 ar 
    15   12   13 1  
    16   12   17 ar 
    17   13   14 1  
    18   13   15 1  
    19   13   16 1  
    20   17   18 ar 
    21   19   20 1  
    22   19   27 1  
    23   20   21 am 
    24   20   26 2  
    25   21   22 1  
    26   22   23 1  
    27   22   24 1  
    28   22   25 1  
    29   27   28 ar 
    30   27   32 ar 
    31   28   29 ar 
    32   29   30 ar 
    33   30   31 ar 
    34   31   32 ar 
    35    4   33 1  
    36    5   34 1  
    37    6   35 1  
    38   10   36 1  
    39   11   37 1  
    40   14   38 1  
    41   14   39 1  
    42   14   40 1  
    43   15   41 1  
    44   15   42 1  
    45   15   43 1  
    46   16   44 1  
    47   16   45 1  
    48   16   46 1  
    49   17   47 1  
    50   18   48 1  
    51   19   49 1  
    52   21   50 1  
    53   23   51 1  
    54   23   52 1  
    55   23   53 1  
    56   24   54 1  
    57   24   55 1  
    58   24   56 1  
    59   25   57 1  
    60   25   58 1  
    61   25   59 1  
    62   28   60 1  
    63   29   61 1  
    64   30   62 1  
    65   32   63 1  
@<TRIPOS>SUBSTRUCTURE
     1 0EN         1

