### 
### Created by X-TOOL on Mon Sep 10 21:13:11 2018
### 

@<TRIPOS>MOLECULE
3v3q_ligand
   59    59     1     0     0
SMALL
GAST_HUCK


@<TRIPOS>ATOM
      1 C1        -11.1270   24.2780    5.5580 C.ar      1 TMY         0.0075
      2 C2        -11.0360   25.4050    4.7230 C.ar      1 TMY         0.1221
      3 C3        -11.1890   26.7030    5.2970 C.ar      1 TMY         0.1478
      4 C4        -11.4170   26.8550    6.6590 C.ar      1 TMY         0.1110
      5 C5        -11.5010   25.7630    7.4940 C.ar      1 TMY        -0.0391
      6 C6        -11.3660   24.4770    7.0100 C.ar      1 TMY         0.0090
      7 C13       -11.0060   22.8700    5.1430 C.3       1 TMY         0.0767
      8 C14       -12.0770   22.0550    5.2260 C.2       1 TMY         0.2428
      9 O15       -13.2480   22.5660    5.6220 O.2       1 TMY        -0.3679
     10 O16       -11.9920   20.6350    4.8820 O.3       1 TMY        -0.2759
     11 C17       -11.3350   19.7210    5.7700 C.3       1 TMY         0.0740
     12 C18       -11.7940   19.7960    7.2200 C.3       1 TMY        -0.0371
     13 C19       -11.5010   23.3560    8.0100 C.2       1 TMY         0.1156
     14 C20       -12.8570   23.1060    8.6350 C.3       1 TMY         0.0191
     15 C21       -13.1500   21.7060    9.1860 C.3       1 TMY        -0.0380
     16 C22       -14.6460   21.4270    9.0110 C.3       1 TMY        -0.0511
     17 C23       -15.5380   22.4770    9.6920 C.3       1 TMY        -0.0529
     18 C24       -16.4590   23.2130    8.7090 C.3       1 TMY        -0.0533
     19 C25       -17.2470   24.3370    9.3790 C.3       1 TMY        -0.0559
     20 C26       -17.6020   25.4100    8.3720 C.3       1 TMY        -0.0653
     21 O27       -10.5290   22.7060    8.3290 O.2       1 TMY        -0.3880
     22 O28       -10.8040   25.2860    3.3790 O.3       1 TMY        -0.3303
     23 O29       -11.0790   27.8450    4.5540 O.3       1 TMY        -0.3271
     24 O30       -11.5640   28.0730    7.2190 O.3       1 TMY        -0.3307
     25 C31       -11.6690   24.4320    2.6230 C.3       1 TMY         0.0549
     26 C32        -9.8830   28.5460    4.7450 C.3       1 TMY         0.0554
     27 C33       -11.0960   28.3040    8.5530 C.3       1 TMY         0.0552
     28 H1        -11.6767   25.9163    8.5526 H         1 TMY         0.0458
     29 H2        -10.2152   22.4216    5.7623 H         1 TMY         0.0645
     30 H3        -10.6890   22.8739    4.0897 H         1 TMY         0.0645
     31 H4        -10.2559   19.9326    5.7416 H         1 TMY         0.0610
     32 H5        -11.5180   18.6993    5.4059 H         1 TMY         0.0610
     33 H6        -11.2360   19.0618    7.8196 H         1 TMY         0.0255
     34 H7        -12.8698   19.5735    7.2761 H         1 TMY         0.0255
     35 H8        -11.6077   20.8068    7.6118 H         1 TMY         0.0255
     36 H9        -13.6152   23.3203    7.8674 H         1 TMY         0.0481
     37 H10       -12.9684   23.8151    9.4685 H         1 TMY         0.0481
     38 H11       -12.8853   21.6626   10.2528 H         1 TMY         0.0289
     39 H12       -12.5643   20.9576    8.6321 H         1 TMY         0.0289
     40 H13       -14.8716   20.4416    9.4446 H         1 TMY         0.0267
     41 H14       -14.8768   21.4159    7.9355 H         1 TMY         0.0267
     42 H15       -14.8922   23.2168   10.1875 H         1 TMY         0.0265
     43 H16       -16.1613   21.9719   10.4445 H         1 TMY         0.0265
     44 H17       -17.1693   22.4900    8.2815 H         1 TMY         0.0265
     45 H18       -15.8449   23.6433    7.9043 H         1 TMY         0.0265
     46 H19       -16.6361   24.7799   10.1794 H         1 TMY         0.0263
     47 H20       -18.1715   23.9243    9.8090 H         1 TMY         0.0263
     48 H21       -18.1682   26.2094    8.8723 H         1 TMY         0.0230
     49 H22       -18.2156   24.9724    7.5708 H         1 TMY         0.0230
     50 H23       -16.6802   25.8280    7.9412 H         1 TMY         0.0230
     51 H24       -11.3599   24.4389    1.5674 H         1 TMY         0.0569
     52 H25       -12.7044   24.7943    2.7042 H         1 TMY         0.0569
     53 H26       -11.6073   23.4066    3.0164 H         1 TMY         0.0569
     54 H27        -9.8801   29.4455    4.1118 H         1 TMY         0.0570
     55 H28        -9.0334   27.9028    4.4722 H         1 TMY         0.0570
     56 H29        -9.7954   28.8408    5.8011 H         1 TMY         0.0570
     57 H30       -11.3004   29.3466    8.8379 H         1 TMY         0.0570
     58 H31       -10.0130   28.1169    8.5992 H         1 TMY         0.0570
     59 H32       -11.6152   27.6260    9.2463 H         1 TMY         0.0570
@<TRIPOS>BOND
     1    1    2 ar 
     2    1    6 ar 
     3    1    7 1  
     4    2    3 ar 
     5    2   22 1  
     6    3    4 ar 
     7    3   23 1  
     8    4    5 ar 
     9    4   24 1  
    10    5    6 ar 
    11    6   13 1  
    12    7    8 1  
    13    8    9 2  
    14    8   10 1  
    15   10   11 1  
    16   11   12 1  
    17   13   14 1  
    18   13   21 2  
    19   14   15 1  
    20   15   16 1  
    21   16   17 1  
    22   17   18 1  
    23   18   19 1  
    24   19   20 1  
    25   22   25 1  
    26   23   26 1  
    27   24   27 1  
    28    5   28 1  
    29    7   29 1  
    30    7   30 1  
    31   11   31 1  
    32   11   32 1  
    33   12   33 1  
    34   12   34 1  
    35   12   35 1  
    36   14   36 1  
    37   14   37 1  
    38   15   38 1  
    39   15   39 1  
    40   16   40 1  
    41   16   41 1  
    42   17   42 1  
    43   17   43 1  
    44   18   44 1  
    45   18   45 1  
    46   19   46 1  
    47   19   47 1  
    48   20   48 1  
    49   20   49 1  
    50   20   50 1  
    51   25   51 1  
    52   25   52 1  
    53   25   53 1  
    54   26   54 1  
    55   26   55 1  
    56   26   56 1  
    57   27   57 1  
    58   27   58 1  
    59   27   59 1  
@<TRIPOS>SUBSTRUCTURE
     1 TMY         1

