### 
### Created by X-TOOL on Mon Sep 10 21:13:11 2018
### 

@<TRIPOS>MOLECULE
3v3v_ligand
   33    35     1     0     0
SMALL
GAST_HUCK


@<TRIPOS>ATOM
      1 O20        33.9820   45.1740    5.6980 O.2       1 MYU        -0.4158
      2 C11        33.0460   44.7100    5.0410 C.2       1 MYU         0.1424
      3 C12        31.9470   45.5230    4.7740 C.2       1 MYU         0.1587
      4 O19        31.9890   46.7910    5.2910 O.3       1 MYU        -0.3405
      5 C10        33.0380   43.3880    4.5380 C.ar      1 MYU         0.0737
      6 C13        34.0740   42.4480    4.7650 C.ar      1 MYU         0.1212
      7 O21        35.1760   42.8070    5.5020 O.3       1 MYU        -0.3374
      8 C9         31.9330   42.9350    3.7830 C.ar      1 MYU         0.1107
      9 C16        31.8680   41.6280    3.2680 C.ar      1 MYU        -0.0119
     10 C15        32.9020   40.7230    3.4930 C.ar      1 MYU         0.1064
     11 O22        32.8950   39.4420    3.0180 O.3       1 MYU        -0.3388
     12 C14        34.0060   41.1360    4.2420 C.ar      1 MYU         0.1394
     13 O23        35.0300   40.2390    4.4610 O.3       1 MYU        -0.3476
     14 O8         30.8800   43.7950    3.5400 O.3       1 MYU        -0.2653
     15 C7         30.8460   45.0970    3.9930 C.2       1 MYU         0.1505
     16 C6         29.6290   45.7820    3.7750 C.ar      1 MYU        -0.0059
     17 C5         29.3570   46.9350    4.5110 C.ar      1 MYU        -0.0332
     18 C4         28.1510   47.5920    4.3460 C.ar      1 MYU         0.1158
     19 O17        27.8480   48.7270    5.0250 O.3       1 MYU        -0.3371
     20 C3         27.1920   47.1040    3.4650 C.ar      1 MYU         0.1166
     21 O18        26.0510   47.8500    3.3920 O.3       1 MYU        -0.3363
     22 C2         27.4160   45.9340    2.7260 C.ar      1 MYU        -0.0408
     23 C1         28.6360   45.2770    2.9060 C.ar      1 MYU        -0.0721
     24 H          32.7523   47.2541    4.9381 H         1 MYU         0.2418
     25 H          35.7772   42.0610    5.5606 H         1 MYU         0.2460
     26 H          30.9990   41.3202    2.6865 H         1 MYU         0.0372
     27 H          33.7012   38.9969    3.2893 H         1 MYU         0.2456
     28 H          35.7149   40.6590    4.9865 H         1 MYU         0.2368
     29 H          30.0946   47.3183    5.2161 H         1 MYU         0.0495
     30 H          26.9713   49.0255    4.7720 H         1 MYU         0.2442
     31 H          25.4457   47.4464    2.7657 H         1 MYU         0.2450
     32 H          26.6650   45.5503    2.0354 H         1 MYU         0.0514
     33 H          28.8264   44.3516    2.3623 H         1 MYU         0.0495
@<TRIPOS>BOND
     1    1    2 2  
     2    2    3 1  
     3    2    5 1  
     4    3    4 1  
     5    3   15 2  
     6    5    6 ar 
     7    5    8 ar 
     8    6    7 1  
     9    6   12 ar 
    10    8    9 ar 
    11    8   14 1  
    12    9   10 ar 
    13   10   11 1  
    14   10   12 ar 
    15   12   13 1  
    16   14   15 1  
    17   15   16 1  
    18   16   17 ar 
    19   16   23 ar 
    20   17   18 ar 
    21   18   19 1  
    22   18   20 ar 
    23   20   21 1  
    24   20   22 ar 
    25   22   23 ar 
    26    4   24 1  
    27    7   25 1  
    28    9   26 1  
    29   11   27 1  
    30   13   28 1  
    31   17   29 1  
    32   19   30 1  
    33   21   31 1  
    34   22   32 1  
    35   23   33 1  
@<TRIPOS>SUBSTRUCTURE
     1 MYU         1

