### 
### Created by X-TOOL on Mon Sep 10 21:13:11 2018
### 

@<TRIPOS>MOLECULE
3v4j_ligand
   19    19     1     0     0
SMALL
GAST_HUCK


@<TRIPOS>ATOM
      1 O5        -17.2370  -23.1440    1.1680 O.2       1 PQR        -0.3031
      2 C6        -16.3760  -22.6920    0.3860 C.2       1 PQR         0.2832
      3 C7        -16.6710  -22.6610   -1.0640 C.2       1 PQR         0.3085
      4 O4        -17.7850  -23.0360   -1.4930 O.2       1 PQR        -0.2820
      5 C8        -15.7170  -22.2050   -1.9460 C.2       1 PQR         0.1305
      6 C9        -14.4840  -21.7550   -1.4740 C.2       1 PQR         0.1637
      7 N2        -13.5740  -21.3380   -2.4510 N.2       1 PQR        -0.1949
      8 N3        -12.2790  -21.2810   -2.1860 N.2       1 PQR         0.0456
      9 O3        -11.3780  -20.8800   -3.1810 O.3       1 PQR        -0.1635
     10 C10       -14.0100  -21.0380   -3.8220 C.3       1 PQR         0.0287
     11 C5        -15.1510  -22.2320    0.8830 C.2       1 PQR         0.0765
     12 C4        -14.1690  -21.7800    0.0020 C.2       1 PQR         0.0569
     13 H         -15.9259  -22.1957   -3.0158 H         1 PQR         0.1650
     14 H         -10.4857  -20.8932   -2.8272 H         1 PQR         0.3283
     15 H         -13.7105  -20.0230   -4.0833 H         1 PQR         0.0420
     16 H         -13.5471  -21.7437   -4.5117 H         1 PQR         0.0420
     17 H         -15.0947  -21.1255   -3.8843 H         1 PQR         0.0420
     18 H         -14.9649  -22.2271    1.9570 H         1 PQR         0.1261
     19 H         -13.1969  -21.4525    0.3706 H         1 PQR         0.1043
@<TRIPOS>BOND
     1    1    2 2  
     2    2    3 1  
     3    2   11 1  
     4    3    4 2  
     5    3    5 1  
     6    5    6 2  
     7    6    7 1  
     8    6   12 1  
     9    7    8 2  
    10    7   10 1  
    11    8    9 1  
    12   11   12 2  
    13    5   13 1  
    14    9   14 1  
    15   10   15 1  
    16   10   16 1  
    17   10   17 1  
    18   11   18 1  
    19   12   19 1  
@<TRIPOS>SUBSTRUCTURE
     1 PQR         1

